MODEL        1
REMARK 921   NORMALIZED FREE ENERGY PREDICTED BY IDOCK:   -7.27 KCAL/MOL
REMARK 922        TOTAL FREE ENERGY PREDICTED BY IDOCK:  -10.89 KCAL/MOL
REMARK 923 INTER-LIGAND FREE ENERGY PREDICTED BY IDOCK:   -8.97 KCAL/MOL
REMARK 924 INTRA-LIGAND FREE ENERGY PREDICTED BY IDOCK:   -1.93 KCAL/MOL
REMARK 927      BINDING AFFINITY PREDICTED BY RF-SCORE:    0.00 PKD
ROOT
HETATM    1 CA   UNL     1     -12.947  14.785  67.814  1.00  0.00    -0.576 Ca 
HETATM    2  O   UNL     2      -9.466  20.801  66.998  1.00  0.00    -0.634 OA 
HETATM    3  C   UNL     2     -10.302  19.729  67.448  1.00  0.00    -0.447 C  
HETATM    4  H   UNL     2      -9.532  21.500  67.638  1.00  0.00     0.000 HD 
HETATM    5  O   UNL     3      -7.737  13.206  68.036  1.00  0.00    -0.119 OA 
HETATM    6  H   UNL     3      -6.858  13.377  67.719  1.00  0.00     0.000 HD 
HETATM    7  C   UNL     3      -8.429  12.496  66.971  1.00  0.00    -0.161 C  
ENDROOT
BRANCH   3   8
HETATM    8  C   UNL     2     -10.196  18.617  66.430  1.00  0.00    -0.425 C  
HETATM    9  H   UNL     2     -10.835  18.324  64.595  1.00  0.00     0.000 HD 
HETATM   10  O   UNL     2     -10.901  19.023  65.235  1.00  0.00    -0.540 OA 
BRANCH   8  11
HETATM   11  C   UNL     2     -10.744  17.242  66.868  1.00  0.00    -0.126 C  
HETATM   12  C   UNL     2     -10.466  16.716  68.253  1.00  0.00    -0.321 C  
HETATM   13  O   UNL     2      -9.935  16.325  66.122  1.00  0.00    -0.293 OA 
HETATM   14  O   UNL     2      -7.666  15.988  66.401  1.00  0.00    -0.214 OA 
HETATM   15  H   UNL     2      -8.742  15.814  70.207  1.00  0.00     0.000 HD 
HETATM   16  O   UNL     2     -11.439  16.566  69.042  1.00  0.00    -0.249 OA 
HETATM   17  C   UNL     2      -8.768  16.254  66.827  1.00  0.00    -0.231 C  
HETATM   18  C   UNL     2      -9.165  16.340  68.259  1.00  0.00    -0.197 C  
HETATM   19  O   UNL     2      -8.489  15.760  69.293  1.00  0.00    -0.238 OA 
ENDBRANCH   8  11
ENDBRANCH   3   8
BRANCH   7  20
HETATM   20  C   UNL     3      -9.848  12.221  67.482  1.00  0.00    -0.193 C  
HETATM   21  O   UNL     3      -9.799  11.386  68.638  1.00  0.00    -0.200 OA 
HETATM   22  H   UNL     3     -10.678  11.216  68.955  1.00  0.00     0.000 HD 
BRANCH  20  23
HETATM   23  C   UNL     3     -11.003  11.840  66.514  1.00  0.00    -0.295 C  
HETATM   24  O   UNL     3     -13.353  14.022  65.206  1.00  0.00    -0.741 OA 
HETATM   25  C   UNL     3     -11.603  12.592  64.420  1.00  0.00    -0.357 C  
HETATM   26  C   UNL     3     -10.874  11.655  65.039  1.00  0.00    -0.288 C  
HETATM   27  O   UNL     3     -11.792  12.721  63.063  1.00  0.00    -0.780 OA 
HETATM   28  O   UNL     3     -12.142  12.705  66.658  1.00  0.00    -0.519 OA 
HETATM   29  C   UNL     3     -12.426  13.262  65.430  1.00  0.00    -0.489 C  
HETATM   30  O   UNL     3     -10.251  10.626  64.689  1.00  0.00    -0.333 OA 
HETATM   31  H   UNL     3     -11.258  12.286  62.408  1.00  0.00     0.000 HD 
ENDBRANCH  20  23
ENDBRANCH   7  20
TORSDOF 4
ENDMDL
MODEL        2
REMARK 921   NORMALIZED FREE ENERGY PREDICTED BY IDOCK:   -7.18 KCAL/MOL
REMARK 922        TOTAL FREE ENERGY PREDICTED BY IDOCK:  -10.78 KCAL/MOL
REMARK 923 INTER-LIGAND FREE ENERGY PREDICTED BY IDOCK:   -8.43 KCAL/MOL
REMARK 924 INTRA-LIGAND FREE ENERGY PREDICTED BY IDOCK:   -2.35 KCAL/MOL
REMARK 927      BINDING AFFINITY PREDICTED BY RF-SCORE:    0.00 PKD
ROOT
HETATM    1 CA   UNL     1     -10.542  15.782  69.891  1.00  0.00    -0.197 Ca 
HETATM    2  O   UNL     2      -7.500  21.224  66.714  1.00  0.00    -0.702 OA 
HETATM    3  C   UNL     2      -7.804  20.063  67.494  1.00  0.00    -0.301 C  
HETATM    4  H   UNL     2      -6.571  21.397  66.812  1.00  0.00     0.000 HD 
HETATM    5  O   UNL     3     -11.170  14.603  64.609  1.00  0.00    -0.472 OA 
HETATM    6  H   UNL     3     -11.299  14.966  63.740  1.00  0.00     0.000 HD 
HETATM    7  C   UNL     3     -12.468  14.645  65.269  1.00  0.00    -0.182 C  
ENDROOT
BRANCH   3   8
HETATM    8  C   UNL     2      -9.282  19.789  67.337  1.00  0.00    -0.338 C  
HETATM    9  H   UNL     2     -10.944  20.720  67.816  1.00  0.00     0.000 HD 
HETATM   10  O   UNL     2     -10.015  20.893  67.914  1.00  0.00    -0.197 OA 
BRANCH   8  11
HETATM   11  C   UNL     2      -9.801  18.482  67.973  1.00  0.00    -0.341 C  
HETATM   12  C   UNL     2      -9.041  17.192  67.794  1.00  0.00    -0.233 C  
HETATM   13  O   UNL     2     -10.947  18.172  67.173  1.00  0.00    -0.263 OA 
HETATM   14  O   UNL     2     -10.915  17.574  64.941  1.00  0.00    -0.887 OA 
HETATM   15  H   UNL     2      -8.056  15.154  66.220  1.00  0.00     0.000 HD 
HETATM   16  O   UNL     2      -8.527  16.654  68.813  1.00  0.00    -0.238 OA 
HETATM   17  C   UNL     2     -10.428  17.596  66.049  1.00  0.00    -0.278 C  
HETATM   18  C   UNL     2      -9.258  16.802  66.515  1.00  0.00    -0.268 C  
HETATM   19  O   UNL     2      -8.802  15.660  65.923  1.00  0.00    -0.279 OA 
ENDBRANCH   8  11
ENDBRANCH   3   8
BRANCH   7  20
HETATM   20  C   UNL     3     -12.261  14.060  66.671  1.00  0.00    -0.428 C  
HETATM   21  O   UNL     3     -11.883  15.091  67.581  1.00  0.00    -0.397 OA 
HETATM   22  H   UNL     3     -11.755  14.728  68.450  1.00  0.00     0.000 HD 
BRANCH  20  23
HETATM   23  C   UNL     3     -11.469  12.741  66.894  1.00  0.00    -0.340 C  
HETATM   24  O   UNL     3     -10.368  10.594  64.409  1.00  0.00    -0.363 OA 
HETATM   25  C   UNL     3      -9.435  11.986  66.117  1.00  0.00    -0.232 C  
HETATM   26  C   UNL     3     -10.000  12.642  67.138  1.00  0.00    -0.217 C  
HETATM   27  O   UNL     3      -8.109  11.638  65.998  1.00  0.00    -0.377 OA 
HETATM   28  O   UNL     3     -11.715  11.776  65.857  1.00  0.00    -0.397 OA 
HETATM   29  C   UNL     3     -10.508  11.417  65.298  1.00  0.00    -0.283 C  
HETATM   30  O   UNL     3      -9.624  13.049  68.261  1.00  0.00    -0.219 OA 
HETATM   31  H   UNL     3      -7.413  12.007  66.530  1.00  0.00     0.000 HD 
ENDBRANCH  20  23
ENDBRANCH   7  20
TORSDOF 4
ENDMDL
MODEL        3
REMARK 921   NORMALIZED FREE ENERGY PREDICTED BY IDOCK:   -7.18 KCAL/MOL
REMARK 922        TOTAL FREE ENERGY PREDICTED BY IDOCK:  -10.78 KCAL/MOL
REMARK 923 INTER-LIGAND FREE ENERGY PREDICTED BY IDOCK:   -8.58 KCAL/MOL
REMARK 924 INTRA-LIGAND FREE ENERGY PREDICTED BY IDOCK:   -2.20 KCAL/MOL
REMARK 927      BINDING AFFINITY PREDICTED BY RF-SCORE:    0.00 PKD
ROOT
HETATM    1 CA   UNL     1      -6.936  14.450  68.518  1.00  0.00    -0.080 Ca 
HETATM    2  O   UNL     2      -7.271  21.310  67.177  1.00  0.00    -0.697 OA 
HETATM    3  C   UNL     2      -6.997  19.905  67.171  1.00  0.00    -0.213 C  
HETATM    4  H   UNL     2      -6.838  21.686  66.419  1.00  0.00     0.000 HD 
HETATM    5  O   UNL     3     -12.249  15.245  67.605  1.00  0.00    -0.314 OA 
HETATM    6  H   UNL     3     -12.969  15.859  67.687  1.00  0.00     0.000 HD 
HETATM    7  C   UNL     3     -12.050  14.666  68.926  1.00  0.00    -0.216 C  
ENDROOT
BRANCH   3   8
HETATM    8  C   UNL     2      -7.686  19.307  68.376  1.00  0.00    -0.327 C  
HETATM    9  H   UNL     2      -7.453  19.409  70.324  1.00  0.00     0.000 HD 
HETATM   10  O   UNL     2      -7.020  19.785  69.566  1.00  0.00    -0.345 OA 
BRANCH   8  11
HETATM   11  C   UNL     2      -7.730  17.765  68.436  1.00  0.00    -0.278 C  
HETATM   12  C   UNL     2      -7.794  16.953  67.167  1.00  0.00    -0.177 C  
HETATM   13  O   UNL     2      -9.050  17.503  68.927  1.00  0.00    -0.246 OA 
HETATM   14  O   UNL     2     -11.021  17.942  67.805  1.00  0.00    -0.307 OA 
HETATM   15  H   UNL     2      -9.073  16.153  64.859  1.00  0.00     0.000 HD 
HETATM   16  O   UNL     2      -6.815  16.210  66.883  1.00  0.00    -0.200 OA 
HETATM   17  C   UNL     2      -9.850  17.634  67.829  1.00  0.00    -0.292 C  
HETATM   18  C   UNL     2      -9.054  17.096  66.692  1.00  0.00    -0.258 C  
HETATM   19  O   UNL     2      -9.581  16.497  65.584  1.00  0.00    -0.511 OA 
ENDBRANCH   8  11
ENDBRANCH   3   8
BRANCH   7  20
HETATM   20  C   UNL     3     -10.887  13.675  68.795  1.00  0.00    -0.255 C  
HETATM   21  O   UNL     3      -9.656  14.319  69.116  1.00  0.00    -0.399 OA 
HETATM   22  H   UNL     3      -8.936  13.706  69.035  1.00  0.00     0.000 HD 
BRANCH  20  23
HETATM   23  C   UNL     3     -10.766  12.719  67.576  1.00  0.00    -0.229 C  
HETATM   24  O   UNL     3     -12.969  12.547  64.909  1.00  0.00    -0.821 OA 
HETATM   25  C   UNL     3     -10.671  13.086  65.303  1.00  0.00    -0.299 C  
HETATM   26  C   UNL     3      -9.895  12.940  66.384  1.00  0.00    -0.268 C  
HETATM   27  O   UNL     3     -10.246  13.246  64.004  1.00  0.00    -0.676 OA 
HETATM   28  O   UNL     3     -12.046  12.387  67.015  1.00  0.00    -0.549 OA 
HETATM   29  C   UNL     3     -12.040  12.726  65.679  1.00  0.00    -0.459 C  
HETATM   30  O   UNL     3      -8.667  12.812  66.598  1.00  0.00    -0.167 OA 
HETATM   31  H   UNL     3      -9.358  13.479  63.760  1.00  0.00     0.000 HD 
ENDBRANCH  20  23
ENDBRANCH   7  20
TORSDOF 4
ENDMDL
MODEL        4
REMARK 921   NORMALIZED FREE ENERGY PREDICTED BY IDOCK:   -7.07 KCAL/MOL
REMARK 922        TOTAL FREE ENERGY PREDICTED BY IDOCK:  -10.65 KCAL/MOL
REMARK 923 INTER-LIGAND FREE ENERGY PREDICTED BY IDOCK:   -8.34 KCAL/MOL
REMARK 924 INTRA-LIGAND FREE ENERGY PREDICTED BY IDOCK:   -2.30 KCAL/MOL
REMARK 927      BINDING AFFINITY PREDICTED BY RF-SCORE:    0.00 PKD
ROOT
HETATM    1 CA   UNL     1     -10.758  15.428  69.880  1.00  0.00    -0.196 Ca 
HETATM    2  O   UNL     2      -7.922  21.227  67.178  1.00  0.00    -0.693 OA 
HETATM    3  C   UNL     2      -8.190  20.006  67.877  1.00  0.00    -0.254 C  
HETATM    4  H   UNL     2      -7.014  21.454  67.339  1.00  0.00     0.000 HD 
HETATM    5  O   UNL     3     -11.013  14.511  64.515  1.00  0.00    -0.561 OA 
HETATM    6  H   UNL     3     -11.118  14.913  63.661  1.00  0.00     0.000 HD 
HETATM    7  C   UNL     3     -12.345  14.432  65.099  1.00  0.00    -0.381 C  
ENDROOT
BRANCH   3   8
HETATM    8  C   UNL     2      -9.634  19.647  67.619  1.00  0.00    -0.346 C  
HETATM    9  H   UNL     2     -11.381  20.393  68.120  1.00  0.00     0.000 HD 
HETATM   10  O   UNL     2     -10.472  20.620  68.282  1.00  0.00    -0.068 OA 
BRANCH   8  11
HETATM   11  C   UNL     2     -10.075  18.240  68.078  1.00  0.00    -0.364 C  
HETATM   12  C   UNL     2      -9.190  17.044  67.832  1.00  0.00    -0.239 C  
HETATM   13  O   UNL     2     -11.128  17.922  67.161  1.00  0.00    -0.101 OA 
HETATM   14  O   UNL     2     -10.882  17.571  64.890  1.00  0.00    -0.832 OA 
HETATM   15  H   UNL     2      -7.912  15.276  66.146  1.00  0.00     0.000 HD 
HETATM   16  O   UNL     2      -8.703  16.446  68.830  1.00  0.00    -0.224 OA 
HETATM   17  C   UNL     2     -10.479  17.515  66.030  1.00  0.00    -0.274 C  
HETATM   18  C   UNL     2      -9.277  16.777  66.507  1.00  0.00    -0.268 C  
HETATM   19  O   UNL     2      -8.678  15.747  65.842  1.00  0.00    -0.260 OA 
ENDBRANCH   8  11
ENDBRANCH   3   8
BRANCH   7  20
HETATM   20  C   UNL     3     -12.176  13.783  66.478  1.00  0.00    -0.430 C  
HETATM   21  O   UNL     3     -11.945  14.785  67.466  1.00  0.00    -0.477 OA 
HETATM   22  H   UNL     3     -11.841  14.383  68.321  1.00  0.00     0.000 HD 
BRANCH  20  23
HETATM   23  C   UNL     3     -11.289  12.523  66.682  1.00  0.00    -0.334 C  
HETATM   24  O   UNL     3      -7.896  12.525  67.379  1.00  0.00    -0.158 OA 
HETATM   25  C   UNL     3      -9.937  11.824  68.412  1.00  0.00    -0.202 C  
HETATM   26  C   UNL     3     -11.187  11.728  67.941  1.00  0.00    -0.267 C  
HETATM   27  O   UNL     3      -9.427  11.185  69.520  1.00  0.00    -0.394 OA 
HETATM   28  O   UNL     3      -9.922  12.753  66.304  1.00  0.00    -0.254 OA 
HETATM   29  C   UNL     3      -9.114  12.460  67.381  1.00  0.00    -0.183 C  
HETATM   30  O   UNL     3     -12.202  11.050  68.220  1.00  0.00    -0.582 OA 
HETATM   31  H   UNL     3      -9.961  10.772  70.188  1.00  0.00     0.000 HD 
ENDBRANCH  20  23
ENDBRANCH   7  20
TORSDOF 4
ENDMDL
MODEL        5
REMARK 921   NORMALIZED FREE ENERGY PREDICTED BY IDOCK:   -6.96 KCAL/MOL
REMARK 922        TOTAL FREE ENERGY PREDICTED BY IDOCK:  -10.51 KCAL/MOL
REMARK 923 INTER-LIGAND FREE ENERGY PREDICTED BY IDOCK:   -8.77 KCAL/MOL
REMARK 924 INTRA-LIGAND FREE ENERGY PREDICTED BY IDOCK:   -1.74 KCAL/MOL
REMARK 927      BINDING AFFINITY PREDICTED BY RF-SCORE:    0.00 PKD
ROOT
HETATM    1 CA   UNL     1     -10.894  16.919  65.333  1.00  0.00    -0.325 Ca 
HETATM    2  O   UNL     2      -6.560  20.057  69.843  1.00  0.00    -0.350 OA 
HETATM    3  C   UNL     2      -7.625  19.711  68.950  1.00  0.00    -0.309 C  
HETATM    4  H   UNL     2      -6.754  20.917  70.197  1.00  0.00     0.000 HD 
HETATM    5  O   UNL     3     -11.025  13.594  69.648  1.00  0.00    -0.453 OA 
HETATM    6  H   UNL     3     -10.525  13.242  70.375  1.00  0.00     0.000 HD 
HETATM    7  C   UNL     3     -10.603  12.859  68.464  1.00  0.00    -0.253 C  
ENDROOT
BRANCH   3   8
HETATM    8  C   UNL     2      -7.315  18.344  68.388  1.00  0.00    -0.276 C  
HETATM    9  H   UNL     2      -5.898  17.570  67.269  1.00  0.00     0.000 HD 
HETATM   10  O   UNL     2      -6.092  18.430  67.623  1.00  0.00    -0.173 OA 
BRANCH   8  11
HETATM   11  C   UNL     2      -8.402  17.718  67.488  1.00  0.00    -0.226 C  
HETATM   12  C   UNL     2      -9.844  17.703  67.930  1.00  0.00    -0.300 C  
HETATM   13  O   UNL     2      -8.131  16.316  67.588  1.00  0.00    -0.142 OA 
HETATM   14  O   UNL     2      -8.363  15.027  69.492  1.00  0.00    -0.184 OA 
HETATM   15  H   UNL     2     -11.851  16.892  69.639  1.00  0.00     0.000 HD 
HETATM   16  O   UNL     2     -10.680  18.376  67.267  1.00  0.00    -0.411 OA 
HETATM   17  C   UNL     2      -8.691  15.948  68.778  1.00  0.00    -0.213 C  
HETATM   18  C   UNL     2      -9.930  16.763  68.901  1.00  0.00    -0.271 C  
HETATM   19  O   UNL     2     -11.060  16.373  69.560  1.00  0.00    -0.316 OA 
ENDBRANCH   8  11
ENDBRANCH   3   8
BRANCH   7  20
HETATM   20  C   UNL     3     -11.410  13.427  67.290  1.00  0.00    -0.319 C  
HETATM   21  O   UNL     3     -12.489  14.222  67.776  1.00  0.00    -0.567 OA 
HETATM   22  H   UNL     3     -12.989  14.574  67.049  1.00  0.00     0.000 HD 
BRANCH  20  23
HETATM   23  C   UNL     3     -11.814  12.543  66.077  1.00  0.00    -0.418 C  
HETATM   24  O   UNL     3     -12.605  13.693  62.907  1.00  0.00    -0.621 OA 
HETATM   25  C   UNL     3     -10.953  12.313  63.952  1.00  0.00    -0.406 C  
HETATM   26  C   UNL     3     -10.869  11.805  65.188  1.00  0.00    -0.297 C  
HETATM   27  O   UNL     3     -10.287  11.864  62.834  1.00  0.00    -0.616 OA 
HETATM   28  O   UNL     3     -12.682  13.235  65.164  1.00  0.00    -0.597 OA 
HETATM   29  C   UNL     3     -12.107  13.214  63.912  1.00  0.00    -0.470 C  
HETATM   30  O   UNL     3     -10.314  10.814  65.716  1.00  0.00    -0.251 OA 
HETATM   31  H   UNL     3      -9.539  11.279  62.860  1.00  0.00     0.000 HD 
ENDBRANCH  20  23
ENDBRANCH   7  20
TORSDOF 4
ENDMDL
MODEL        6
REMARK 921   NORMALIZED FREE ENERGY PREDICTED BY IDOCK:   -6.96 KCAL/MOL
REMARK 922        TOTAL FREE ENERGY PREDICTED BY IDOCK:  -10.51 KCAL/MOL
REMARK 923 INTER-LIGAND FREE ENERGY PREDICTED BY IDOCK:   -9.77 KCAL/MOL
REMARK 924 INTRA-LIGAND FREE ENERGY PREDICTED BY IDOCK:   -0.74 KCAL/MOL
REMARK 927      BINDING AFFINITY PREDICTED BY RF-SCORE:    0.00 PKD
ROOT
HETATM    1 CA   UNL     1      -8.696  10.099  67.821  1.00  0.00    -0.115 Ca 
HETATM    2  O   UNL     2     -12.533  13.642  63.164  1.00  0.00    -1.033 OA 
HETATM    3  C   UNL     2     -11.707  12.696  63.852  1.00  0.00    -0.457 C  
HETATM    4  H   UNL     2     -12.685  13.303  62.289  1.00  0.00     0.000 HD 
HETATM    5  O   UNL     3     -13.627  10.188  70.136  1.00  0.00    -0.394 OA 
HETATM    6  H   UNL     3     -14.427  10.688  70.244  1.00  0.00     0.000 HD 
HETATM    7  C   UNL     3     -12.644  10.785  71.030  1.00  0.00    -0.420 C  
ENDROOT
BRANCH   3   8
HETATM    8  C   UNL     2     -11.467  13.236  65.242  1.00  0.00    -0.295 C  
HETATM    9  H   UNL     2     -12.024  12.741  67.060  1.00  0.00     0.000 HD 
HETATM   10  O   UNL     2     -12.175  12.401  66.185  1.00  0.00    -0.635 OA 
BRANCH   8  11
HETATM   11  C   UNL     2     -11.890  14.700  65.483  1.00  0.00    -0.292 C  
HETATM   12  C   UNL     2     -11.064  15.835  64.931  1.00  0.00    -0.399 C  
HETATM   13  O   UNL     2     -11.610  14.888  66.875  1.00  0.00    -0.345 OA 
HETATM   14  O   UNL     2      -9.513  14.886  67.845  1.00  0.00    -0.196 OA 
HETATM   15  H   UNL     2      -8.738  17.312  64.814  1.00  0.00     0.000 HD 
HETATM   16  O   UNL     2     -11.577  16.572  64.046  1.00  0.00    -1.154 OA 
HETATM   17  C   UNL     2     -10.264  15.110  66.922  1.00  0.00    -0.259 C  
HETATM   18  C   UNL     2      -9.950  15.898  65.699  1.00  0.00    -0.334 C  
HETATM   19  O   UNL     2      -8.939  16.809  65.594  1.00  0.00    -0.475 OA 
ENDBRANCH   8  11
ENDBRANCH   3   8
BRANCH   7  20
HETATM   20  C   UNL     3     -11.353   9.978  70.857  1.00  0.00    -0.361 C  
HETATM   21  O   UNL     3     -10.496  10.621  69.914  1.00  0.00    -0.399 OA 
HETATM   22  H   UNL     3      -9.696  10.121  69.807  1.00  0.00     0.000 HD 
BRANCH  20  23
HETATM   23  C   UNL     3     -11.374   8.433  70.693  1.00  0.00    -0.244 C  
HETATM   24  O   UNL     3      -9.026   6.228  71.969  1.00  0.00    -0.142 OA 
HETATM   25  C   UNL     3     -11.360   6.698  72.209  1.00  0.00    -0.275 C  
HETATM   26  C   UNL     3     -12.187   7.485  71.509  1.00  0.00    -0.331 C  
HETATM   27  O   UNL     3     -11.721   5.656  73.032  1.00  0.00    -0.516 OA 
HETATM   28  O   UNL     3     -10.053   7.866  70.713  1.00  0.00    -0.192 OA 
HETATM   29  C   UNL     3     -10.001   6.915  71.709  1.00  0.00    -0.173 C  
HETATM   30  O   UNL     3     -13.419   7.519  71.284  1.00  0.00    -0.331 OA 
HETATM   31  H   UNL     3     -12.604   5.515  73.356  1.00  0.00     0.000 HD 
ENDBRANCH  20  23
ENDBRANCH   7  20
TORSDOF 4
ENDMDL
MODEL        7
REMARK 921   NORMALIZED FREE ENERGY PREDICTED BY IDOCK:   -6.90 KCAL/MOL
REMARK 922        TOTAL FREE ENERGY PREDICTED BY IDOCK:  -10.44 KCAL/MOL
REMARK 923 INTER-LIGAND FREE ENERGY PREDICTED BY IDOCK:   -9.31 KCAL/MOL
REMARK 924 INTRA-LIGAND FREE ENERGY PREDICTED BY IDOCK:   -1.14 KCAL/MOL
REMARK 927      BINDING AFFINITY PREDICTED BY RF-SCORE:    0.00 PKD
ROOT
HETATM    1 CA   UNL     1      -8.240  10.880  68.170  1.00  0.00    -0.100 Ca 
HETATM    2  O   UNL     2     -12.355  13.331  63.068  1.00  0.00    -0.801 OA 
HETATM    3  C   UNL     2     -11.407  12.611  63.864  1.00  0.00    -0.441 C  
HETATM    4  H   UNL     2     -12.364  12.931  62.207  1.00  0.00     0.000 HD 
HETATM    5  O   UNL     3     -13.247  10.016  70.137  1.00  0.00    -0.535 OA 
HETATM    6  H   UNL     3     -14.140  10.339  70.161  1.00  0.00     0.000 HD 
HETATM    7  C   UNL     3     -12.484  10.845  71.059  1.00  0.00    -0.411 C  
ENDROOT
BRANCH   3   8
HETATM    8  C   UNL     2     -11.394  13.247  65.234  1.00  0.00    -0.295 C  
HETATM    9  H   UNL     2     -12.143  12.808  66.996  1.00  0.00     0.000 HD 
HETATM   10  O   UNL     2     -12.151  12.408  66.134  1.00  0.00    -0.611 OA 
BRANCH   8  11
HETATM   11  C   UNL     2     -11.959  14.680  65.322  1.00  0.00    -0.302 C  
HETATM   12  C   UNL     2     -11.152  15.852  64.823  1.00  0.00    -0.384 C  
HETATM   13  O   UNL     2     -11.902  14.961  66.725  1.00  0.00    -0.304 OA 
HETATM   14  O   UNL     2      -9.975  15.187  67.980  1.00  0.00    -0.219 OA 
HETATM   15  H   UNL     2      -8.956  17.515  64.945  1.00  0.00     0.000 HD 
HETATM   16  O   UNL     2     -11.586  16.498  63.830  1.00  0.00    -1.175 OA 
HETATM   17  C   UNL     2     -10.598  15.299  66.948  1.00  0.00    -0.304 C  
HETATM   18  C   UNL     2     -10.171  16.049  65.735  1.00  0.00    -0.377 C  
HETATM   19  O   UNL     2      -9.228  17.036  65.719  1.00  0.00    -0.526 OA 
ENDBRANCH   8  11
ENDBRANCH   3   8
BRANCH   7  20
HETATM   20  C   UNL     3     -11.043  10.324  71.021  1.00  0.00    -0.035 C  
HETATM   21  O   UNL     3     -10.401  10.747  69.819  1.00  0.00    -0.417 OA 
HETATM   22  H   UNL     3      -9.508  10.425  69.795  1.00  0.00     0.000 HD 
BRANCH  20  23
HETATM   23  C   UNL     3     -10.696   8.859  71.403  1.00  0.00    -0.312 C  
HETATM   24  O   UNL     3     -12.982   6.337  72.044  1.00  0.00    -0.125 OA 
HETATM   25  C   UNL     3     -11.248   6.825  70.469  1.00  0.00    -0.320 C  
HETATM   26  C   UNL     3     -10.310   7.780  70.445  1.00  0.00    -0.212 C  
HETATM   27  O   UNL     3     -11.227   5.637  69.774  1.00  0.00    -0.274 OA 
HETATM   28  O   UNL     3     -11.713   8.253  72.217  1.00  0.00    -0.338 OA 
HETATM   29  C   UNL     3     -12.142   7.100  71.596  1.00  0.00    -0.336 C  
HETATM   30  O   UNL     3      -9.173   7.909  69.937  1.00  0.00    -0.152 OA 
HETATM   31  H   UNL     3     -10.647   5.459  69.043  1.00  0.00     0.000 HD 
ENDBRANCH  20  23
ENDBRANCH   7  20
TORSDOF 4
ENDMDL
MODEL        8
REMARK 921   NORMALIZED FREE ENERGY PREDICTED BY IDOCK:   -6.83 KCAL/MOL
REMARK 922        TOTAL FREE ENERGY PREDICTED BY IDOCK:  -10.36 KCAL/MOL
REMARK 923 INTER-LIGAND FREE ENERGY PREDICTED BY IDOCK:   -9.39 KCAL/MOL
REMARK 924 INTRA-LIGAND FREE ENERGY PREDICTED BY IDOCK:   -0.97 KCAL/MOL
REMARK 927      BINDING AFFINITY PREDICTED BY RF-SCORE:    0.00 PKD
ROOT
HETATM    1 CA   UNL     1     -13.650  10.366  69.243  1.00  0.00    -0.429 Ca 
HETATM    2  O   UNL     2     -10.886  16.657  67.920  1.00  0.00    -0.347 OA 
HETATM    3  C   UNL     2     -11.653  15.550  68.408  1.00  0.00    -0.357 C  
HETATM    4  H   UNL     2     -11.178  17.432  68.386  1.00  0.00     0.000 HD 
HETATM    5  O   UNL     3      -8.449   9.740  70.741  1.00  0.00    -0.365 OA 
HETATM    6  H   UNL     3      -7.552   9.999  70.566  1.00  0.00     0.000 HD 
HETATM    7  C   UNL     3      -8.799   8.756  69.726  1.00  0.00    -0.142 C  
ENDROOT
BRANCH   3   8
HETATM    8  C   UNL     2     -11.188  14.318  67.668  1.00  0.00    -0.304 C  
HETATM    9  H   UNL     2     -10.058  12.767  68.088  1.00  0.00     0.000 HD 
HETATM   10  O   UNL     2     -10.351  13.542  68.554  1.00  0.00    -0.240 OA 
BRANCH   8  11
HETATM   11  C   UNL     2     -10.405  14.568  66.362  1.00  0.00    -0.293 C  
HETATM   12  C   UNL     2     -11.102  15.132  65.149  1.00  0.00    -0.403 C  
HETATM   13  O   UNL     2     -10.165  13.242  65.876  1.00  0.00    -0.283 OA 
HETATM   14  O   UNL     2     -11.776  11.764  65.129  1.00  0.00    -0.230 OA 
HETATM   15  H   UNL     2     -12.961  14.962  63.120  1.00  0.00     0.000 HD 
HETATM   16  O   UNL     2     -10.761  16.276  64.742  1.00  0.00    -0.680 OA 
HETATM   17  C   UNL     2     -11.340  12.883  65.280  1.00  0.00    -0.300 C  
HETATM   18  C   UNL     2     -11.860  14.127  64.650  1.00  0.00    -0.431 C  
HETATM   19  O   UNL     2     -12.629  14.169  63.523  1.00  0.00    -0.834 OA 
ENDBRANCH   8  11
ENDBRANCH   3   8
BRANCH   7  20
HETATM   20  C   UNL     3     -10.246   8.337  70.008  1.00  0.00    -0.202 C  
HETATM   21  O   UNL     3     -11.070   8.633  68.882  1.00  0.00    -0.435 OA 
HETATM   22  H   UNL     3     -11.967   8.374  69.057  1.00  0.00     0.000 HD 
BRANCH  20  23
HETATM   23  C   UNL     3     -10.939   8.660  71.361  1.00  0.00    -0.271 C  
HETATM   24  O   UNL     3     -13.362  11.083  71.868  1.00  0.00    -0.422 OA 
HETATM   25  C   UNL     3     -13.147   8.704  72.018  1.00  0.00    -0.381 C  
HETATM   26  C   UNL     3     -12.078   7.901  71.957  1.00  0.00    -0.320 C  
HETATM   27  O   UNL     3     -14.374   8.396  72.560  1.00  0.00    -0.679 OA 
HETATM   28  O   UNL     3     -11.354  10.033  71.445  1.00  0.00    -0.339 OA 
HETATM   29  C   UNL     3     -12.706  10.066  71.710  1.00  0.00    -0.428 C  
HETATM   30  O   UNL     3     -11.784   6.762  72.387  1.00  0.00    -0.272 OA 
HETATM   31  H   UNL     3     -14.660   7.512  72.760  1.00  0.00     0.000 HD 
ENDBRANCH  20  23
ENDBRANCH   7  20
TORSDOF 4
ENDMDL
MODEL        9
REMARK 921   NORMALIZED FREE ENERGY PREDICTED BY IDOCK:   -6.82 KCAL/MOL
REMARK 922        TOTAL FREE ENERGY PREDICTED BY IDOCK:  -10.34 KCAL/MOL
REMARK 923 INTER-LIGAND FREE ENERGY PREDICTED BY IDOCK:   -8.08 KCAL/MOL
REMARK 924 INTRA-LIGAND FREE ENERGY PREDICTED BY IDOCK:   -2.27 KCAL/MOL
REMARK 927      BINDING AFFINITY PREDICTED BY RF-SCORE:    0.00 PKD
ROOT
HETATM    1 CA   UNL     1      -9.109  14.984  64.588  1.00  0.00    -0.152 Ca 
HETATM    2  O   UNL     2     -10.453  20.244  69.004  1.00  0.00    -0.483 OA 
HETATM    3  C   UNL     2     -10.439  19.308  67.920  1.00  0.00    -0.410 C  
HETATM    4  H   UNL     2     -11.168  20.850  68.847  1.00  0.00     0.000 HD 
HETATM    5  O   UNL     3     -10.493  12.388  69.174  1.00  0.00    -0.425 OA 
HETATM    6  H   UNL     3     -10.475  12.421  70.123  1.00  0.00     0.000 HD 
HETATM    7  C   UNL     3      -9.162  11.978  68.750  1.00  0.00     0.069 C  
ENDROOT
BRANCH   3   8
HETATM    8  C   UNL     2      -9.303  18.345  68.171  1.00  0.00    -0.317 C  
HETATM    9  H   UNL     2      -7.342  18.452  68.174  1.00  0.00     0.000 HD 
HETATM   10  O   UNL     2      -8.056  19.059  68.016  1.00  0.00    -0.278 OA 
BRANCH   8  11
HETATM   11  C   UNL     2      -9.259  17.097  67.263  1.00  0.00    -0.230 C  
HETATM   12  C   UNL     2     -10.532  16.385  66.881  1.00  0.00    -0.289 C  
HETATM   13  O   UNL     2      -8.702  16.097  68.123  1.00  0.00    -0.171 OA 
HETATM   14  O   UNL     2      -9.714  15.217  70.005  1.00  0.00    -0.190 OA 
HETATM   15  H   UNL     2     -12.779  14.920  67.518  1.00  0.00     0.000 HD 
HETATM   16  O   UNL     2     -10.876  16.387  65.667  1.00  0.00    -0.278 OA 
HETATM   17  C   UNL     2      -9.755  15.688  68.890  1.00  0.00    -0.220 C  
HETATM   18  C   UNL     2     -10.938  15.720  67.988  1.00  0.00    -0.330 C  
HETATM   19  O   UNL     2     -12.024  14.899  68.094  1.00  0.00    -0.304 OA 
ENDBRANCH   8  11
ENDBRANCH   3   8
BRANCH   7  20
HETATM   20  C   UNL     3      -9.191  11.924  67.218  1.00  0.00    -0.179 C  
HETATM   21  O   UNL     3      -8.766  13.173  66.676  1.00  0.00    -0.400 OA 
HETATM   22  H   UNL     3      -8.784  13.140  65.727  1.00  0.00     0.000 HD 
BRANCH  20  23
HETATM   23  C   UNL     3     -10.394  11.312  66.448  1.00  0.00    -0.245 C  
HETATM   24  O   UNL     3     -12.911  13.098  64.875  1.00  0.00    -0.734 OA 
HETATM   25  C   UNL     3     -11.165  11.569  64.291  1.00  0.00    -0.283 C  
HETATM   26  C   UNL     3     -10.359  10.809  65.043  1.00  0.00    -0.287 C  
HETATM   27  O   UNL     3     -11.453  11.390  62.957  1.00  0.00    -0.853 OA 
HETATM   28  O   UNL     3     -11.552  12.162  66.484  1.00  0.00    -0.394 OA 
HETATM   29  C   UNL     3     -11.942  12.427  65.189  1.00  0.00    -0.400 C  
HETATM   30  O   UNL     3      -9.723   9.743  64.881  1.00  0.00    -0.296 OA 
HETATM   31  H   UNL     3     -10.949  10.834  62.375  1.00  0.00     0.000 HD 
ENDBRANCH  20  23
ENDBRANCH   7  20
TORSDOF 4
ENDMDL
MODEL       10
REMARK 921   NORMALIZED FREE ENERGY PREDICTED BY IDOCK:   -6.78 KCAL/MOL
REMARK 922        TOTAL FREE ENERGY PREDICTED BY IDOCK:  -10.29 KCAL/MOL
REMARK 923 INTER-LIGAND FREE ENERGY PREDICTED BY IDOCK:   -9.15 KCAL/MOL
REMARK 924 INTRA-LIGAND FREE ENERGY PREDICTED BY IDOCK:   -1.14 KCAL/MOL
REMARK 927      BINDING AFFINITY PREDICTED BY RF-SCORE:    0.00 PKD
ROOT
HETATM    1 CA   UNL     1     -12.868  11.068  69.928  1.00  0.00    -0.289 Ca 
HETATM    2  O   UNL     2     -10.005   4.684  69.815  1.00  0.00    -0.217 OA 
HETATM    3  C   UNL     2     -10.889   5.811  69.843  1.00  0.00    -0.347 C  
HETATM    4  H   UNL     2     -10.544   3.902  69.782  1.00  0.00     0.000 HD 
HETATM    5  O   UNL     3     -10.132  11.054  65.216  1.00  0.00    -0.245 OA 
HETATM    6  H   UNL     3      -9.365  10.726  64.763  1.00  0.00     0.000 HD 
HETATM    7  C   UNL     3      -9.677  12.154  66.055  1.00  0.00    -0.244 C  
ENDROOT
BRANCH   3   8
HETATM    8  C   UNL     2     -10.031   7.054  69.895  1.00  0.00    -0.177 C  
HETATM    9  H   UNL     2      -8.178   7.505  69.426  1.00  0.00     0.000 HD 
HETATM   10  O   UNL     2      -8.717   6.724  69.392  1.00  0.00    -0.134 OA 
BRANCH   8  11
HETATM   11  C   UNL     2      -9.865   7.704  71.285  1.00  0.00    -0.171 C  
HETATM   12  C   UNL     2     -11.075   8.078  72.103  1.00  0.00    -0.311 C  
HETATM   13  O   UNL     2      -9.404   9.023  70.967  1.00  0.00    -0.229 OA 
HETATM   14  O   UNL     2     -10.626  10.654  69.877  1.00  0.00    -0.238 OA 
HETATM   15  H   UNL     2     -13.366   9.556  72.514  1.00  0.00     0.000 HD 
HETATM   16  O   UNL     2     -11.271   7.471  73.191  1.00  0.00    -0.369 OA 
HETATM   17  C   UNL     2     -10.537   9.700  70.618  1.00  0.00    -0.319 C  
HETATM   18  C   UNL     2     -11.604   9.176  71.514  1.00  0.00    -0.368 C  
HETATM   19  O   UNL     2     -12.686   9.890  71.942  1.00  0.00    -0.394 OA 
ENDBRANCH   8  11
ENDBRANCH   3   8
BRANCH   7  20
HETATM   20  C   UNL     3     -10.916  12.684  66.786  1.00  0.00    -0.262 C  
HETATM   21  O   UNL     3     -11.950  11.701  66.773  1.00  0.00    -0.536 OA 
HETATM   22  H   UNL     3     -12.718  12.029  67.226  1.00  0.00     0.000 HD 
BRANCH  20  23
HETATM   23  C   UNL     3     -11.451  14.122  66.545  1.00  0.00    -0.358 C  
HETATM   24  O   UNL     3      -9.572  16.831  65.480  1.00  0.00    -0.515 OA 
HETATM   25  C   UNL     3     -11.419  15.517  64.711  1.00  0.00    -0.313 C  
HETATM   26  C   UNL     3     -12.166  14.589  65.320  1.00  0.00    -0.321 C  
HETATM   27  O   UNL     3     -11.757  16.233  63.585  1.00  0.00    -1.447 OA 
HETATM   28  O   UNL     3     -10.441  15.122  66.759  1.00  0.00    -0.272 OA 
HETATM   29  C   UNL     3     -10.325  15.880  65.614  1.00  0.00    -0.390 C  
HETATM   30  O   UNL     3     -13.328  14.141  65.187  1.00  0.00    -0.684 OA 
HETATM   31  H   UNL     3     -12.467  15.998  62.999  1.00  0.00     0.000 HD 
ENDBRANCH  20  23
ENDBRANCH   7  20
TORSDOF 4
ENDMDL
MODEL       11
REMARK 921   NORMALIZED FREE ENERGY PREDICTED BY IDOCK:   -6.74 KCAL/MOL
REMARK 922        TOTAL FREE ENERGY PREDICTED BY IDOCK:  -10.24 KCAL/MOL
REMARK 923 INTER-LIGAND FREE ENERGY PREDICTED BY IDOCK:   -8.36 KCAL/MOL
REMARK 924 INTRA-LIGAND FREE ENERGY PREDICTED BY IDOCK:   -1.87 KCAL/MOL
REMARK 927      BINDING AFFINITY PREDICTED BY RF-SCORE:    0.00 PKD
ROOT
HETATM    1 CA   UNL     1      -7.913  13.818  69.837  1.00  0.00    -0.327 Ca 
HETATM    2  O   UNL     2     -13.446   9.641  70.790  1.00  0.00    -0.606 OA 
HETATM    3  C   UNL     2     -12.389  10.599  70.919  1.00  0.00    -0.401 C  
HETATM    4  H   UNL     2     -13.958   9.675  71.590  1.00  0.00     0.000 HD 
HETATM    5  O   UNL     3     -11.348  15.454  65.937  1.00  0.00    -0.249 OA 
HETATM    6  H   UNL     3     -12.030  15.179  65.335  1.00  0.00     0.000 HD 
HETATM    7  C   UNL     3     -10.084  15.037  65.347  1.00  0.00    -0.362 C  
ENDROOT
BRANCH   3   8
HETATM    8  C   UNL     2     -11.576  10.545  69.646  1.00  0.00    -0.271 C  
HETATM    9  H   UNL     2      -9.939   9.631  69.060  1.00  0.00     0.000 HD 
HETATM   10  O   UNL     2     -10.451   9.664  69.860  1.00  0.00    -0.217 OA 
BRANCH   8  11
HETATM   11  C   UNL     2     -11.039  11.895  69.127  1.00  0.00    -0.228 C  
HETATM   12  C   UNL     2     -11.872  12.744  68.200  1.00  0.00    -0.324 C  
HETATM   13  O   UNL     2     -10.021  11.498  68.200  1.00  0.00    -0.180 OA 
HETATM   14  O   UNL     2     -10.371  10.385  66.206  1.00  0.00    -0.236 OA 
HETATM   15  H   UNL     2     -13.145  13.178  65.793  1.00  0.00     0.000 HD 
HETATM   16  O   UNL     2     -12.273  13.865  68.615  1.00  0.00    -0.345 OA 
HETATM   17  C   UNL     2     -10.708  11.165  67.068  1.00  0.00    -0.268 C  
HETATM   18  C   UNL     2     -11.842  12.126  66.996  1.00  0.00    -0.216 C  
HETATM   19  O   UNL     2     -12.422  12.564  65.840  1.00  0.00    -0.596 OA 
ENDBRANCH   8  11
ENDBRANCH   3   8
BRANCH   7  20
HETATM   20  C   UNL     3      -8.984  15.480  66.318  1.00  0.00    -0.327 C  
HETATM   21  O   UNL     3      -9.007  14.665  67.489  1.00  0.00    -0.176 OA 
HETATM   22  H   UNL     3      -8.325  14.939  68.091  1.00  0.00     0.000 HD 
BRANCH  20  23
HETATM   23  C   UNL     3      -8.734  16.980  66.636  1.00  0.00    -0.251 C  
HETATM   24  O   UNL     3     -10.904  19.588  65.936  1.00  0.00    -0.436 OA 
HETATM   25  C   UNL     3      -9.918  18.542  67.849  1.00  0.00    -0.346 C  
HETATM   26  C   UNL     3      -8.941  17.633  67.962  1.00  0.00    -0.264 C  
HETATM   27  O   UNL     3     -10.362  19.396  68.833  1.00  0.00    -0.548 OA 
HETATM   28  O   UNL     3      -9.405  17.852  65.711  1.00  0.00    -0.507 OA 
HETATM   29  C   UNL     3     -10.218  18.705  66.425  1.00  0.00    -0.425 C  
HETATM   30  O   UNL     3      -8.108  17.315  68.842  1.00  0.00    -0.257 OA 
HETATM   31  H   UNL     3     -10.167  19.289  69.757  1.00  0.00     0.000 HD 
ENDBRANCH  20  23
ENDBRANCH   7  20
TORSDOF 4
ENDMDL
MODEL       12
REMARK 921   NORMALIZED FREE ENERGY PREDICTED BY IDOCK:   -6.71 KCAL/MOL
REMARK 922        TOTAL FREE ENERGY PREDICTED BY IDOCK:  -10.20 KCAL/MOL
REMARK 923 INTER-LIGAND FREE ENERGY PREDICTED BY IDOCK:   -8.30 KCAL/MOL
REMARK 924 INTRA-LIGAND FREE ENERGY PREDICTED BY IDOCK:   -1.90 KCAL/MOL
REMARK 927      BINDING AFFINITY PREDICTED BY RF-SCORE:    0.00 PKD
ROOT
HETATM    1 CA   UNL     1     -13.235  16.051  69.419  1.00  0.00    -0.565 Ca 
HETATM    2  O   UNL     2      -8.190  19.759  66.294  1.00  0.00    -0.329 OA 
HETATM    3  C   UNL     2      -9.144  19.202  67.206  1.00  0.00    -0.295 C  
HETATM    4  H   UNL     2      -7.695  20.417  66.769  1.00  0.00     0.000 HD 
HETATM    5  O   UNL     3      -9.564  12.240  68.118  1.00  0.00    -0.203 OA 
HETATM    6  H   UNL     3      -8.902  11.980  67.489  1.00  0.00     0.000 HD 
HETATM    7  C   UNL     3     -10.852  11.919  67.519  1.00  0.00    -0.238 C  
ENDROOT
BRANCH   3   8
HETATM    8  C   UNL     2      -9.930  18.156  66.450  1.00  0.00    -0.376 C  
HETATM    9  H   UNL     2     -11.235  18.165  64.982  1.00  0.00     0.000 HD 
HETATM   10  O   UNL     2     -10.740  18.823  65.456  1.00  0.00    -0.569 OA 
BRANCH   8  11
HETATM   11  C   UNL     2     -10.854  17.258  67.300  1.00  0.00    -0.124 C  
HETATM   12  C   UNL     2     -10.340  16.609  68.560  1.00  0.00    -0.303 C  
HETATM   13  O   UNL     2     -10.988  16.083  66.491  1.00  0.00    -0.226 OA 
HETATM   14  O   UNL     2      -9.297  14.593  65.983  1.00  0.00    -0.266 OA 
HETATM   15  H   UNL     2      -8.669  14.859  69.882  1.00  0.00     0.000 HD 
HETATM   16  O   UNL     2     -10.843  16.961  69.662  1.00  0.00    -0.302 OA 
HETATM   17  C   UNL     2      -9.840  15.381  66.724  1.00  0.00    -0.245 C  
HETATM   18  C   UNL     2      -9.523  15.605  68.161  1.00  0.00    -0.195 C  
HETATM   19  O   UNL     2      -8.871  14.716  68.965  1.00  0.00    -0.166 OA 
ENDBRANCH   8  11
ENDBRANCH   3   8
BRANCH   7  20
HETATM   20  C   UNL     3     -11.920  12.339  68.535  1.00  0.00    -0.219 C  
HETATM   21  O   UNL     3     -12.362  13.667  68.261  1.00  0.00    -0.366 OA 
HETATM   22  H   UNL     3     -13.024  13.927  68.890  1.00  0.00     0.000 HD 
BRANCH  20  23
HETATM   23  C   UNL     3     -11.752  12.064  70.055  1.00  0.00    -0.267 C  
HETATM   24  O   UNL     3     -13.935  13.067  72.550  1.00  0.00    -0.632 OA 
HETATM   25  C   UNL     3     -13.094  11.030  71.617  1.00  0.00    -0.438 C  
HETATM   26  C   UNL     3     -12.102  10.790  70.751  1.00  0.00    -0.372 C  
HETATM   27  O   UNL     3     -13.655  10.127  72.492  1.00  0.00    -0.627 OA 
HETATM   28  O   UNL     3     -12.364  13.082  70.864  1.00  0.00    -0.366 OA 
HETATM   29  C   UNL     3     -13.267  12.481  71.713  1.00  0.00    -0.344 C  
HETATM   30  O   UNL     3     -11.342   9.827  70.499  1.00  0.00    -0.269 OA 
HETATM   31  H   UNL     3     -13.542   9.186  72.429  1.00  0.00     0.000 HD 
ENDBRANCH  20  23
ENDBRANCH   7  20
TORSDOF 4
ENDMDL
MODEL       13
REMARK 921   NORMALIZED FREE ENERGY PREDICTED BY IDOCK:   -6.71 KCAL/MOL
REMARK 922        TOTAL FREE ENERGY PREDICTED BY IDOCK:  -10.20 KCAL/MOL
REMARK 923 INTER-LIGAND FREE ENERGY PREDICTED BY IDOCK:   -9.18 KCAL/MOL
REMARK 924 INTRA-LIGAND FREE ENERGY PREDICTED BY IDOCK:   -1.02 KCAL/MOL
REMARK 927      BINDING AFFINITY PREDICTED BY RF-SCORE:    0.00 PKD
ROOT
HETATM    1 CA   UNL     1      -9.423  14.486  68.810  1.00  0.00    -0.169 Ca 
HETATM    2  O   UNL     2     -13.674  10.098  72.222  1.00  0.00    -0.523 OA 
HETATM    3  C   UNL     2     -12.927  11.227  71.753  1.00  0.00    -0.414 C  
HETATM    4  H   UNL     2     -14.231  10.401  72.930  1.00  0.00     0.000 HD 
HETATM    5  O   UNL     3     -12.892  12.896  64.921  1.00  0.00    -0.701 OA 
HETATM    6  H   UNL     3     -13.431  12.181  64.603  1.00  0.00     0.000 HD 
HETATM    7  C   UNL     3     -11.524  12.590  64.526  1.00  0.00    -0.337 C  
ENDROOT
BRANCH   3   8
HETATM    8  C   UNL     2     -12.043  10.744  70.627  1.00  0.00    -0.370 C  
HETATM    9  H   UNL     2     -12.118  10.783  68.664  1.00  0.00     0.000 HD 
HETATM   10  O   UNL     2     -12.674  11.087  69.373  1.00  0.00    -0.279 OA 
BRANCH   8  11
HETATM   11  C   UNL     2     -11.729   9.233  70.611  1.00  0.00    -0.222 C  
HETATM   12  C   UNL     2     -11.008   8.591  71.769  1.00  0.00    -0.306 C  
HETATM   13  O   UNL     2     -10.691   9.134  69.629  1.00  0.00    -0.228 OA 
HETATM   14  O   UNL     2      -8.561  10.009  69.821  1.00  0.00    -0.186 OA 
HETATM   15  H   UNL     2      -8.787   8.274  73.371  1.00  0.00     0.000 HD 
HETATM   16  O   UNL     2     -11.629   7.737  72.460  1.00  0.00    -0.343 OA 
HETATM   17  C   UNL     2      -9.561   9.516  70.293  1.00  0.00    -0.265 C  
HETATM   18  C   UNL     2      -9.717   8.988  71.676  1.00  0.00    -0.276 C  
HETATM   19  O   UNL     2      -8.687   8.611  72.489  1.00  0.00    -0.360 OA 
ENDBRANCH   8  11
ENDBRANCH   3   8
BRANCH   7  20
HETATM   20  C   UNL     3     -10.655  13.744  65.039  1.00  0.00    -0.389 C  
HETATM   21  O   UNL     3      -9.603  13.238  65.858  1.00  0.00    -0.434 OA 
HETATM   22  H   UNL     3      -9.064  13.953  66.176  1.00  0.00     0.000 HD 
BRANCH  20  23
HETATM   23  C   UNL     3     -11.284  15.047  65.606  1.00  0.00    -0.327 C  
HETATM   24  O   UNL     3     -10.018  16.938  68.218  1.00  0.00    -0.258 OA 
HETATM   25  C   UNL     3     -10.471  17.186  65.881  1.00  0.00    -0.258 C  
HETATM   26  C   UNL     3     -11.135  16.410  65.016  1.00  0.00    -0.208 C  
HETATM   27  O   UNL     3     -10.188  18.525  65.733  1.00  0.00    -0.568 OA 
HETATM   28  O   UNL     3     -10.982  15.236  66.998  1.00  0.00    -0.322 OA 
HETATM   29  C   UNL     3     -10.375  16.464  67.152  1.00  0.00    -0.290 C  
HETATM   30  O   UNL     3     -11.752  16.589  63.940  1.00  0.00    -1.148 OA 
HETATM   31  H   UNL     3     -10.251  18.993  64.909  1.00  0.00     0.000 HD 
ENDBRANCH  20  23
ENDBRANCH   7  20
TORSDOF 4
ENDMDL
MODEL       14
REMARK 921   NORMALIZED FREE ENERGY PREDICTED BY IDOCK:   -6.69 KCAL/MOL
REMARK 922        TOTAL FREE ENERGY PREDICTED BY IDOCK:  -10.19 KCAL/MOL
REMARK 923 INTER-LIGAND FREE ENERGY PREDICTED BY IDOCK:   -8.20 KCAL/MOL
REMARK 924 INTRA-LIGAND FREE ENERGY PREDICTED BY IDOCK:   -1.99 KCAL/MOL
REMARK 927      BINDING AFFINITY PREDICTED BY RF-SCORE:    0.00 PKD
ROOT
HETATM    1 CA   UNL     1      -7.416  14.048  66.216  1.00  0.00    -0.212 Ca 
HETATM    2  O   UNL     2      -6.565  20.163  69.509  1.00  0.00    -0.315 OA 
HETATM    3  C   UNL     2      -6.645  19.097  68.557  1.00  0.00    -0.255 C  
HETATM    4  H   UNL     2      -6.333  20.952  69.033  1.00  0.00     0.000 HD 
HETATM    5  O   UNL     3     -12.388  15.051  68.206  1.00  0.00    -0.561 OA 
HETATM    6  H   UNL     3     -12.876  15.445  68.919  1.00  0.00     0.000 HD 
HETATM    7  C   UNL     3     -11.903  13.769  68.696  1.00  0.00    -0.374 C  
ENDROOT
BRANCH   3   8
HETATM    8  C   UNL     2      -7.013  17.843  69.315  1.00  0.00    -0.144 C  
HETATM    9  H   UNL     2      -6.135  16.694  70.644  1.00  0.00     0.000 HD 
HETATM   10  O   UNL     2      -5.904  17.482  70.167  1.00  0.00    -0.249 OA 
BRANCH   8  11
HETATM   11  C   UNL     2      -7.379  16.614  68.455  1.00  0.00    -0.201 C  
HETATM   12  C   UNL     2      -8.239  16.770  67.226  1.00  0.00    -0.176 C  
HETATM   13  O   UNL     2      -8.312  15.912  69.284  1.00  0.00    -0.237 OA 
HETATM   14  O   UNL     2     -10.417  16.656  69.879  1.00  0.00    -0.230 OA 
HETATM   15  H   UNL     2     -10.625  17.403  65.998  1.00  0.00     0.000 HD 
HETATM   16  O   UNL     2      -7.725  16.522  66.102  1.00  0.00    -0.257 OA 
HETATM   17  C   UNL     2      -9.491  16.578  69.104  1.00  0.00    -0.212 C  
HETATM   18  C   UNL     2      -9.499  16.989  67.674  1.00  0.00    -0.236 C  
HETATM   19  O   UNL     2     -10.620  17.141  66.910  1.00  0.00    -0.297 OA 
ENDBRANCH   8  11
ENDBRANCH   3   8
BRANCH   7  20
HETATM   20  C   UNL     3     -11.115  13.133  67.544  1.00  0.00    -0.271 C  
HETATM   21  O   UNL     3      -9.743  12.992  67.908  1.00  0.00    -0.205 OA 
HETATM   22  H   UNL     3      -9.256  12.598  67.195  1.00  0.00     0.000 HD 
BRANCH  20  23
HETATM   23  C   UNL     3     -11.302  13.602  66.074  1.00  0.00    -0.312 C  
HETATM   24  O   UNL     3     -10.084  11.986  63.263  1.00  0.00    -0.430 OA 
HETATM   25  C   UNL     3     -12.198  12.586  64.209  1.00  0.00    -0.452 C  
HETATM   26  C   UNL     3     -12.519  13.379  65.240  1.00  0.00    -0.483 C  
HETATM   27  O   UNL     3     -13.028  12.199  63.182  1.00  0.00    -0.734 OA 
HETATM   28  O   UNL     3     -10.218  13.182  65.228  1.00  0.00    -0.299 OA 
HETATM   29  C   UNL     3     -10.739  12.460  64.176  1.00  0.00    -0.379 C  
HETATM   30  O   UNL     3     -13.518  14.055  65.575  1.00  0.00    -0.677 OA 
HETATM   31  H   UNL     3     -13.975  12.282  63.204  1.00  0.00     0.000 HD 
ENDBRANCH  20  23
ENDBRANCH   7  20
TORSDOF 4
ENDMDL
MODEL       15
REMARK 921   NORMALIZED FREE ENERGY PREDICTED BY IDOCK:   -6.69 KCAL/MOL
REMARK 922        TOTAL FREE ENERGY PREDICTED BY IDOCK:  -10.18 KCAL/MOL
REMARK 923 INTER-LIGAND FREE ENERGY PREDICTED BY IDOCK:   -8.43 KCAL/MOL
REMARK 924 INTRA-LIGAND FREE ENERGY PREDICTED BY IDOCK:   -1.76 KCAL/MOL
REMARK 927      BINDING AFFINITY PREDICTED BY RF-SCORE:    0.00 PKD
ROOT
HETATM    1 CA   UNL     1     -10.513  13.461  70.312  1.00  0.00    -0.331 Ca 
HETATM    2  O   UNL     2     -12.965   7.167  72.138  1.00  0.00    -0.513 OA 
HETATM    3  C   UNL     2     -12.777   8.561  71.869  1.00  0.00    -0.360 C  
HETATM    4  H   UNL     2     -13.855   7.056  72.452  1.00  0.00     0.000 HD 
HETATM    5  O   UNL     3     -10.359  10.696  65.619  1.00  0.00    -0.255 OA 
HETATM    6  H   UNL     3     -10.234   9.842  65.223  1.00  0.00     0.000 HD 
HETATM    7  C   UNL     3      -9.032  11.198  65.947  1.00  0.00    -0.199 C  
ENDROOT
BRANCH   3   8
HETATM    8  C   UNL     2     -11.362   8.736  71.369  1.00  0.00    -0.294 C  
HETATM    9  H   UNL     2      -9.568   8.301  72.041  1.00  0.00     0.000 HD 
HETATM   10  O   UNL     2     -10.458   8.190  72.355  1.00  0.00    -0.268 OA 
BRANCH   8  11
HETATM   11  C   UNL     2     -10.925  10.184  71.065  1.00  0.00    -0.075 C  
HETATM   12  C   UNL     2     -11.777  11.072  70.193  1.00  0.00    -0.356 C  
HETATM   13  O   UNL     2      -9.819  10.003  70.173  1.00  0.00    -0.241 OA 
HETATM   14  O   UNL     2      -9.936   9.136  68.034  1.00  0.00    -0.162 OA 
HETATM   15  H   UNL     2     -12.934  11.707  67.772  1.00  0.00     0.000 HD 
HETATM   16  O   UNL     2     -12.308  12.090  70.714  1.00  0.00    -0.375 OA 
HETATM   17  C   UNL     2     -10.399   9.763  68.960  1.00  0.00    -0.208 C  
HETATM   18  C   UNL     2     -11.613  10.623  68.925  1.00  0.00    -0.249 C  
HETATM   19  O   UNL     2     -12.159  11.158  67.794  1.00  0.00    -0.606 OA 
ENDBRANCH   8  11
ENDBRANCH   3   8
BRANCH   7  20
HETATM   20  C   UNL     3      -9.235  12.577  66.587  1.00  0.00    -0.223 C  
HETATM   21  O   UNL     3      -9.488  12.436  67.983  1.00  0.00    -0.195 OA 
HETATM   22  H   UNL     3      -9.614  13.290  68.380  1.00  0.00     0.000 HD 
BRANCH  20  23
HETATM   23  C   UNL     3     -10.128  13.660  65.921  1.00  0.00    -0.310 C  
HETATM   24  O   UNL     3     -12.231  13.168  63.212  1.00  0.00    -0.660 OA 
HETATM   25  C   UNL     3     -12.393  13.791  65.517  1.00  0.00    -0.475 C  
HETATM   26  C   UNL     3     -11.459  14.115  66.420  1.00  0.00    -0.354 C  
HETATM   27  O   UNL     3     -13.734  14.093  65.580  1.00  0.00    -0.560 OA 
HETATM   28  O   UNL     3     -10.350  13.399  64.525  1.00  0.00    -0.413 OA 
HETATM   29  C   UNL     3     -11.709  13.346  64.301  1.00  0.00    -0.412 C  
HETATM   30  O   UNL     3     -11.422  14.800  67.468  1.00  0.00    -0.331 OA 
HETATM   31  H   UNL     3     -14.178  14.381  66.369  1.00  0.00     0.000 HD 
ENDBRANCH  20  23
ENDBRANCH   7  20
TORSDOF 4
ENDMDL
MODEL       16
REMARK 921   NORMALIZED FREE ENERGY PREDICTED BY IDOCK:   -6.69 KCAL/MOL
REMARK 922        TOTAL FREE ENERGY PREDICTED BY IDOCK:  -10.18 KCAL/MOL
REMARK 923 INTER-LIGAND FREE ENERGY PREDICTED BY IDOCK:   -8.18 KCAL/MOL
REMARK 924 INTRA-LIGAND FREE ENERGY PREDICTED BY IDOCK:   -2.00 KCAL/MOL
REMARK 927      BINDING AFFINITY PREDICTED BY RF-SCORE:    0.00 PKD
ROOT
HETATM    1 CA   UNL     1     -11.910  15.175  69.712  1.00  0.00    -0.234 Ca 
HETATM    2  O   UNL     2      -7.465  20.331  68.087  1.00  0.00    -0.270 OA 
HETATM    3  C   UNL     2      -8.152  19.224  68.681  1.00  0.00    -0.370 C  
HETATM    4  H   UNL     2      -6.671  20.474  68.589  1.00  0.00     0.000 HD 
HETATM    5  O   UNL     3     -10.161  13.745  64.753  1.00  0.00    -0.580 OA 
HETATM    6  H   UNL     3      -9.865  14.067  63.910  1.00  0.00     0.000 HD 
HETATM    7  C   UNL     3     -11.612  13.869  64.755  1.00  0.00    -0.374 C  
ENDROOT
BRANCH   3   8
HETATM    8  C   UNL     2      -9.414  18.996  67.882  1.00  0.00    -0.310 C  
HETATM    9  H   UNL     2     -11.035  20.032  67.485  1.00  0.00     0.000 HD 
HETATM   10  O   UNL     2     -10.241  20.176  67.987  1.00  0.00    -0.405 OA 
BRANCH   8  11
HETATM   11  C   UNL     2     -10.265  17.774  68.291  1.00  0.00    -0.382 C  
HETATM   12  C   UNL     2      -9.623  16.421  68.467  1.00  0.00    -0.229 C  
HETATM   13  O   UNL     2     -11.022  17.502  67.107  1.00  0.00    -0.161 OA 
HETATM   14  O   UNL     2     -10.163  16.765  65.093  1.00  0.00    -0.599 OA 
HETATM   15  H   UNL     2      -8.291  14.219  67.476  1.00  0.00     0.000 HD 
HETATM   16  O   UNL     2      -9.609  15.911  69.620  1.00  0.00    -0.259 OA 
HETATM   17  C   UNL     2     -10.156  16.819  66.302  1.00  0.00    -0.326 C  
HETATM   18  C   UNL     2      -9.348  15.970  67.220  1.00  0.00    -0.210 C  
HETATM   19  O   UNL     2      -8.806  14.761  66.891  1.00  0.00    -0.225 OA 
ENDBRANCH   8  11
ENDBRANCH   3   8
BRANCH   7  20
HETATM   20  C   UNL     3     -12.090  13.350  66.116  1.00  0.00    -0.429 C  
HETATM   21  O   UNL     3     -12.877  14.344  66.770  1.00  0.00    -0.367 OA 
HETATM   22  H   UNL     3     -13.174  14.023  67.613  1.00  0.00     0.000 HD 
BRANCH  20  23
HETATM   23  C   UNL     3     -11.131  12.609  67.088  1.00  0.00    -0.280 C  
HETATM   24  O   UNL     3     -11.915  11.545  70.290  1.00  0.00    -0.333 OA 
HETATM   25  C   UNL     3     -11.272  10.591  68.192  1.00  0.00    -0.293 C  
HETATM   26  C   UNL     3     -10.824  11.149  67.060  1.00  0.00    -0.284 C  
HETATM   27  O   UNL     3     -11.127   9.276  68.572  1.00  0.00    -0.456 OA 
HETATM   28  O   UNL     3     -11.442  12.873  68.467  1.00  0.00    -0.265 OA 
HETATM   29  C   UNL     3     -11.657  11.670  69.104  1.00  0.00    -0.314 C  
HETATM   30  O   UNL     3     -10.121  10.777  66.093  1.00  0.00    -0.226 OA 
HETATM   31  H   UNL     3     -10.877   8.576  67.980  1.00  0.00     0.000 HD 
ENDBRANCH  20  23
ENDBRANCH   7  20
TORSDOF 4
ENDMDL
MODEL       17
REMARK 921   NORMALIZED FREE ENERGY PREDICTED BY IDOCK:   -6.69 KCAL/MOL
REMARK 922        TOTAL FREE ENERGY PREDICTED BY IDOCK:  -10.18 KCAL/MOL
REMARK 923 INTER-LIGAND FREE ENERGY PREDICTED BY IDOCK:   -8.53 KCAL/MOL
REMARK 924 INTRA-LIGAND FREE ENERGY PREDICTED BY IDOCK:   -1.65 KCAL/MOL
REMARK 927      BINDING AFFINITY PREDICTED BY RF-SCORE:    0.00 PKD
ROOT
HETATM    1 CA   UNL     1     -11.261  16.514  64.573  1.00  0.00    -0.383 Ca 
HETATM    2  O   UNL     2      -8.920   9.921  64.710  1.00  0.00    -0.183 OA 
HETATM    3  C   UNL     2      -9.226  11.280  64.381  1.00  0.00    -0.049 C  
HETATM    4  H   UNL     2      -8.350   9.585  64.028  1.00  0.00     0.000 HD 
HETATM    5  O   UNL     3      -8.212  16.407  69.088  1.00  0.00    -0.240 OA 
HETATM    6  H   UNL     3      -7.912  15.870  69.812  1.00  0.00     0.000 HD 
HETATM    7  C   UNL     3      -9.572  16.813  69.413  1.00  0.00    -0.010 C  
ENDROOT
BRANCH   3   8
HETATM    8  C   UNL     2     -10.132  11.813  65.466  1.00  0.00    -0.249 C  
HETATM    9  H   UNL     2     -10.437  11.416  67.366  1.00  0.00     0.000 HD 
HETATM   10  O   UNL     2      -9.867  11.081  66.684  1.00  0.00    -0.191 OA 
BRANCH   8  11
HETATM   11  C   UNL     2     -11.648  11.740  65.182  1.00  0.00    -0.145 C  
HETATM   12  C   UNL     2     -12.258  12.566  64.078  1.00  0.00    -0.480 C  
HETATM   13  O   UNL     2     -12.216  12.424  66.304  1.00  0.00    -0.620 OA 
HETATM   14  O   UNL     2     -11.982  14.674  66.775  1.00  0.00    -0.373 OA 
HETATM   15  H   UNL     2     -12.923  14.989  62.943  1.00  0.00     0.000 HD 
HETATM   16  O   UNL     2     -12.758  11.965  63.088  1.00  0.00    -0.595 OA 
HETATM   17  C   UNL     2     -12.071  13.747  66.001  1.00  0.00    -0.436 C  
HETATM   18  C   UNL     2     -12.278  13.842  64.530  1.00  0.00    -0.417 C  
HETATM   19  O   UNL     2     -12.790  14.929  63.882  1.00  0.00    -0.697 OA 
ENDBRANCH   8  11
ENDBRANCH   3   8
BRANCH   7  20
HETATM   20  C   UNL     3     -10.058  17.680  68.245  1.00  0.00    -0.362 C  
HETATM   21  O   UNL     3     -10.162  16.892  67.061  1.00  0.00    -0.286 OA 
HETATM   22  H   UNL     3     -10.463  17.429  66.337  1.00  0.00     0.000 HD 
BRANCH  20  23
HETATM   23  C   UNL     3      -9.465  19.091  67.978  1.00  0.00    -0.319 C  
HETATM   24  O   UNL     3      -6.095  19.883  67.854  1.00  0.00    -0.206 OA 
HETATM   25  C   UNL     3      -7.994  19.897  66.397  1.00  0.00    -0.323 C  
HETATM   26  C   UNL     3      -9.300  19.723  66.635  1.00  0.00    -0.387 C  
HETATM   27  O   UNL     3      -7.435  20.504  65.296  1.00  0.00    -0.511 OA 
HETATM   28  O   UNL     3      -8.186  19.273  68.607  1.00  0.00    -0.356 OA 
HETATM   29  C   UNL     3      -7.270  19.629  67.642  1.00  0.00    -0.244 C  
HETATM   30  O   UNL     3     -10.368  20.074  66.084  1.00  0.00    -0.466 OA 
HETATM   31  H   UNL     3      -7.905  20.678  64.489  1.00  0.00     0.000 HD 
ENDBRANCH  20  23
ENDBRANCH   7  20
TORSDOF 4
ENDMDL
MODEL       18
REMARK 921   NORMALIZED FREE ENERGY PREDICTED BY IDOCK:   -6.68 KCAL/MOL
REMARK 922        TOTAL FREE ENERGY PREDICTED BY IDOCK:  -10.16 KCAL/MOL
REMARK 923 INTER-LIGAND FREE ENERGY PREDICTED BY IDOCK:   -8.51 KCAL/MOL
REMARK 924 INTRA-LIGAND FREE ENERGY PREDICTED BY IDOCK:   -1.65 KCAL/MOL
REMARK 927      BINDING AFFINITY PREDICTED BY RF-SCORE:    0.00 PKD
ROOT
HETATM    1 CA   UNL     1     -11.184  13.499  70.522  1.00  0.00    -0.445 Ca 
HETATM    2  O   UNL     2     -11.670  15.222  63.756  1.00  0.00    -0.732 OA 
HETATM    3  C   UNL     2     -11.383  15.161  65.158  1.00  0.00    -0.357 C  
HETATM    4  H   UNL     2     -11.223  15.984  63.408  1.00  0.00     0.000 HD 
HETATM    5  O   UNL     3      -8.828   9.268  68.025  1.00  0.00    -0.128 OA 
HETATM    6  H   UNL     3      -8.829   8.726  67.245  1.00  0.00     0.000 HD 
HETATM    7  C   UNL     3      -9.939   8.808  68.848  1.00  0.00    -0.192 C  
ENDROOT
BRANCH   3   8
HETATM    8  C   UNL     2     -12.093  13.947  65.711  1.00  0.00    -0.425 C  
HETATM    9  H   UNL     2     -13.954  13.324  65.798  1.00  0.00     0.000 HD 
HETATM   10  O   UNL     2     -13.507  14.087  65.450  1.00  0.00    -0.679 OA 
BRANCH   8  11
HETATM   11  C   UNL     2     -11.907  13.681  67.220  1.00  0.00    -0.391 C  
HETATM   12  C   UNL     2     -10.532  13.726  67.839  1.00  0.00    -0.246 C  
HETATM   13  O   UNL     2     -12.147  12.274  67.328  1.00  0.00    -0.548 OA 
HETATM   14  O   UNL     2     -10.820  10.605  66.435  1.00  0.00    -0.174 OA 
HETATM   15  H   UNL     2      -7.962  12.767  68.116  1.00  0.00     0.000 HD 
HETATM   16  O   UNL     2     -10.287  14.628  68.686  1.00  0.00    -0.232 OA 
HETATM   17  C   UNL     2     -10.974  11.700  66.928  1.00  0.00    -0.292 C  
HETATM   18  C   UNL     2      -9.900  12.599  67.435  1.00  0.00    -0.205 C  
HETATM   19  O   UNL     2      -8.647  12.194  67.792  1.00  0.00    -0.147 OA 
ENDBRANCH   8  11
ENDBRANCH   3   8
BRANCH   7  20
HETATM   20  C   UNL     3      -9.939   9.683  70.106  1.00  0.00    -0.261 C  
HETATM   21  O   UNL     3      -8.647  10.255  70.305  1.00  0.00    -0.325 OA 
HETATM   22  H   UNL     3      -8.647  10.797  71.085  1.00  0.00     0.000 HD 
BRANCH  20  23
HETATM   23  C   UNL     3     -10.593   9.203  71.431  1.00  0.00    -0.341 C  
HETATM   24  O   UNL     3     -13.993   8.867  72.006  1.00  0.00    -0.414 OA 
HETATM   25  C   UNL     3     -12.044   7.482  71.927  1.00  0.00    -0.305 C  
HETATM   26  C   UNL     3     -10.740   7.781  71.862  1.00  0.00    -0.225 C  
HETATM   27  O   UNL     3     -12.591   6.290  72.344  1.00  0.00    -0.549 OA 
HETATM   28  O   UNL     3     -11.904   9.762  71.625  1.00  0.00    -0.389 OA 
HETATM   29  C   UNL     3     -12.800   8.728  71.792  1.00  0.00    -0.360 C  
HETATM   30  O   UNL     3      -9.672   7.219  72.195  1.00  0.00    -0.152 OA 
HETATM   31  H   UNL     3     -12.100   5.481  72.432  1.00  0.00     0.000 HD 
ENDBRANCH  20  23
ENDBRANCH   7  20
TORSDOF 4
ENDMDL
MODEL       19
REMARK 921   NORMALIZED FREE ENERGY PREDICTED BY IDOCK:   -6.61 KCAL/MOL
REMARK 922        TOTAL FREE ENERGY PREDICTED BY IDOCK:  -10.08 KCAL/MOL
REMARK 923 INTER-LIGAND FREE ENERGY PREDICTED BY IDOCK:   -8.32 KCAL/MOL
REMARK 924 INTRA-LIGAND FREE ENERGY PREDICTED BY IDOCK:   -1.77 KCAL/MOL
REMARK 927      BINDING AFFINITY PREDICTED BY RF-SCORE:    0.00 PKD
ROOT
HETATM    1 CA   UNL     1     -12.098  12.997  69.836  1.00  0.00    -0.245 Ca 
HETATM    2  O   UNL     2     -11.414  16.414  63.768  1.00  0.00    -1.590 OA 
HETATM    3  C   UNL     2     -11.519  16.033  65.144  1.00  0.00     0.052 C  
HETATM    4  H   UNL     2     -11.255  17.351  63.744  1.00  0.00     0.000 HD 
HETATM    5  O   UNL     3      -7.599  10.784  67.704  1.00  0.00    -0.094 OA 
HETATM    6  H   UNL     3      -7.159  10.537  66.899  1.00  0.00     0.000 HD 
HETATM    7  C   UNL     3      -8.588   9.749  67.968  1.00  0.00    -0.122 C  
ENDROOT
BRANCH   3   8
HETATM    8  C   UNL     2     -11.771  14.544  65.181  1.00  0.00    -0.376 C  
HETATM    9  H   UNL     2     -13.185  13.340  64.541  1.00  0.00     0.000 HD 
HETATM   10  O   UNL     2     -13.026  14.277  64.517  1.00  0.00    -0.574 OA 
BRANCH   8  11
HETATM   11  C   UNL     2     -11.821  13.899  66.583  1.00  0.00    -0.420 C  
HETATM   12  C   UNL     2     -10.724  14.161  67.584  1.00  0.00    -0.257 C  
HETATM   13  O   UNL     2     -11.540  12.522  66.310  1.00  0.00    -0.351 OA 
HETATM   14  O   UNL     2      -9.535  11.681  65.527  1.00  0.00    -0.229 OA 
HETATM   15  H   UNL     2      -8.101  13.977  68.414  1.00  0.00     0.000 HD 
HETATM   16  O   UNL     2     -11.014  14.792  68.637  1.00  0.00    -0.238 OA 
HETATM   17  C   UNL     2     -10.183  12.475  66.171  1.00  0.00    -0.252 C  
HETATM   18  C   UNL     2      -9.650  13.454  67.159  1.00  0.00    -0.241 C  
HETATM   19  O   UNL     2      -8.441  13.354  67.784  1.00  0.00    -0.155 OA 
ENDBRANCH   8  11
ENDBRANCH   3   8
BRANCH   7  20
HETATM   20  C   UNL     3      -9.298  10.147  69.267  1.00  0.00    -0.215 C  
HETATM   21  O   UNL     3      -8.352  10.253  70.329  1.00  0.00    -0.365 OA 
HETATM   22  H   UNL     3      -8.792  10.500  71.134  1.00  0.00     0.000 HD 
BRANCH  20  23
HETATM   23  C   UNL     3     -10.625   9.470  69.710  1.00  0.00    -0.236 C  
HETATM   24  O   UNL     3     -11.289   8.178  72.855  1.00  0.00    -0.387 OA 
HETATM   25  C   UNL     3     -12.110   9.906  71.417  1.00  0.00    -0.413 C  
HETATM   26  C   UNL     3     -11.866  10.185  70.131  1.00  0.00    -0.222 C  
HETATM   27  O   UNL     3     -13.194  10.323  72.155  1.00  0.00    -0.500 OA 
HETATM   28  O   UNL     3     -10.419   8.493  70.744  1.00  0.00    -0.192 OA 
HETATM   29  C   UNL     3     -11.211   8.824  71.822  1.00  0.00    -0.340 C  
HETATM   30  O   UNL     3     -12.478  10.765  69.205  1.00  0.00    -0.356 OA 
HETATM   31  H   UNL     3     -13.778  11.026  71.892  1.00  0.00     0.000 HD 
ENDBRANCH  20  23
ENDBRANCH   7  20
TORSDOF 4
ENDMDL
MODEL       20
REMARK 921   NORMALIZED FREE ENERGY PREDICTED BY IDOCK:   -6.60 KCAL/MOL
REMARK 922        TOTAL FREE ENERGY PREDICTED BY IDOCK:  -10.07 KCAL/MOL
REMARK 923 INTER-LIGAND FREE ENERGY PREDICTED BY IDOCK:   -9.08 KCAL/MOL
REMARK 924 INTRA-LIGAND FREE ENERGY PREDICTED BY IDOCK:   -0.99 KCAL/MOL
REMARK 927      BINDING AFFINITY PREDICTED BY RF-SCORE:    0.00 PKD
ROOT
HETATM    1 CA   UNL     1      -8.265  12.707  66.074  1.00  0.00    -0.379 Ca 
HETATM    2  O   UNL     2      -6.291  18.446  69.559  1.00  0.00    -0.261 OA 
HETATM    3  C   UNL     2      -6.362  17.268  68.747  1.00  0.00    -0.181 C  
HETATM    4  H   UNL     2      -5.405  18.783  69.492  1.00  0.00     0.000 HD 
HETATM    5  O   UNL     3     -11.390  16.592  63.875  1.00  0.00    -1.557 OA 
HETATM    6  H   UNL     3     -11.849  17.407  64.039  1.00  0.00     0.000 HD 
HETATM    7  C   UNL     3     -12.223  15.531  64.424  1.00  0.00    -0.079 C  
ENDROOT
BRANCH   3   8
HETATM    8  C   UNL     2      -7.770  16.732  68.854  1.00  0.00    -0.242 C  
HETATM    9  H   UNL     2      -8.586  14.978  69.198  1.00  0.00     0.000 HD 
HETATM   10  O   UNL     2      -7.700  15.316  69.132  1.00  0.00    -0.166 OA 
BRANCH   8  11
HETATM   11  C   UNL     2      -8.670  16.935  67.616  1.00  0.00    -0.209 C  
HETATM   12  C   UNL     2      -8.379  18.044  66.635  1.00  0.00    -0.262 C  
HETATM   13  O   UNL     2      -9.877  17.458  68.181  1.00  0.00    -0.275 OA 
HETATM   14  O   UNL     2     -10.107  19.511  69.215  1.00  0.00    -0.406 OA 
HETATM   15  H   UNL     2      -8.161  20.714  65.985  1.00  0.00     0.000 HD 
HETATM   16  O   UNL     2      -8.040  17.730  65.462  1.00  0.00    -0.343 OA 
HETATM   17  C   UNL     2      -9.607  18.780  68.390  1.00  0.00    -0.365 C  
HETATM   18  C   UNL     2      -8.748  19.194  67.247  1.00  0.00    -0.286 C  
HETATM   19  O   UNL     2      -8.709  20.450  66.714  1.00  0.00    -0.281 OA 
ENDBRANCH   8  11
ENDBRANCH   3   8
BRANCH   7  20
HETATM   20  C   UNL     3     -11.482  14.215  64.160  1.00  0.00    -0.173 C  
HETATM   21  O   UNL     3     -12.259  13.379  63.304  1.00  0.00    -0.847 OA 
HETATM   22  H   UNL     3     -11.800  12.564  63.140  1.00  0.00     0.000 HD 
BRANCH  20  23
HETATM   23  C   UNL     3     -10.792  13.426  65.306  1.00  0.00    -0.309 C  
HETATM   24  O   UNL     3     -11.592  13.623  68.671  1.00  0.00    -0.282 OA 
HETATM   25  C   UNL     3     -11.593  11.990  66.921  1.00  0.00    -0.318 C  
HETATM   26  C   UNL     3     -11.083  12.011  65.683  1.00  0.00    -0.313 C  
HETATM   27  O   UNL     3     -11.933  10.873  67.650  1.00  0.00    -0.633 OA 
HETATM   28  O   UNL     3     -10.831  14.134  66.556  1.00  0.00    -0.293 OA 
HETATM   29  C   UNL     3     -11.430  13.326  67.498  1.00  0.00    -0.322 C  
HETATM   30  O   UNL     3     -10.684  11.154  64.862  1.00  0.00    -0.302 OA 
HETATM   31  H   UNL     3     -12.038  10.006  67.275  1.00  0.00     0.000 HD 
ENDBRANCH  20  23
ENDBRANCH   7  20
TORSDOF 4
ENDMDL
MODEL       21
REMARK 921   NORMALIZED FREE ENERGY PREDICTED BY IDOCK:   -6.59 KCAL/MOL
REMARK 922        TOTAL FREE ENERGY PREDICTED BY IDOCK:  -10.06 KCAL/MOL
REMARK 923 INTER-LIGAND FREE ENERGY PREDICTED BY IDOCK:   -7.82 KCAL/MOL
REMARK 924 INTRA-LIGAND FREE ENERGY PREDICTED BY IDOCK:   -2.24 KCAL/MOL
REMARK 927      BINDING AFFINITY PREDICTED BY RF-SCORE:    0.00 PKD
ROOT
HETATM    1 CA   UNL     1     -11.782  17.492  65.621  1.00  0.00     0.232 Ca 
HETATM    2  O   UNL     2     -10.879  10.961  63.276  1.00  0.00    -0.680 OA 
HETATM    3  C   UNL     2     -10.874  12.379  63.476  1.00  0.00    -0.438 C  
HETATM    4  H   UNL     2     -10.350  10.782  62.507  1.00  0.00     0.000 HD 
HETATM    5  O   UNL     3      -9.110  15.094  69.720  1.00  0.00    -0.444 OA 
HETATM    6  H   UNL     3      -8.973  14.280  70.189  1.00  0.00     0.000 HD 
HETATM    7  C   UNL     3     -10.373  15.639  70.198  1.00  0.00    -0.254 C  
ENDROOT
BRANCH   3   8
HETATM    8  C   UNL     2     -11.715  12.664  64.699  1.00  0.00    -0.357 C  
HETATM    9  H   UNL     2     -13.617  12.508  65.166  1.00  0.00     0.000 HD 
HETATM   10  O   UNL     2     -13.088  12.329  64.397  1.00  0.00    -0.780 OA 
BRANCH   8  11
HETATM   11  C   UNL     2     -11.678  14.115  65.224  1.00  0.00    -0.353 C  
HETATM   12  C   UNL     2     -10.368  14.852  65.340  1.00  0.00    -0.388 C  
HETATM   13  O   UNL     2     -11.961  13.956  66.619  1.00  0.00    -0.396 OA 
HETATM   14  O   UNL     2     -10.597  12.910  68.164  1.00  0.00    -0.223 OA 
HETATM   15  H   UNL     2      -7.859  15.185  66.434  1.00  0.00     0.000 HD 
HETATM   16  O   UNL     2     -10.183  15.860  64.606  1.00  0.00    -0.296 OA 
HETATM   17  C   UNL     2     -10.770  13.568  67.163  1.00  0.00    -0.279 C  
HETATM   18  C   UNL     2      -9.728  14.316  66.407  1.00  0.00    -0.299 C  
HETATM   19  O   UNL     2      -8.524  14.708  66.916  1.00  0.00    -0.217 OA 
ENDBRANCH   8  11
ENDBRANCH   3   8
BRANCH   7  20
HETATM   20  C   UNL     3     -10.593  16.953  69.441  1.00  0.00    -0.292 C  
HETATM   21  O   UNL     3     -11.322  16.710  68.239  1.00  0.00    -0.309 OA 
HETATM   22  H   UNL     3     -11.459  17.525  67.770  1.00  0.00     0.000 HD 
BRANCH  20  23
HETATM   23  C   UNL     3      -9.447  17.985  69.250  1.00  0.00     0.127 C  
HETATM   24  O   UNL     3      -7.068  17.927  66.733  1.00  0.00    -0.176 OA 
HETATM   25  C   UNL     3      -8.841  19.344  67.490  1.00  0.00    -0.304 C  
HETATM   26  C   UNL     3      -9.583  19.324  68.604  1.00  0.00    -0.418 C  
HETATM   27  O   UNL     3      -8.654  20.417  66.648  1.00  0.00    -0.493 OA 
HETATM   28  O   UNL     3      -8.295  17.408  68.613  1.00  0.00    -0.270 OA 
HETATM   29  C   UNL     3      -8.006  18.141  67.483  1.00  0.00    -0.227 C  
HETATM   30  O   UNL     3     -10.222  20.169  69.273  1.00  0.00    -0.285 OA 
HETATM   31  H   UNL     3      -9.196  21.198  66.653  1.00  0.00     0.000 HD 
ENDBRANCH  20  23
ENDBRANCH   7  20
TORSDOF 4
ENDMDL
MODEL       22
REMARK 921   NORMALIZED FREE ENERGY PREDICTED BY IDOCK:   -6.58 KCAL/MOL
REMARK 922        TOTAL FREE ENERGY PREDICTED BY IDOCK:  -10.04 KCAL/MOL
REMARK 923 INTER-LIGAND FREE ENERGY PREDICTED BY IDOCK:   -9.05 KCAL/MOL
REMARK 924 INTRA-LIGAND FREE ENERGY PREDICTED BY IDOCK:   -0.99 KCAL/MOL
REMARK 927      BINDING AFFINITY PREDICTED BY RF-SCORE:    0.00 PKD
ROOT
HETATM    1 CA   UNL     1     -12.739  10.905  68.681  1.00  0.00    -0.313 Ca 
HETATM    2  O   UNL     2     -10.619  17.475  67.534  1.00  0.00    -0.358 OA 
HETATM    3  C   UNL     2     -11.276  16.285  67.986  1.00  0.00    -0.260 C  
HETATM    4  H   UNL     2     -10.998  18.205  68.009  1.00  0.00     0.000 HD 
HETATM    5  O   UNL     3      -7.529  10.788  70.271  1.00  0.00    -0.441 OA 
HETATM    6  H   UNL     3      -6.661  11.143  70.119  1.00  0.00     0.000 HD 
HETATM    7  C   UNL     3      -7.756   9.795  69.230  1.00  0.00    -0.101 C  
ENDROOT
BRANCH   3   8
HETATM    8  C   UNL     2     -10.672  15.123  67.231  1.00  0.00    -0.305 C  
HETATM    9  H   UNL     2      -9.131  13.932  67.482  1.00  0.00     0.000 HD 
HETATM   10  O   UNL     2      -9.511  14.662  67.956  1.00  0.00    -0.198 OA 
BRANCH   8  11
HETATM   11  C   UNL     2     -10.248  15.408  65.775  1.00  0.00    -0.354 C  
HETATM   12  C   UNL     2     -11.289  15.601  64.700  1.00  0.00    -0.349 C  
HETATM   13  O   UNL     2      -9.724  14.147  65.343  1.00  0.00    -0.236 OA 
HETATM   14  O   UNL     2     -10.941  12.203  65.059  1.00  0.00    -0.292 OA 
HETATM   15  H   UNL     2     -13.355  14.675  63.128  1.00  0.00     0.000 HD 
HETATM   16  O   UNL     2     -11.378  16.733  64.152  1.00  0.00    -1.194 OA 
HETATM   17  C   UNL     2     -10.831  13.409  65.036  1.00  0.00    -0.328 C  
HETATM   18  C   UNL     2     -11.798  14.373  64.445  1.00  0.00    -0.415 C  
HETATM   19  O   UNL     2     -12.738  14.060  63.506  1.00  0.00    -0.805 OA 
ENDBRANCH   8  11
ENDBRANCH   3   8
BRANCH   7  20
HETATM   20  C   UNL     3      -9.157   9.223  69.475  1.00  0.00    -0.160 C  
HETATM   21  O   UNL     3      -9.952   9.353  68.297  1.00  0.00    -0.162 OA 
HETATM   22  H   UNL     3     -10.820   8.998  68.449  1.00  0.00     0.000 HD 
BRANCH  20  23
HETATM   23  C   UNL     3      -9.951   9.539  70.773  1.00  0.00    -0.264 C  
HETATM   24  O   UNL     3     -13.244   8.665  71.398  1.00  0.00    -0.310 OA 
HETATM   25  C   UNL     3     -11.070   8.209  72.287  1.00  0.00    -0.344 C  
HETATM   26  C   UNL     3      -9.875   8.765  72.047  1.00  0.00    -0.306 C  
HETATM   27  O   UNL     3     -11.423   7.471  73.393  1.00  0.00    -0.629 OA 
HETATM   28  O   UNL     3     -11.361   9.672  70.530  1.00  0.00    -0.260 OA 
HETATM   29  C   UNL     3     -12.031   8.783  71.343  1.00  0.00    -0.310 C  
HETATM   30  O   UNL     3      -8.802   8.895  72.679  1.00  0.00    -0.358 OA 
HETATM   31  H   UNL     3     -10.799   7.099  74.006  1.00  0.00     0.000 HD 
ENDBRANCH  20  23
ENDBRANCH   7  20
TORSDOF 4
ENDMDL
MODEL       23
REMARK 921   NORMALIZED FREE ENERGY PREDICTED BY IDOCK:   -6.58 KCAL/MOL
REMARK 922        TOTAL FREE ENERGY PREDICTED BY IDOCK:  -10.04 KCAL/MOL
REMARK 923 INTER-LIGAND FREE ENERGY PREDICTED BY IDOCK:   -9.39 KCAL/MOL
REMARK 924 INTRA-LIGAND FREE ENERGY PREDICTED BY IDOCK:   -0.65 KCAL/MOL
REMARK 927      BINDING AFFINITY PREDICTED BY RF-SCORE:    0.00 PKD
ROOT
HETATM    1 CA   UNL     1     -11.200  13.787  71.091  1.00  0.00    -0.505 Ca 
HETATM    2  O   UNL     2     -14.173   7.610  72.497  1.00  0.00    -0.543 OA 
HETATM    3  C   UNL     2     -13.848   8.999  72.367  1.00  0.00    -0.475 C  
HETATM    4  H   UNL     2     -15.025   7.556  72.914  1.00  0.00     0.000 HD 
HETATM    5  O   UNL     3     -11.957  11.654  66.135  1.00  0.00    -0.370 OA 
HETATM    6  H   UNL     3     -11.986  10.850  65.629  1.00  0.00     0.000 HD 
HETATM    7  C   UNL     3     -10.548  11.963  66.336  1.00  0.00    -0.248 C  
ENDROOT
BRANCH   3   8
HETATM    8  C   UNL     2     -12.493   9.084  71.704  1.00  0.00    -0.351 C  
HETATM    9  H   UNL     2     -11.802   9.768  69.997  1.00  0.00     0.000 HD 
HETATM   10  O   UNL     2     -12.654   9.715  70.414  1.00  0.00    -0.042 OA 
BRANCH   8  11
HETATM   11  C   UNL     2     -11.755   7.744  71.494  1.00  0.00    -0.280 C  
HETATM   12  C   UNL     2     -11.145   7.017  72.666  1.00  0.00    -0.281 C  
HETATM   13  O   UNL     2     -10.548   8.144  70.835  1.00  0.00    -0.205 OA 
HETATM   14  O   UNL     2      -8.860   9.418  71.766  1.00  0.00    -0.203 OA 
HETATM   15  H   UNL     2      -9.326   6.836  74.730  1.00  0.00     0.000 HD 
HETATM   16  O   UNL     2     -11.622   5.895  72.987  1.00  0.00    -0.180 OA 
HETATM   17  C   UNL     2      -9.749   8.600  71.844  1.00  0.00    -0.313 C  
HETATM   18  C   UNL     2     -10.037   7.717  73.008  1.00  0.00    -0.320 C  
HETATM   19  O   UNL     2      -9.142   7.400  73.988  1.00  0.00    -0.221 OA 
ENDBRANCH   8  11
ENDBRANCH   3   8
BRANCH   7  20
HETATM   20  C   UNL     3     -10.500  13.260  67.151  1.00  0.00    -0.248 C  
HETATM   21  O   UNL     3     -10.643  12.972  68.540  1.00  0.00    -0.249 OA 
HETATM   22  H   UNL     3     -10.613  13.775  69.046  1.00  0.00     0.000 HD 
BRANCH  20  23
HETATM   23  C   UNL     3     -11.291  14.525  66.716  1.00  0.00    -0.352 C  
HETATM   24  O   UNL     3      -9.905  17.546  65.740  1.00  0.00    -0.537 OA 
HETATM   25  C   UNL     3     -11.259  15.810  64.803  1.00  0.00    -0.366 C  
HETATM   26  C   UNL     3     -11.875  14.761  65.362  1.00  0.00    -0.249 C  
HETATM   27  O   UNL     3     -11.553  16.380  63.585  1.00  0.00    -1.514 OA 
HETATM   28  O   UNL     3     -10.578  15.739  67.003  1.00  0.00    -0.309 OA 
HETATM   29  C   UNL     3     -10.441  16.454  65.833  1.00  0.00    -0.337 C  
HETATM   30  O   UNL     3     -12.870  14.052  65.087  1.00  0.00    -0.696 OA 
HETATM   31  H   UNL     3     -12.085  15.962  62.917  1.00  0.00     0.000 HD 
ENDBRANCH  20  23
ENDBRANCH   7  20
TORSDOF 4
ENDMDL
MODEL       24
REMARK 921   NORMALIZED FREE ENERGY PREDICTED BY IDOCK:   -6.52 KCAL/MOL
REMARK 922        TOTAL FREE ENERGY PREDICTED BY IDOCK:   -9.98 KCAL/MOL
REMARK 923 INTER-LIGAND FREE ENERGY PREDICTED BY IDOCK:   -8.18 KCAL/MOL
REMARK 924 INTRA-LIGAND FREE ENERGY PREDICTED BY IDOCK:   -1.79 KCAL/MOL
REMARK 927      BINDING AFFINITY PREDICTED BY RF-SCORE:    0.00 PKD
ROOT
HETATM    1 CA   UNL     1     -11.226  12.456  69.925  1.00  0.00    -0.247 Ca 
HETATM    2  O   UNL     2     -11.411  15.861  63.815  1.00  0.00    -0.993 OA 
HETATM    3  C   UNL     2     -11.160  15.423  65.155  1.00  0.00    -0.394 C  
HETATM    4  H   UNL     2     -10.889  16.642  63.669  1.00  0.00     0.000 HD 
HETATM    5  O   UNL     3      -9.215   8.786  66.436  1.00  0.00    -0.161 OA 
HETATM    6  H   UNL     3      -9.249   8.460  65.544  1.00  0.00     0.000 HD 
HETATM    7  C   UNL     3     -10.380   8.241  67.119  1.00  0.00    -0.317 C  
ENDROOT
BRANCH   3   8
HETATM    8  C   UNL     2     -11.989  14.182  65.386  1.00  0.00    -0.381 C  
HETATM    9  H   UNL     2     -13.907  13.773  65.507  1.00  0.00     0.000 HD 
HETATM   10  O   UNL     2     -13.385  14.554  65.361  1.00  0.00    -0.458 OA 
BRANCH   8  11
HETATM   11  C   UNL     2     -11.718  13.420  66.700  1.00  0.00    -0.385 C  
HETATM   12  C   UNL     2     -10.308  13.248  67.207  1.00  0.00    -0.247 C  
HETATM   13  O   UNL     2     -11.986  12.060  66.342  1.00  0.00    -0.611 OA 
HETATM   14  O   UNL     2     -10.759  10.788  64.853  1.00  0.00    -0.250 OA 
HETATM   15  H   UNL     2      -7.750  12.245  66.973  1.00  0.00     0.000 HD 
HETATM   16  O   UNL     2      -9.990  13.809  68.291  1.00  0.00    -0.231 OA 
HETATM   17  C   UNL     2     -10.854  11.652  65.695  1.00  0.00    -0.276 C  
HETATM   18  C   UNL     2      -9.730  12.323  66.404  1.00  0.00    -0.234 C  
HETATM   19  O   UNL     2      -8.468  11.818  66.520  1.00  0.00    -0.179 OA 
ENDBRANCH   8  11
ENDBRANCH   3   8
BRANCH   7  20
HETATM   20  C   UNL     3     -10.326   8.767  68.557  1.00  0.00    -0.199 C  
HETATM   21  O   UNL     3      -9.508   9.934  68.622  1.00  0.00    -0.146 OA 
HETATM   22  H   UNL     3      -9.475  10.260  69.513  1.00  0.00     0.000 HD 
BRANCH  20  23
HETATM   23  C   UNL     3     -10.109   7.814  69.765  1.00  0.00    -0.194 C  
HETATM   24  O   UNL     3      -8.771   8.705  72.834  1.00  0.00    -0.384 OA 
HETATM   25  C   UNL     3     -10.833   7.869  71.953  1.00  0.00    -0.243 C  
HETATM   26  C   UNL     3     -11.158   7.398  70.742  1.00  0.00    -0.265 C  
HETATM   27  O   UNL     3     -11.513   7.648  73.129  1.00  0.00    -0.604 OA 
HETATM   28  O   UNL     3      -9.007   8.225  70.592  1.00  0.00    -0.143 OA 
HETATM   29  C   UNL     3      -9.465   8.387  71.882  1.00  0.00    -0.253 C  
HETATM   30  O   UNL     3     -12.020   6.612  70.286  1.00  0.00    -0.387 OA 
HETATM   31  H   UNL     3     -12.401   7.312  73.174  1.00  0.00     0.000 HD 
ENDBRANCH  20  23
ENDBRANCH   7  20
TORSDOF 4
ENDMDL
MODEL       25
REMARK 921   NORMALIZED FREE ENERGY PREDICTED BY IDOCK:   -6.51 KCAL/MOL
REMARK 922        TOTAL FREE ENERGY PREDICTED BY IDOCK:   -9.96 KCAL/MOL
REMARK 923 INTER-LIGAND FREE ENERGY PREDICTED BY IDOCK:   -8.63 KCAL/MOL
REMARK 924 INTRA-LIGAND FREE ENERGY PREDICTED BY IDOCK:   -1.33 KCAL/MOL
REMARK 927      BINDING AFFINITY PREDICTED BY RF-SCORE:    0.00 PKD
ROOT
HETATM    1 CA   UNL     1     -13.455  14.489  66.477  1.00  0.00    -0.551 Ca 
HETATM    2  O   UNL     2      -8.737  10.991  62.673  1.00  0.00    -0.282 OA 
HETATM    3  C   UNL     2      -9.784  11.847  63.144  1.00  0.00    -0.185 C  
HETATM    4  H   UNL     2      -8.637  11.152  61.742  1.00  0.00     0.000 HD 
HETATM    5  O   UNL     3      -8.723  16.078  68.663  1.00  0.00    -0.185 OA 
HETATM    6  H   UNL     3      -7.833  15.816  68.866  1.00  0.00     0.000 HD 
HETATM    7  C   UNL     3      -9.572  15.483  69.686  1.00  0.00    -0.262 C  
ENDROOT
BRANCH   3   8
HETATM    8  C   UNL     2      -9.942  11.592  64.625  1.00  0.00    -0.261 C  
HETATM    9  H   UNL     2     -10.212  10.011  65.759  1.00  0.00     0.000 HD 
HETATM   10  O   UNL     2     -10.112  10.171  64.828  1.00  0.00    -0.331 OA 
BRANCH   8  11
HETATM   11  C   UNL     2     -11.113  12.320  65.317  1.00  0.00    -0.316 C  
HETATM   12  C   UNL     2     -11.711  13.562  64.704  1.00  0.00    -0.381 C  
HETATM   13  O   UNL     2     -10.486  12.922  66.456  1.00  0.00    -0.259 OA 
HETATM   14  O   UNL     2      -8.912  14.612  66.395  1.00  0.00    -0.244 OA 
HETATM   15  H   UNL     2     -11.539  16.191  63.890  1.00  0.00     0.000 HD 
HETATM   16  O   UNL     2     -12.904  13.514  64.300  1.00  0.00    -0.632 OA 
HETATM   17  C   UNL     2      -9.886  14.043  65.957  1.00  0.00    -0.297 C  
HETATM   18  C   UNL     2     -10.810  14.552  64.907  1.00  0.00    -0.421 C  
HETATM   19  O   UNL     2     -10.950  15.865  64.560  1.00  0.00    -0.527 OA 
ENDBRANCH   8  11
ENDBRANCH   3   8
BRANCH   7  20
HETATM   20  C   UNL     3     -11.009  15.905  69.358  1.00  0.00    -0.309 C  
HETATM   21  O   UNL     3     -11.269  17.206  69.883  1.00  0.00    -0.227 OA 
HETATM   22  H   UNL     3     -12.159  17.468  69.680  1.00  0.00     0.000 HD 
BRANCH  20  23
HETATM   23  C   UNL     3     -12.206  14.932  69.544  1.00  0.00    -0.233 C  
HETATM   24  O   UNL     3     -11.975  11.544  70.231  1.00  0.00    -0.333 OA 
HETATM   25  C   UNL     3     -12.829  13.528  71.262  1.00  0.00    -0.338 C  
HETATM   26  C   UNL     3     -13.006  14.769  70.794  1.00  0.00    -0.352 C  
HETATM   27  O   UNL     3     -13.444  12.970  72.360  1.00  0.00    -0.567 OA 
HETATM   28  O   UNL     3     -11.877  13.585  69.165  1.00  0.00    -0.300 OA 
HETATM   29  C   UNL     3     -12.125  12.755  70.236  1.00  0.00    -0.297 C  
HETATM   30  O   UNL     3     -13.757  15.734  71.067  1.00  0.00    -0.539 OA 
HETATM   31  H   UNL     3     -13.901  13.471  73.025  1.00  0.00     0.000 HD 
ENDBRANCH  20  23
ENDBRANCH   7  20
TORSDOF 4
ENDMDL
MODEL       26
REMARK 921   NORMALIZED FREE ENERGY PREDICTED BY IDOCK:   -6.48 KCAL/MOL
REMARK 922        TOTAL FREE ENERGY PREDICTED BY IDOCK:   -9.92 KCAL/MOL
REMARK 923 INTER-LIGAND FREE ENERGY PREDICTED BY IDOCK:   -7.92 KCAL/MOL
REMARK 924 INTRA-LIGAND FREE ENERGY PREDICTED BY IDOCK:   -1.99 KCAL/MOL
REMARK 927      BINDING AFFINITY PREDICTED BY RF-SCORE:    0.00 PKD
ROOT
HETATM    1 CA   UNL     1     -12.689  11.619  69.847  1.00  0.00    -0.255 Ca 
HETATM    2  O   UNL     2     -12.227  14.757  63.609  1.00  0.00    -0.969 OA 
HETATM    3  C   UNL     2     -12.413  14.433  64.992  1.00  0.00    -0.359 C  
HETATM    4  H   UNL     2     -12.379  15.691  63.514  1.00  0.00     0.000 HD 
HETATM    5  O   UNL     3      -7.445  10.936  68.536  1.00  0.00    -0.090 OA 
HETATM    6  H   UNL     3      -6.831  10.810  67.822  1.00  0.00     0.000 HD 
HETATM    7  C   UNL     3      -8.073   9.644  68.772  1.00  0.00    -0.097 C  
ENDROOT
BRANCH   3   8
HETATM    8  C   UNL     2     -12.172  12.949  65.143  1.00  0.00    -0.470 C  
HETATM    9  H   UNL     2     -13.062  11.310  64.529  1.00  0.00     0.000 HD 
HETATM   10  O   UNL     2     -13.214  12.243  64.434  1.00  0.00    -0.806 OA 
BRANCH   8  11
HETATM   11  C   UNL     2     -12.126  12.413  66.590  1.00  0.00    -0.075 C  
HETATM   12  C   UNL     2     -11.351  13.151  67.653  1.00  0.00    -0.298 C  
HETATM   13  O   UNL     2     -11.288  11.257  66.475  1.00  0.00    -0.312 OA 
HETATM   14  O   UNL     2      -9.037  11.266  65.953  1.00  0.00    -0.200 OA 
HETATM   15  H   UNL     2      -8.991  14.093  68.722  1.00  0.00     0.000 HD 
HETATM   16  O   UNL     2     -11.991  13.662  68.612  1.00  0.00    -0.350 OA 
HETATM   17  C   UNL     2     -10.019  11.760  66.460  1.00  0.00    -0.204 C  
HETATM   18  C   UNL     2     -10.042  12.920  67.393  1.00  0.00    -0.223 C  
HETATM   19  O   UNL     2      -8.976  13.353  68.127  1.00  0.00    -0.179 OA 
ENDBRANCH   8  11
ENDBRANCH   3   8
BRANCH   7  20
HETATM   20  C   UNL     3      -9.064   9.846  69.924  1.00  0.00    -0.210 C  
HETATM   21  O   UNL     3      -8.419   9.603  71.173  1.00  0.00    -0.335 OA 
HETATM   22  H   UNL     3      -9.033   9.728  71.887  1.00  0.00     0.000 HD 
BRANCH  20  23
HETATM   23  C   UNL     3     -10.505   9.269  69.869  1.00  0.00    -0.227 C  
HETATM   24  O   UNL     3     -11.336   5.912  69.658  1.00  0.00    -0.370 OA 
HETATM   25  C   UNL     3     -11.629   7.739  71.176  1.00  0.00    -0.281 C  
HETATM   26  C   UNL     3     -11.398   9.051  71.046  1.00  0.00    -0.297 C  
HETATM   27  O   UNL     3     -12.452   7.139  72.102  1.00  0.00    -0.458 OA 
HETATM   28  O   UNL     3     -10.567   8.025  69.152  1.00  0.00    -0.219 OA 
HETATM   29  C   UNL     3     -11.120   7.070  69.977  1.00  0.00    -0.278 C  
HETATM   30  O   UNL     3     -11.845  10.098  71.568  1.00  0.00    -0.362 OA 
HETATM   31  H   UNL     3     -12.782   7.573  72.880  1.00  0.00     0.000 HD 
ENDBRANCH  20  23
ENDBRANCH   7  20
TORSDOF 4
ENDMDL
MODEL       27
REMARK 921   NORMALIZED FREE ENERGY PREDICTED BY IDOCK:   -6.46 KCAL/MOL
REMARK 922        TOTAL FREE ENERGY PREDICTED BY IDOCK:   -9.90 KCAL/MOL
REMARK 923 INTER-LIGAND FREE ENERGY PREDICTED BY IDOCK:   -8.10 KCAL/MOL
REMARK 924 INTRA-LIGAND FREE ENERGY PREDICTED BY IDOCK:   -1.80 KCAL/MOL
REMARK 927      BINDING AFFINITY PREDICTED BY RF-SCORE:    0.00 PKD
ROOT
HETATM    1 CA   UNL     1     -11.356  12.889  70.898  1.00  0.00    -0.505 Ca 
HETATM    2  O   UNL     2      -9.802   6.077  71.276  1.00  0.00    -0.174 OA 
HETATM    3  C   UNL     2     -10.441   7.358  71.268  1.00  0.00    -0.208 C  
HETATM    4  H   UNL     2     -10.477   5.424  71.423  1.00  0.00     0.000 HD 
HETATM    5  O   UNL     3      -9.457  11.804  65.907  1.00  0.00    -0.227 OA 
HETATM    6  H   UNL     3      -8.847  11.278  65.404  1.00  0.00     0.000 HD 
HETATM    7  C   UNL     3      -8.676  12.870  66.518  1.00  0.00     0.052 C  
ENDROOT
BRANCH   3   8
HETATM    8  C   UNL     2      -9.368   8.395  71.034  1.00  0.00    -0.171 C  
HETATM    9  H   UNL     2      -7.873   9.133  72.074  1.00  0.00     0.000 HD 
HETATM   10  O   UNL     2      -8.548   8.481  72.221  1.00  0.00    -0.227 OA 
BRANCH   8  11
HETATM   11  C   UNL     2      -9.862   9.816  70.687  1.00  0.00    -0.102 C  
HETATM   12  C   UNL     2     -10.957  10.017  69.671  1.00  0.00    -0.264 C  
HETATM   13  O   UNL     2      -8.769  10.359  69.938  1.00  0.00    -0.064 OA 
HETATM   14  O   UNL     2      -8.065   9.635  67.859  1.00  0.00    -0.105 OA 
HETATM   15  H   UNL     2     -11.943   9.857  67.101  1.00  0.00     0.000 HD 
HETATM   16  O   UNL     2     -12.057  10.493  70.064  1.00  0.00    -0.287 OA 
HETATM   17  C   UNL     2      -8.926   9.836  68.686  1.00  0.00    -0.130 C  
HETATM   18  C   UNL     2     -10.396   9.781  68.461  1.00  0.00    -0.202 C  
HETATM   19  O   UNL     2     -11.005   9.892  67.245  1.00  0.00    -0.251 OA 
ENDBRANCH   8  11
ENDBRANCH   3   8
BRANCH   7  20
HETATM   20  C   UNL     3      -9.660  13.719  67.331  1.00  0.00    -0.229 C  
HETATM   21  O   UNL     3      -9.854  13.144  68.621  1.00  0.00    -0.359 OA 
HETATM   22  H   UNL     3     -10.464  13.671  69.125  1.00  0.00     0.000 HD 
BRANCH  20  23
HETATM   23  C   UNL     3     -10.978  14.256  66.708  1.00  0.00    -0.304 C  
HETATM   24  O   UNL     3     -11.219  16.728  64.292  1.00  0.00    -1.163 OA 
HETATM   25  C   UNL     3     -11.737  14.405  64.537  1.00  0.00    -0.419 C  
HETATM   26  C   UNL     3     -11.748  13.603  65.609  1.00  0.00    -0.342 C  
HETATM   27  O   UNL     3     -12.386  14.187  63.343  1.00  0.00    -1.109 OA 
HETATM   28  O   UNL     3     -10.863  15.625  66.285  1.00  0.00    -0.315 OA 
HETATM   29  C   UNL     3     -11.191  15.699  64.948  1.00  0.00    -0.369 C  
HETATM   30  O   UNL     3     -12.340  12.548  65.935  1.00  0.00    -0.626 OA 
HETATM   31  H   UNL     3     -12.741  13.347  63.076  1.00  0.00     0.000 HD 
ENDBRANCH  20  23
ENDBRANCH   7  20
TORSDOF 4
ENDMDL
MODEL       28
REMARK 921   NORMALIZED FREE ENERGY PREDICTED BY IDOCK:   -6.40 KCAL/MOL
REMARK 922        TOTAL FREE ENERGY PREDICTED BY IDOCK:   -9.82 KCAL/MOL
REMARK 923 INTER-LIGAND FREE ENERGY PREDICTED BY IDOCK:   -8.61 KCAL/MOL
REMARK 924 INTRA-LIGAND FREE ENERGY PREDICTED BY IDOCK:   -1.21 KCAL/MOL
REMARK 927      BINDING AFFINITY PREDICTED BY RF-SCORE:    0.00 PKD
ROOT
HETATM    1 CA   UNL     1      -9.367  12.348  69.241  1.00  0.00    -0.373 Ca 
HETATM    2  O   UNL     2     -11.118   6.192  66.410  1.00  0.00    -0.697 OA 
HETATM    3  C   UNL     2     -10.891   7.309  67.278  1.00  0.00    -0.284 C  
HETATM    4  H   UNL     2     -11.559   5.522  66.920  1.00  0.00     0.000 HD 
HETATM    5  O   UNL     3     -12.981  13.761  65.416  1.00  0.00    -0.706 OA 
HETATM    6  H   UNL     3     -13.329  13.549  64.558  1.00  0.00     0.000 HD 
HETATM    7  C   UNL     3     -11.719  14.451  65.190  1.00  0.00    -0.372 C  
ENDROOT
BRANCH   3   8
HETATM    8  C   UNL     2     -10.191   8.374  66.466  1.00  0.00    -0.207 C  
HETATM    9  H   UNL     2      -8.653   8.430  65.245  1.00  0.00     0.000 HD 
HETATM   10  O   UNL     2      -9.093   7.759  65.755  1.00  0.00    -0.124 OA 
BRANCH   8  11
HETATM   11  C   UNL     2      -9.637   9.576  67.260  1.00  0.00    -0.150 C  
HETATM   12  C   UNL     2     -10.537  10.369  68.174  1.00  0.00    -0.211 C  
HETATM   13  O   UNL     2      -9.437  10.565  66.243  1.00  0.00    -0.168 OA 
HETATM   14  O   UNL     2     -11.101  11.596  65.016  1.00  0.00    -0.299 OA 
HETATM   15  H   UNL     2     -12.694  12.030  68.614  1.00  0.00     0.000 HD 
HETATM   16  O   UNL     2     -10.302  10.344  69.413  1.00  0.00    -0.213 OA 
HETATM   17  C   UNL     2     -10.681  11.086  66.030  1.00  0.00    -0.177 C  
HETATM   18  C   UNL     2     -11.335  11.108  67.367  1.00  0.00    -0.255 C  
HETATM   19  O   UNL     2     -12.277  12.015  67.761  1.00  0.00    -0.474 OA 
ENDBRANCH   8  11
ENDBRANCH   3   8
BRANCH   7  20
HETATM   20  C   UNL     3     -11.156  14.793  66.574  1.00  0.00    -0.334 C  
HETATM   21  O   UNL     3     -12.187  14.706  67.557  1.00  0.00    -0.583 OA 
HETATM   22  H   UNL     3     -11.839  14.918  68.415  1.00  0.00     0.000 HD 
BRANCH  20  23
HETATM   23  C   UNL     3     -10.219  16.012  66.794  1.00  0.00    -0.274 C  
HETATM   24  O   UNL     3     -10.652  19.171  65.438  1.00  0.00    -0.508 OA 
HETATM   25  C   UNL     3     -10.582  18.142  67.597  1.00  0.00    -0.406 C  
HETATM   26  C   UNL     3     -10.228  16.911  67.986  1.00  0.00    -0.310 C  
HETATM   27  O   UNL     3     -10.648  19.265  68.389  1.00  0.00    -0.426 OA 
HETATM   28  O   UNL     3     -10.232  16.917  65.677  1.00  0.00    -0.542 OA 
HETATM   29  C   UNL     3     -10.578  18.171  66.133  1.00  0.00    -0.274 C  
HETATM   30  O   UNL     3      -9.789  16.393  69.039  1.00  0.00    -0.244 OA 
HETATM   31  H   UNL     3     -10.650  19.246  69.339  1.00  0.00     0.000 HD 
ENDBRANCH  20  23
ENDBRANCH   7  20
TORSDOF 4
ENDMDL
MODEL       29
REMARK 921   NORMALIZED FREE ENERGY PREDICTED BY IDOCK:   -6.39 KCAL/MOL
REMARK 922        TOTAL FREE ENERGY PREDICTED BY IDOCK:   -9.81 KCAL/MOL
REMARK 923 INTER-LIGAND FREE ENERGY PREDICTED BY IDOCK:   -8.66 KCAL/MOL
REMARK 924 INTRA-LIGAND FREE ENERGY PREDICTED BY IDOCK:   -1.15 KCAL/MOL
REMARK 927      BINDING AFFINITY PREDICTED BY RF-SCORE:    0.00 PKD
ROOT
HETATM    1 CA   UNL     1     -10.543  16.255  64.751  1.00  0.00    -0.335 Ca 
HETATM    2  O   UNL     2      -9.470   9.585  62.928  1.00  0.00    -0.544 OA 
HETATM    3  C   UNL     2      -9.653  11.005  62.960  1.00  0.00    -0.364 C  
HETATM    4  H   UNL     2      -9.286   9.343  62.028  1.00  0.00     0.000 HD 
HETATM    5  O   UNL     3      -6.002  14.974  67.475  1.00  0.00    -0.310 OA 
HETATM    6  H   UNL     3      -5.529  14.278  67.916  1.00  0.00     0.000 HD 
HETATM    7  C   UNL     3      -7.029  15.427  68.402  1.00  0.00    -0.111 C  
ENDROOT
BRANCH   3   8
HETATM    8  C   UNL     2      -9.945  11.389  64.392  1.00  0.00    -0.274 C  
HETATM    9  H   UNL     2      -9.536  10.639  66.161  1.00  0.00     0.000 HD 
HETATM   10  O   UNL     2      -9.352  10.398  65.260  1.00  0.00    -0.182 OA 
BRANCH   8  11
HETATM   11  C   UNL     2     -11.436  11.526  64.766  1.00  0.00    -0.072 C  
HETATM   12  C   UNL     2     -12.320  12.506  64.036  1.00  0.00    -0.469 C  
HETATM   13  O   UNL     2     -11.386  12.185  66.037  1.00  0.00    -0.329 OA 
HETATM   14  O   UNL     2     -10.653  14.344  66.412  1.00  0.00    -0.289 OA 
HETATM   15  H   UNL     2     -13.031  15.076  63.333  1.00  0.00     0.000 HD 
HETATM   16  O   UNL     2     -13.265  12.052  63.335  1.00  0.00    -0.687 OA 
HETATM   17  C   UNL     2     -11.187  13.500  65.727  1.00  0.00    -0.297 C  
HETATM   18  C   UNL     2     -11.965  13.736  64.481  1.00  0.00    -0.427 C  
HETATM   19  O   UNL     2     -12.534  14.925  64.128  1.00  0.00    -0.763 OA 
ENDBRANCH   8  11
ENDBRANCH   3   8
BRANCH   7  20
HETATM   20  C   UNL     3      -7.792  16.550  67.689  1.00  0.00    -0.159 C  
HETATM   21  O   UNL     3      -7.365  16.648  66.332  1.00  0.00    -0.259 OA 
HETATM   22  H   UNL     3      -7.838  17.343  65.891  1.00  0.00     0.000 HD 
BRANCH  20  23
HETATM   23  C   UNL     3      -8.005  17.938  68.354  1.00  0.00    -0.298 C  
HETATM   24  O   UNL     3      -6.779  20.957  67.178  1.00  0.00    -0.292 OA 
HETATM   25  C   UNL     3      -8.896  19.920  67.587  1.00  0.00    -0.334 C  
HETATM   26  C   UNL     3      -9.226  18.787  68.219  1.00  0.00    -0.331 C  
HETATM   27  O   UNL     3      -9.728  20.985  67.326  1.00  0.00    -0.637 OA 
HETATM   28  O   UNL     3      -6.921  18.843  68.085  1.00  0.00    -0.234 OA 
HETATM   29  C   UNL     3      -7.436  19.981  67.504  1.00  0.00    -0.287 C  
HETATM   30  O   UNL     3     -10.237  18.353  68.817  1.00  0.00    -0.379 OA 
HETATM   31  H   UNL     3     -10.676  20.946  67.381  1.00  0.00     0.000 HD 
ENDBRANCH  20  23
ENDBRANCH   7  20
TORSDOF 4
ENDMDL
MODEL       30
REMARK 921   NORMALIZED FREE ENERGY PREDICTED BY IDOCK:   -6.37 KCAL/MOL
REMARK 922        TOTAL FREE ENERGY PREDICTED BY IDOCK:   -9.79 KCAL/MOL
REMARK 923 INTER-LIGAND FREE ENERGY PREDICTED BY IDOCK:   -8.54 KCAL/MOL
REMARK 924 INTRA-LIGAND FREE ENERGY PREDICTED BY IDOCK:   -1.24 KCAL/MOL
REMARK 927      BINDING AFFINITY PREDICTED BY RF-SCORE:    0.00 PKD
ROOT
HETATM    1 CA   UNL     1     -10.874  16.510  63.728  1.00  0.00    -0.489 Ca 
HETATM    2  O   UNL     2      -9.055   9.774  63.184  1.00  0.00    -0.252 OA 
HETATM    3  C   UNL     2      -9.418  11.140  62.949  1.00  0.00    -0.359 C  
HETATM    4  H   UNL     2      -8.894   9.374  62.338  1.00  0.00     0.000 HD 
HETATM    5  O   UNL     3      -6.054  16.352  66.263  1.00  0.00    -0.026 OA 
HETATM    6  H   UNL     3      -5.470  15.822  66.793  1.00  0.00     0.000 HD 
HETATM    7  C   UNL     3      -7.076  16.866  67.164  1.00  0.00    -0.181 C  
ENDROOT
BRANCH   3   8
HETATM    8  C   UNL     2      -9.674  11.776  64.295  1.00  0.00    -0.146 C  
HETATM    9  H   UNL     2      -9.055  11.474  66.134  1.00  0.00     0.000 HD 
HETATM   10  O   UNL     2      -8.894  11.073  65.288  1.00  0.00    -0.191 OA 
BRANCH   8  11
HETATM   11  C   UNL     2     -11.143  11.801  64.765  1.00  0.00    -0.296 C  
HETATM   12  C   UNL     2     -12.194  12.515  63.953  1.00  0.00    -0.503 C  
HETATM   13  O   UNL     2     -11.103  12.685  65.891  1.00  0.00    -0.274 OA 
HETATM   14  O   UNL     2     -10.643  14.949  65.815  1.00  0.00    -0.297 OA 
HETATM   15  H   UNL     2     -13.285  14.805  62.871  1.00  0.00     0.000 HD 
HETATM   16  O   UNL     2     -13.111  11.828  63.426  1.00  0.00    -0.622 OA 
HETATM   17  C   UNL     2     -11.101  13.934  65.339  1.00  0.00    -0.310 C  
HETATM   18  C   UNL     2     -11.980  13.839  64.141  1.00  0.00    -0.432 C  
HETATM   19  O   UNL     2     -12.724  14.865  63.635  1.00  0.00    -0.689 OA 
ENDBRANCH   8  11
ENDBRANCH   3   8
BRANCH   7  20
HETATM   20  C   UNL     3      -8.018  17.722  66.309  1.00  0.00    -0.247 C  
HETATM   21  O   UNL     3      -7.277  18.730  65.624  1.00  0.00    -0.448 OA 
HETATM   22  H   UNL     3      -7.861  19.260  65.094  1.00  0.00     0.000 HD 
BRANCH  20  23
HETATM   23  C   UNL     3      -9.372  18.244  66.864  1.00  0.00    -0.286 C  
HETATM   24  O   UNL     3     -11.035  17.009  69.641  1.00  0.00    -0.167 OA 
HETATM   25  C   UNL     3     -10.013  19.051  68.925  1.00  0.00    -0.398 C  
HETATM   26  C   UNL     3      -9.550  19.445  67.732  1.00  0.00    -0.335 C  
HETATM   27  O   UNL     3     -10.362  19.865  69.979  1.00  0.00    -0.572 OA 
HETATM   28  O   UNL     3     -10.118  17.215  67.537  1.00  0.00    -0.282 OA 
HETATM   29  C   UNL     3     -10.392  17.640  68.818  1.00  0.00    -0.348 C  
HETATM   30  O   UNL     3      -9.371  20.542  67.156  1.00  0.00    -0.394 OA 
HETATM   31  H   UNL     3     -10.117  20.780  70.047  1.00  0.00     0.000 HD 
ENDBRANCH  20  23
ENDBRANCH   7  20
TORSDOF 4
ENDMDL
MODEL       31
REMARK 921   NORMALIZED FREE ENERGY PREDICTED BY IDOCK:   -6.36 KCAL/MOL
REMARK 922        TOTAL FREE ENERGY PREDICTED BY IDOCK:   -9.77 KCAL/MOL
REMARK 923 INTER-LIGAND FREE ENERGY PREDICTED BY IDOCK:   -8.21 KCAL/MOL
REMARK 924 INTRA-LIGAND FREE ENERGY PREDICTED BY IDOCK:   -1.56 KCAL/MOL
REMARK 927      BINDING AFFINITY PREDICTED BY RF-SCORE:    0.00 PKD
ROOT
HETATM    1 CA   UNL     1     -12.198  11.247  67.846  1.00  0.00    -0.261 Ca 
HETATM    2  O   UNL     2     -11.563  16.679  72.211  1.00  0.00    -0.464 OA 
HETATM    3  C   UNL     2     -11.435  15.437  71.510  1.00  0.00    -0.413 C  
HETATM    4  H   UNL     2     -10.895  16.694  72.886  1.00  0.00     0.000 HD 
HETATM    5  O   UNL     3     -10.861  15.335  64.501  1.00  0.00    -0.634 OA 
HETATM    6  H   UNL     3     -10.936  16.268  64.344  1.00  0.00     0.000 HD 
HETATM    7  C   UNL     3     -12.126  14.744  64.087  1.00  0.00    -0.299 C  
ENDROOT
BRANCH   3   8
HETATM    8  C   UNL     2     -12.497  15.414  70.436  1.00  0.00    -0.404 C  
HETATM    9  H   UNL     2     -14.461  15.422  70.399  1.00  0.00     0.000 HD 
HETATM   10  O   UNL     2     -13.793  15.436  71.075  1.00  0.00    -0.464 OA 
BRANCH   8  11
HETATM   11  C   UNL     2     -12.458  14.212  69.469  1.00  0.00    -0.123 C  
HETATM   12  C   UNL     2     -11.223  13.352  69.369  1.00  0.00    -0.175 C  
HETATM   13  O   UNL     2     -12.388  14.840  68.183  1.00  0.00    -0.106 OA 
HETATM   14  O   UNL     2     -10.614  16.086  67.383  1.00  0.00    -0.307 OA 
HETATM   15  H   UNL     2      -8.564  12.986  68.742  1.00  0.00     0.000 HD 
HETATM   16  O   UNL     2     -11.302  12.149  69.741  1.00  0.00    -0.209 OA 
HETATM   17  C   UNL     2     -11.073  15.185  68.048  1.00  0.00    -0.308 C  
HETATM   18  C   UNL     2     -10.307  14.085  68.695  1.00  0.00    -0.238 C  
HETATM   19  O   UNL     2      -9.053  13.687  68.330  1.00  0.00    -0.193 OA 
ENDBRANCH   8  11
ENDBRANCH   3   8
BRANCH   7  20
HETATM   20  C   UNL     3     -12.005  13.237  64.340  1.00  0.00    -0.406 C  
HETATM   21  O   UNL     3     -13.077  12.791  65.168  1.00  0.00    -0.750 OA 
HETATM   22  H   UNL     3     -13.003  11.857  65.325  1.00  0.00     0.000 HD 
BRANCH  20  23
HETATM   23  C   UNL     3     -10.647  12.580  64.710  1.00  0.00    -0.305 C  
HETATM   24  O   UNL     3     -10.190  10.030  67.010  1.00  0.00    -0.213 OA 
HETATM   25  C   UNL     3      -9.897  10.401  64.664  1.00  0.00    -0.338 C  
HETATM   26  C   UNL     3      -9.954  11.516  63.925  1.00  0.00    -0.324 C  
HETATM   27  O   UNL     3      -9.283   9.219  64.319  1.00  0.00    -0.435 OA 
HETATM   28  O   UNL     3     -10.633  12.082  66.059  1.00  0.00    -0.251 OA 
HETATM   29  C   UNL     3     -10.312  10.742  66.027  1.00  0.00    -0.238 C  
HETATM   30  O   UNL     3      -9.464  11.899  62.838  1.00  0.00    -0.358 OA 
HETATM   31  H   UNL     3      -9.014   8.998  63.435  1.00  0.00     0.000 HD 
ENDBRANCH  20  23
ENDBRANCH   7  20
TORSDOF 4
ENDMDL
MODEL       32
REMARK 921   NORMALIZED FREE ENERGY PREDICTED BY IDOCK:   -6.34 KCAL/MOL
REMARK 922        TOTAL FREE ENERGY PREDICTED BY IDOCK:   -9.75 KCAL/MOL
REMARK 923 INTER-LIGAND FREE ENERGY PREDICTED BY IDOCK:   -8.26 KCAL/MOL
REMARK 924 INTRA-LIGAND FREE ENERGY PREDICTED BY IDOCK:   -1.50 KCAL/MOL
REMARK 927      BINDING AFFINITY PREDICTED BY RF-SCORE:    0.00 PKD
ROOT
HETATM    1 CA   UNL     1      -7.313  12.670  66.151  1.00  0.00    -0.346 Ca 
HETATM    2  O   UNL     2     -10.589  18.180  68.957  1.00  0.00    -0.392 OA 
HETATM    3  C   UNL     2      -9.665  17.284  68.329  1.00  0.00    -0.294 C  
HETATM    4  H   UNL     2     -10.192  19.044  68.955  1.00  0.00     0.000 HD 
HETATM    5  O   UNL     3     -11.731  13.181  63.004  1.00  0.00    -0.795 OA 
HETATM    6  H   UNL     3     -12.646  13.436  62.982  1.00  0.00     0.000 HD 
HETATM    7  C   UNL     3     -11.689  11.850  63.593  1.00  0.00    -0.474 C  
ENDROOT
BRANCH   3   8
HETATM    8  C   UNL     2     -10.297  15.912  68.332  1.00  0.00    -0.240 C  
HETATM    9  H   UNL     2     -10.238  14.338  69.506  1.00  0.00     0.000 HD 
HETATM   10  O   UNL     2      -9.841  15.201  69.505  1.00  0.00    -0.224 OA 
BRANCH   8  11
HETATM   11  C   UNL     2     -10.013  15.032  67.096  1.00  0.00    -0.237 C  
HETATM   12  C   UNL     2     -10.973  15.015  65.934  1.00  0.00    -0.343 C  
HETATM   13  O   UNL     2     -10.245  13.707  67.588  1.00  0.00    -0.234 OA 
HETATM   14  O   UNL     2     -12.284  12.852  68.257  1.00  0.00    -0.206 OA 
HETATM   15  H   UNL     2     -13.438  14.461  64.830  1.00  0.00     0.000 HD 
HETATM   16  O   UNL     2     -10.578  15.468  64.825  1.00  0.00    -0.390 OA 
HETATM   17  C   UNL     2     -11.603  13.570  67.561  1.00  0.00    -0.350 C  
HETATM   18  C   UNL     2     -12.051  14.306  66.346  1.00  0.00    -0.419 C  
HETATM   19  O   UNL     2     -13.153  13.992  65.604  1.00  0.00    -0.639 OA 
ENDBRANCH   8  11
ENDBRANCH   3   8
BRANCH   7  20
HETATM   20  C   UNL     3     -10.213  11.437  63.629  1.00  0.00    -0.397 C  
HETATM   21  O   UNL     3      -9.922  10.565  62.538  1.00  0.00    -0.708 OA 
HETATM   22  H   UNL     3      -9.007  10.310  62.560  1.00  0.00     0.000 HD 
BRANCH  20  23
HETATM   23  C   UNL     3      -9.522  10.999  64.950  1.00  0.00    -0.233 C  
HETATM   24  O   UNL     3     -10.782   8.721  67.236  1.00  0.00    -0.276 OA 
HETATM   25  C   UNL     3      -8.895   8.942  65.781  1.00  0.00    -0.186 C  
HETATM   26  C   UNL     3      -8.439   9.978  65.066  1.00  0.00    -0.160 C  
HETATM   27  O   UNL     3      -8.180   7.829  66.160  1.00  0.00    -0.110 OA 
HETATM   28  O   UNL     3     -10.471  10.614  65.959  1.00  0.00    -0.239 OA 
HETATM   29  C   UNL     3     -10.179   9.331  66.368  1.00  0.00    -0.228 C  
HETATM   30  O   UNL     3      -7.328  10.336  64.611  1.00  0.00    -0.138 OA 
HETATM   31  H   UNL     3      -7.347   7.577  65.779  1.00  0.00     0.000 HD 
ENDBRANCH  20  23
ENDBRANCH   7  20
TORSDOF 4
ENDMDL
MODEL       33
REMARK 921   NORMALIZED FREE ENERGY PREDICTED BY IDOCK:   -6.34 KCAL/MOL
REMARK 922        TOTAL FREE ENERGY PREDICTED BY IDOCK:   -9.75 KCAL/MOL
REMARK 923 INTER-LIGAND FREE ENERGY PREDICTED BY IDOCK:   -8.81 KCAL/MOL
REMARK 924 INTRA-LIGAND FREE ENERGY PREDICTED BY IDOCK:   -0.94 KCAL/MOL
REMARK 927      BINDING AFFINITY PREDICTED BY RF-SCORE:    0.00 PKD
ROOT
HETATM    1 CA   UNL     1     -11.661   8.945  67.209  1.00  0.00    -0.380 Ca 
HETATM    2  O   UNL     2      -8.981   7.384  73.481  1.00  0.00    -0.158 OA 
HETATM    3  C   UNL     2      -9.262   7.514  72.083  1.00  0.00    -0.136 C  
HETATM    4  H   UNL     2      -8.179   6.882  73.564  1.00  0.00     0.000 HD 
HETATM    5  O   UNL     3     -10.432  13.845  69.251  1.00  0.00    -0.420 OA 
HETATM    6  H   UNL     3     -10.366  14.363  70.044  1.00  0.00     0.000 HD 
HETATM    7  C   UNL     3     -11.847  13.785  68.914  1.00  0.00    -0.360 C  
ENDROOT
BRANCH   3   8
HETATM    8  C   UNL     2     -10.537   8.313  71.953  1.00  0.00    -0.282 C  
HETATM    9  H   UNL     2     -12.213   8.465  72.967  1.00  0.00     0.000 HD 
HETATM   10  O   UNL     2     -11.410   7.962  73.049  1.00  0.00    -0.408 OA 
BRANCH   8  11
HETATM   11  C   UNL     2     -11.321   8.129  70.636  1.00  0.00    -0.249 C  
HETATM   12  C   UNL     2     -10.654   7.518  69.429  1.00  0.00    -0.223 C  
HETATM   13  O   UNL     2     -11.453   9.471  70.153  1.00  0.00    -0.236 OA 
HETATM   14  O   UNL     2      -9.724  10.824  69.433  1.00  0.00    -0.173 OA 
HETATM   15  H   UNL     2      -8.762   7.553  67.424  1.00  0.00     0.000 HD 
HETATM   16  O   UNL     2     -11.076   6.405  69.013  1.00  0.00    -0.327 OA 
HETATM   17  C   UNL     2     -10.247   9.741  69.574  1.00  0.00    -0.221 C  
HETATM   18  C   UNL     2      -9.815   8.464  68.944  1.00  0.00    -0.180 C  
HETATM   19  O   UNL     2      -9.037   8.367  67.826  1.00  0.00    -0.135 OA 
ENDBRANCH   8  11
ENDBRANCH   3   8
BRANCH   7  20
HETATM   20  C   UNL     3     -11.954  12.948  67.633  1.00  0.00    -0.289 C  
HETATM   21  O   UNL     3     -11.854  11.560  67.946  1.00  0.00    -0.565 OA 
HETATM   22  H   UNL     3     -11.921  11.042  67.152  1.00  0.00     0.000 HD 
BRANCH  20  23
HETATM   23  C   UNL     3     -11.176  13.331  66.344  1.00  0.00    -0.302 C  
HETATM   24  O   UNL     3     -12.569  13.839  63.213  1.00  0.00    -0.830 OA 
HETATM   25  C   UNL     3     -11.367  15.087  64.863  1.00  0.00    -0.417 C  
HETATM   26  C   UNL     3     -10.728  14.707  65.976  1.00  0.00    -0.312 C  
HETATM   27  O   UNL     3     -11.184  16.263  64.173  1.00  0.00    -1.193 OA 
HETATM   28  O   UNL     3     -11.822  12.847  65.154  1.00  0.00    -0.338 OA 
HETATM   29  C   UNL     3     -12.058  13.916  64.318  1.00  0.00    -0.440 C  
HETATM   30  O   UNL     3      -9.786  15.156  66.669  1.00  0.00    -0.236 OA 
HETATM   31  H   UNL     3     -10.736  17.023  64.527  1.00  0.00     0.000 HD 
ENDBRANCH  20  23
ENDBRANCH   7  20
TORSDOF 4
ENDMDL
MODEL       34
REMARK 921   NORMALIZED FREE ENERGY PREDICTED BY IDOCK:   -6.29 KCAL/MOL
REMARK 922        TOTAL FREE ENERGY PREDICTED BY IDOCK:   -9.69 KCAL/MOL
REMARK 923 INTER-LIGAND FREE ENERGY PREDICTED BY IDOCK:   -7.34 KCAL/MOL
REMARK 924 INTRA-LIGAND FREE ENERGY PREDICTED BY IDOCK:   -2.35 KCAL/MOL
REMARK 927      BINDING AFFINITY PREDICTED BY RF-SCORE:    0.00 PKD
ROOT
HETATM    1 CA   UNL     1     -12.281  11.799  69.323  1.00  0.00    -0.255 Ca 
HETATM    2  O   UNL     2     -10.962  16.258  64.094  1.00  0.00    -1.126 OA 
HETATM    3  C   UNL     2     -11.095  15.599  65.358  1.00  0.00    -0.267 C  
HETATM    4  H   UNL     2     -10.530  17.090  64.252  1.00  0.00     0.000 HD 
HETATM    5  O   UNL     3      -8.793   9.007  66.205  1.00  0.00    -0.146 OA 
HETATM    6  H   UNL     3      -8.497   8.850  65.316  1.00  0.00     0.000 HD 
HETATM    7  C   UNL     3     -10.031   8.256  66.365  1.00  0.00    -0.194 C  
ENDROOT
BRANCH   3   8
HETATM    8  C   UNL     2     -11.781  14.277  65.107  1.00  0.00    -0.368 C  
HETATM    9  H   UNL     2     -13.574  13.708  64.540  1.00  0.00     0.000 HD 
HETATM   10  O   UNL     2     -13.142  14.539  64.698  1.00  0.00    -0.451 OA 
BRANCH   8  11
HETATM   11  C   UNL     2     -11.817  13.294  66.296  1.00  0.00    -0.395 C  
HETATM   12  C   UNL     2     -10.585  13.065  67.135  1.00  0.00    -0.246 C  
HETATM   13  O   UNL     2     -11.882  12.017  65.653  1.00  0.00    -0.428 OA 
HETATM   14  O   UNL     2     -10.214  11.065  64.367  1.00  0.00    -0.297 OA 
HETATM   15  H   UNL     2      -7.994  12.178  67.449  1.00  0.00     0.000 HD 
HETATM   16  O   UNL     2     -10.609  13.425  68.343  1.00  0.00    -0.236 OA 
HETATM   17  C   UNL     2     -10.593  11.759  65.284  1.00  0.00    -0.278 C  
HETATM   18  C   UNL     2      -9.750  12.314  66.378  1.00  0.00    -0.234 C  
HETATM   19  O   UNL     2      -8.531  11.824  66.751  1.00  0.00    -0.176 OA 
ENDBRANCH   8  11
ENDBRANCH   3   8
BRANCH   7  20
HETATM   20  C   UNL     3     -10.509   8.508  67.800  1.00  0.00    -0.223 C  
HETATM   21  O   UNL     3     -11.311   9.687  67.849  1.00  0.00    -0.507 OA 
HETATM   22  H   UNL     3     -11.607   9.843  68.738  1.00  0.00     0.000 HD 
BRANCH  20  23
HETATM   23  C   UNL     3      -9.545   8.387  69.012  1.00  0.00    -0.160 C  
HETATM   24  O   UNL     3      -6.095   8.678  68.895  1.00  0.00    -0.043 OA 
HETATM   25  C   UNL     3      -7.955   9.802  69.897  1.00  0.00    -0.175 C  
HETATM   26  C   UNL     3      -9.248   9.468  69.997  1.00  0.00    -0.234 C  
HETATM   27  O   UNL     3      -7.281  10.715  70.675  1.00  0.00    -0.422 OA 
HETATM   28  O   UNL     3      -8.248   7.899  68.630  1.00  0.00    -0.124 OA 
HETATM   29  C   UNL     3      -7.299   8.809  69.043  1.00  0.00    -0.073 C  
HETATM   30  O   UNL     3     -10.187   9.740  70.780  1.00  0.00    -0.280 OA 
HETATM   31  H   UNL     3      -7.707  11.358  71.229  1.00  0.00     0.000 HD 
ENDBRANCH  20  23
ENDBRANCH   7  20
TORSDOF 4
ENDMDL
MODEL       35
REMARK 921   NORMALIZED FREE ENERGY PREDICTED BY IDOCK:   -6.29 KCAL/MOL
REMARK 922        TOTAL FREE ENERGY PREDICTED BY IDOCK:   -9.69 KCAL/MOL
REMARK 923 INTER-LIGAND FREE ENERGY PREDICTED BY IDOCK:   -8.10 KCAL/MOL
REMARK 924 INTRA-LIGAND FREE ENERGY PREDICTED BY IDOCK:   -1.59 KCAL/MOL
REMARK 927      BINDING AFFINITY PREDICTED BY RF-SCORE:    0.00 PKD
ROOT
HETATM    1 CA   UNL     1      -6.701  12.879  66.580  1.00  0.00    -0.348 Ca 
HETATM    2  O   UNL     2     -10.939   7.337  67.124  1.00  0.00    -0.496 OA 
HETATM    3  C   UNL     2      -9.952   8.357  67.318  1.00  0.00    -0.227 C  
HETATM    4  H   UNL     2     -10.923   6.777  67.891  1.00  0.00     0.000 HD 
HETATM    5  O   UNL     3     -11.654  15.147  66.637  1.00  0.00    -0.263 OA 
HETATM    6  H   UNL     3     -12.565  15.035  66.389  1.00  0.00     0.000 HD 
HETATM    7  C   UNL     3     -10.942  15.533  65.427  1.00  0.00    -0.357 C  
ENDROOT
BRANCH   3   8
HETATM    8  C   UNL     2      -9.979   9.247  66.098  1.00  0.00    -0.277 C  
HETATM    9  H   UNL     2      -9.007   9.326  64.392  1.00  0.00     0.000 HD 
HETATM   10  O   UNL     2      -8.990   8.766  65.160  1.00  0.00    -0.184 OA 
BRANCH   8  11
HETATM   11  C   UNL     2      -9.715  10.747  66.347  1.00  0.00    -0.199 C  
HETATM   12  C   UNL     2     -10.858  11.682  66.656  1.00  0.00    -0.283 C  
HETATM   13  O   UNL     2      -9.384  11.234  65.041  1.00  0.00    -0.221 OA 
HETATM   14  O   UNL     2     -10.824  11.350  63.238  1.00  0.00    -0.349 OA 
HETATM   15  H   UNL     2     -13.192  12.975  65.962  1.00  0.00     0.000 HD 
HETATM   16  O   UNL     2     -10.896  12.222  67.795  1.00  0.00    -0.208 OA 
HETATM   17  C   UNL     2     -10.593  11.394  64.425  1.00  0.00    -0.341 C  
HETATM   18  C   UNL     2     -11.521  11.864  65.489  1.00  0.00    -0.252 C  
HETATM   19  O   UNL     2     -12.600  12.674  65.283  1.00  0.00    -0.630 OA 
ENDBRANCH   8  11
ENDBRANCH   3   8
BRANCH   7  20
HETATM   20  C   UNL     3      -9.473  15.714  65.827  1.00  0.00    -0.303 C  
HETATM   21  O   UNL     3      -8.981  14.521  66.435  1.00  0.00    -0.426 OA 
HETATM   22  H   UNL     3      -8.070  14.633  66.682  1.00  0.00     0.000 HD 
BRANCH  20  23
HETATM   23  C   UNL     3      -8.976  17.001  66.540  1.00  0.00    -0.269 C  
HETATM   24  O   UNL     3     -10.774  19.940  66.901  1.00  0.00    -0.459 OA 
HETATM   25  C   UNL     3      -9.815  18.244  68.290  1.00  0.00    -0.350 C  
HETATM   26  C   UNL     3      -8.981  17.234  68.015  1.00  0.00    -0.242 C  
HETATM   27  O   UNL     3     -10.049  18.801  69.527  1.00  0.00    -0.332 OA 
HETATM   28  O   UNL     3      -9.576  18.190  65.999  1.00  0.00    -0.496 OA 
HETATM   29  C   UNL     3     -10.194  18.874  67.024  1.00  0.00    -0.378 C  
HETATM   30  O   UNL     3      -8.141  16.562  68.656  1.00  0.00    -0.209 OA 
HETATM   31  H   UNL     3      -9.802  18.392  70.349  1.00  0.00     0.000 HD 
ENDBRANCH  20  23
ENDBRANCH   7  20
TORSDOF 4
ENDMDL
MODEL       36
REMARK 921   NORMALIZED FREE ENERGY PREDICTED BY IDOCK:   -6.27 KCAL/MOL
REMARK 922        TOTAL FREE ENERGY PREDICTED BY IDOCK:   -9.66 KCAL/MOL
REMARK 923 INTER-LIGAND FREE ENERGY PREDICTED BY IDOCK:   -7.42 KCAL/MOL
REMARK 924 INTRA-LIGAND FREE ENERGY PREDICTED BY IDOCK:   -2.24 KCAL/MOL
REMARK 927      BINDING AFFINITY PREDICTED BY RF-SCORE:    0.00 PKD
ROOT
HETATM    1 CA   UNL     1     -12.785  10.714  68.621  1.00  0.00    -0.436 Ca 
HETATM    2  O   UNL     2     -11.036  15.806  64.150  1.00  0.00    -0.827 OA 
HETATM    3  C   UNL     2     -11.405  15.025  65.293  1.00  0.00    -0.349 C  
HETATM    4  H   UNL     2     -10.926  16.703  64.443  1.00  0.00     0.000 HD 
HETATM    5  O   UNL     3      -7.828   9.198  66.943  1.00  0.00    -0.097 OA 
HETATM    6  H   UNL     3      -7.218   9.202  66.215  1.00  0.00     0.000 HD 
HETATM    7  C   UNL     3      -8.793   8.144  66.665  1.00  0.00    -0.143 C  
ENDROOT
BRANCH   3   8
HETATM    8  C   UNL     2     -11.579  13.599  64.827  1.00  0.00    -0.355 C  
HETATM    9  H   UNL     2     -12.859  12.636  63.690  1.00  0.00     0.000 HD 
HETATM   10  O   UNL     2     -12.750  13.534  63.983  1.00  0.00    -0.660 OA 
BRANCH   8  11
HETATM   11  C   UNL     2     -11.727  12.536  65.937  1.00  0.00    -0.426 C  
HETATM   12  C   UNL     2     -10.807  12.547  67.132  1.00  0.00    -0.250 C  
HETATM   13  O   UNL     2     -11.245  11.345  65.304  1.00  0.00    -0.198 OA 
HETATM   14  O   UNL     2      -9.069  10.958  64.632  1.00  0.00    -0.200 OA 
HETATM   15  H   UNL     2      -8.308  12.309  68.274  1.00  0.00     0.000 HD 
HETATM   16  O   UNL     2     -11.304  12.781  68.267  1.00  0.00    -0.255 OA 
HETATM   17  C   UNL     2      -9.886  11.451  65.377  1.00  0.00    -0.236 C  
HETATM   18  C   UNL     2      -9.608  12.098  66.688  1.00  0.00    -0.220 C  
HETATM   19  O   UNL     2      -8.485  11.896  67.437  1.00  0.00    -0.151 OA 
ENDBRANCH   8  11
ENDBRANCH   3   8
BRANCH   7  20
HETATM   20  C   UNL     3      -9.779   8.137  67.840  1.00  0.00    -0.161 C  
HETATM   21  O   UNL     3     -11.111   7.961  67.361  1.00  0.00    -0.508 OA 
HETATM   22  H   UNL     3     -11.721   7.956  68.088  1.00  0.00     0.000 HD 
BRANCH  20  23
HETATM   23  C   UNL     3      -9.686   9.182  68.986  1.00  0.00    -0.166 C  
HETATM   24  O   UNL     3     -11.859   9.441  71.671  1.00  0.00    -0.351 OA 
HETATM   25  C   UNL     3      -9.544   8.982  71.278  1.00  0.00    -0.291 C  
HETATM   26  C   UNL     3      -8.790   9.087  70.177  1.00  0.00    -0.182 C  
HETATM   27  O   UNL     3      -9.095   8.935  72.578  1.00  0.00    -0.349 OA 
HETATM   28  O   UNL     3     -10.973   9.494  69.544  1.00  0.00    -0.238 OA 
HETATM   29  C   UNL     3     -10.933   9.251  70.900  1.00  0.00    -0.299 C  
HETATM   30  O   UNL     3      -7.573   9.255  69.934  1.00  0.00    -0.073 OA 
HETATM   31  H   UNL     3      -8.193   8.761  72.823  1.00  0.00     0.000 HD 
ENDBRANCH  20  23
ENDBRANCH   7  20
TORSDOF 4
ENDMDL
MODEL       37
REMARK 921   NORMALIZED FREE ENERGY PREDICTED BY IDOCK:   -6.27 KCAL/MOL
REMARK 922        TOTAL FREE ENERGY PREDICTED BY IDOCK:   -9.66 KCAL/MOL
REMARK 923 INTER-LIGAND FREE ENERGY PREDICTED BY IDOCK:   -8.07 KCAL/MOL
REMARK 924 INTRA-LIGAND FREE ENERGY PREDICTED BY IDOCK:   -1.58 KCAL/MOL
REMARK 927      BINDING AFFINITY PREDICTED BY RF-SCORE:    0.00 PKD
ROOT
HETATM    1 CA   UNL     1     -10.248  13.928  69.172  1.00  0.00    -0.213 Ca 
HETATM    2  O   UNL     2     -12.183  11.589  62.867  1.00  0.00    -0.942 OA 
HETATM    3  C   UNL     2     -12.129  12.115  64.198  1.00  0.00    -0.409 C  
HETATM    4  H   UNL     2     -13.092  11.604  62.593  1.00  0.00     0.000 HD 
HETATM    5  O   UNL     3      -7.730  17.370  65.781  1.00  0.00    -0.508 OA 
HETATM    6  H   UNL     3      -7.316  17.462  64.931  1.00  0.00     0.000 HD 
HETATM    7  C   UNL     3      -6.756  16.719  66.646  1.00  0.00    -0.206 C  
ENDROOT
BRANCH   3   8
HETATM    8  C   UNL     2     -10.682  12.090  64.633  1.00  0.00    -0.309 C  
HETATM    9  H   UNL     2      -9.150  10.891  64.359  1.00  0.00     0.000 HD 
HETATM   10  O   UNL     2     -10.060  10.907  64.085  1.00  0.00    -0.302 OA 
BRANCH   8  11
HETATM   11  C   UNL     2     -10.432  12.103  66.156  1.00  0.00    -0.248 C  
HETATM   12  C   UNL     2     -11.503  12.585  67.102  1.00  0.00    -0.351 C  
HETATM   13  O   UNL     2      -9.501  13.179  66.317  1.00  0.00    -0.252 OA 
HETATM   14  O   UNL     2      -9.944  15.416  65.941  1.00  0.00    -0.294 OA 
HETATM   15  H   UNL     2     -13.142  14.559  68.111  1.00  0.00     0.000 HD 
HETATM   16  O   UNL     2     -12.010  11.753  67.904  1.00  0.00    -0.575 OA 
HETATM   17  C   UNL     2     -10.276  14.303  66.283  1.00  0.00    -0.301 C  
HETATM   18  C   UNL     2     -11.543  13.932  66.971  1.00  0.00    -0.369 C  
HETATM   19  O   UNL     2     -12.334  14.796  67.671  1.00  0.00    -0.102 OA 
ENDBRANCH   8  11
ENDBRANCH   3   8
BRANCH   7  20
HETATM   20  C   UNL     3      -7.424  16.571  68.018  1.00  0.00    -0.156 C  
HETATM   21  O   UNL     3      -8.077  15.306  68.111  1.00  0.00    -0.131 OA 
HETATM   22  H   UNL     3      -8.491  15.214  68.961  1.00  0.00     0.000 HD 
BRANCH  20  23
HETATM   23  C   UNL     3      -8.255  17.723  68.648  1.00  0.00    -0.271 C  
HETATM   24  O   UNL     3      -8.606  20.914  67.345  1.00  0.00    -0.244 OA 
HETATM   25  C   UNL     3      -9.983  19.023  67.851  1.00  0.00    -0.358 C  
HETATM   26  C   UNL     3      -9.733  17.895  68.526  1.00  0.00    -0.351 C  
HETATM   27  O   UNL     3     -11.221  19.563  67.585  1.00  0.00    -0.252 OA 
HETATM   28  O   UNL     3      -7.726  19.019  68.318  1.00  0.00    -0.287 OA 
HETATM   29  C   UNL     3      -8.723  19.759  67.720  1.00  0.00    -0.325 C  
HETATM   30  O   UNL     3     -10.414  17.062  69.168  1.00  0.00    -0.320 OA 
HETATM   31  H   UNL     3     -12.038  19.086  67.671  1.00  0.00     0.000 HD 
ENDBRANCH  20  23
ENDBRANCH   7  20
TORSDOF 4
ENDMDL
MODEL       38
REMARK 921   NORMALIZED FREE ENERGY PREDICTED BY IDOCK:   -6.24 KCAL/MOL
REMARK 922        TOTAL FREE ENERGY PREDICTED BY IDOCK:   -9.63 KCAL/MOL
REMARK 923 INTER-LIGAND FREE ENERGY PREDICTED BY IDOCK:   -8.45 KCAL/MOL
REMARK 924 INTRA-LIGAND FREE ENERGY PREDICTED BY IDOCK:   -1.18 KCAL/MOL
REMARK 927      BINDING AFFINITY PREDICTED BY RF-SCORE:    0.00 PKD
ROOT
HETATM    1 CA   UNL     1     -13.100  10.959  69.899  1.00  0.00    -0.296 Ca 
HETATM    2  O   UNL     2      -9.815   4.786  70.170  1.00  0.00    -0.199 OA 
HETATM    3  C   UNL     2     -10.770   5.850  70.084  1.00  0.00    -0.318 C  
HETATM    4  H   UNL     2     -10.291   3.969  70.076  1.00  0.00     0.000 HD 
HETATM    5  O   UNL     3      -9.821  11.143  65.551  1.00  0.00    -0.212 OA 
HETATM    6  H   UNL     3      -8.984  10.870  65.196  1.00  0.00     0.000 HD 
HETATM    7  C   UNL     3      -9.547  12.270  66.432  1.00  0.00    -0.237 C  
ENDROOT
BRANCH   3   8
HETATM    8  C   UNL     2     -10.012   7.148  70.232  1.00  0.00    -0.187 C  
HETATM    9  H   UNL     2      -9.581   8.365  71.713  1.00  0.00     0.000 HD 
HETATM   10  O   UNL     2     -10.057   7.548  71.620  1.00  0.00    -0.180 OA 
BRANCH   8  11
HETATM   11  C   UNL     2     -10.516   8.329  69.375  1.00  0.00    -0.220 C  
HETATM   12  C   UNL     2      -9.874   8.636  68.045  1.00  0.00    -0.169 C  
HETATM   13  O   UNL     2     -10.057   9.472  70.106  1.00  0.00    -0.215 OA 
HETATM   14  O   UNL     2      -7.850  10.082  70.414  1.00  0.00    -0.216 OA 
HETATM   15  H   UNL     2      -7.718   9.418  66.514  1.00  0.00     0.000 HD 
HETATM   16  O   UNL     2     -10.567   8.499  67.001  1.00  0.00    -0.306 OA 
HETATM   17  C   UNL     2      -8.741   9.586  69.761  1.00  0.00    -0.194 C  
HETATM   18  C   UNL     2      -8.671   9.190  68.328  1.00  0.00    -0.129 C  
HETATM   19  O   UNL     2      -7.763   9.670  67.428  1.00  0.00    -0.095 OA 
ENDBRANCH   8  11
ENDBRANCH   3   8
BRANCH   7  20
HETATM   20  C   UNL     3     -10.898  12.711  67.006  1.00  0.00    -0.253 C  
HETATM   21  O   UNL     3     -11.862  11.671  66.847  1.00  0.00    -0.577 OA 
HETATM   22  H   UNL     3     -12.699  11.945  67.203  1.00  0.00     0.000 HD 
BRANCH  20  23
HETATM   23  C   UNL     3     -11.484  14.122  66.717  1.00  0.00    -0.369 C  
HETATM   24  O   UNL     3      -9.658  16.935  65.850  1.00  0.00    -0.469 OA 
HETATM   25  C   UNL     3     -11.346  15.531  64.899  1.00  0.00    -0.335 C  
HETATM   26  C   UNL     3     -12.099  14.559  65.429  1.00  0.00    -0.317 C  
HETATM   27  O   UNL     3     -11.610  16.237  63.747  1.00  0.00    -1.539 OA 
HETATM   28  O   UNL     3     -10.555  15.172  67.033  1.00  0.00    -0.287 OA 
HETATM   29  C   UNL     3     -10.368  15.944  65.907  1.00  0.00    -0.365 C  
HETATM   30  O   UNL     3     -13.216  14.052  65.180  1.00  0.00    -0.768 OA 
HETATM   31  H   UNL     3     -12.246  15.969  63.093  1.00  0.00     0.000 HD 
ENDBRANCH  20  23
ENDBRANCH   7  20
TORSDOF 4
ENDMDL
MODEL       39
REMARK 921   NORMALIZED FREE ENERGY PREDICTED BY IDOCK:   -6.24 KCAL/MOL
REMARK 922        TOTAL FREE ENERGY PREDICTED BY IDOCK:   -9.63 KCAL/MOL
REMARK 923 INTER-LIGAND FREE ENERGY PREDICTED BY IDOCK:   -7.52 KCAL/MOL
REMARK 924 INTRA-LIGAND FREE ENERGY PREDICTED BY IDOCK:   -2.11 KCAL/MOL
REMARK 927      BINDING AFFINITY PREDICTED BY RF-SCORE:    0.00 PKD
ROOT
HETATM    1 CA   UNL     1      -6.880  12.826  66.573  1.00  0.00    -0.346 Ca 
HETATM    2  O   UNL     2     -10.981   7.701  68.998  1.00  0.00    -0.412 OA 
HETATM    3  C   UNL     2      -9.988   8.716  68.811  1.00  0.00    -0.183 C  
HETATM    4  H   UNL     2     -10.875   7.358  69.878  1.00  0.00     0.000 HD 
HETATM    5  O   UNL     3     -11.816  15.132  66.584  1.00  0.00    -0.151 OA 
HETATM    6  H   UNL     3     -12.747  14.978  66.475  1.00  0.00     0.000 HD 
HETATM    7  C   UNL     3     -11.247  15.177  65.244  1.00  0.00    -0.358 C  
ENDROOT
BRANCH   3   8
HETATM    8  C   UNL     2     -10.158   9.261  67.412  1.00  0.00    -0.223 C  
HETATM    9  H   UNL     2      -9.886   8.574  65.592  1.00  0.00     0.000 HD 
HETATM   10  O   UNL     2      -9.779   8.231  66.472  1.00  0.00    -0.225 OA 
BRANCH   8  11
HETATM   11  C   UNL     2      -9.356  10.536  67.079  1.00  0.00    -0.155 C  
HETATM   12  C   UNL     2      -9.254  11.658  68.081  1.00  0.00    -0.184 C  
HETATM   13  O   UNL     2     -10.182  11.188  66.108  1.00  0.00    -0.229 OA 
HETATM   14  O   UNL     2     -12.272  12.092  66.500  1.00  0.00    -0.584 OA 
HETATM   15  H   UNL     2     -10.379  13.666  69.600  1.00  0.00     0.000 HD 
HETATM   16  O   UNL     2      -8.121  11.923  68.569  1.00  0.00    -0.148 OA 
HETATM   17  C   UNL     2     -11.148  11.807  66.848  1.00  0.00    -0.307 C  
HETATM   18  C   UNL     2     -10.462  12.269  68.086  1.00  0.00    -0.217 C  
HETATM   19  O   UNL     2     -10.816  13.371  68.810  1.00  0.00    -0.245 OA 
ENDBRANCH   8  11
ENDBRANCH   3   8
BRANCH   7  20
HETATM   20  C   UNL     3      -9.744  15.425  65.420  1.00  0.00    -0.215 C  
HETATM   21  O   UNL     3      -9.085  14.211  65.776  1.00  0.00    -0.461 OA 
HETATM   22  H   UNL     3      -8.154  14.365  65.884  1.00  0.00     0.000 HD 
BRANCH  20  23
HETATM   23  C   UNL     3      -9.208  16.653  66.207  1.00  0.00    -0.294 C  
HETATM   24  O   UNL     3     -10.841  19.683  66.592  1.00  0.00    -0.462 OA 
HETATM   25  C   UNL     3     -10.060  17.882  67.960  1.00  0.00    -0.358 C  
HETATM   26  C   UNL     3      -9.276  16.832  67.687  1.00  0.00    -0.223 C  
HETATM   27  O   UNL     3     -10.324  18.407  69.205  1.00  0.00    -0.477 OA 
HETATM   28  O   UNL     3      -9.706  17.896  65.683  1.00  0.00    -0.487 OA 
HETATM   29  C   UNL     3     -10.334  18.579  66.702  1.00  0.00    -0.408 C  
HETATM   30  O   UNL     3      -8.513  16.087  68.343  1.00  0.00    -0.168 OA 
HETATM   31  H   UNL     3     -10.146  17.954  70.021  1.00  0.00     0.000 HD 
ENDBRANCH  20  23
ENDBRANCH   7  20
TORSDOF 4
ENDMDL
MODEL       40
REMARK 921   NORMALIZED FREE ENERGY PREDICTED BY IDOCK:   -6.22 KCAL/MOL
REMARK 922        TOTAL FREE ENERGY PREDICTED BY IDOCK:   -9.60 KCAL/MOL
REMARK 923 INTER-LIGAND FREE ENERGY PREDICTED BY IDOCK:   -7.75 KCAL/MOL
REMARK 924 INTRA-LIGAND FREE ENERGY PREDICTED BY IDOCK:   -1.85 KCAL/MOL
REMARK 927      BINDING AFFINITY PREDICTED BY RF-SCORE:    0.00 PKD
ROOT
HETATM    1 CA   UNL     1     -13.105  15.746  69.079  1.00  0.00    -0.575 Ca 
HETATM    2  O   UNL     2      -8.403  20.599  67.262  1.00  0.00    -0.430 OA 
HETATM    3  C   UNL     2      -9.395  19.802  67.920  1.00  0.00    -0.344 C  
HETATM    4  H   UNL     2      -8.180  21.313  67.848  1.00  0.00     0.000 HD 
HETATM    5  O   UNL     3      -8.508  12.859  68.613  1.00  0.00    -0.327 OA 
HETATM    6  H   UNL     3      -7.682  12.780  68.150  1.00  0.00     0.000 HD 
HETATM    7  C   UNL     3      -9.529  12.319  67.727  1.00  0.00    -0.197 C  
ENDROOT
BRANCH   3   8
HETATM    8  C   UNL     2      -9.750  18.667  66.988  1.00  0.00    -0.308 C  
HETATM    9  H   UNL     2     -10.760  18.484  65.314  1.00  0.00     0.000 HD 
HETATM   10  O   UNL     2     -10.537  19.198  65.899  1.00  0.00    -0.480 OA 
BRANCH   8  11
HETATM   11  C   UNL     2     -10.529  17.492  67.617  1.00  0.00    -0.370 C  
HETATM   12  C   UNL     2     -10.115  16.929  68.953  1.00  0.00    -0.297 C  
HETATM   13  O   UNL     2     -10.156  16.384  66.790  1.00  0.00    -0.267 OA 
HETATM   14  O   UNL     2      -8.043  15.460  66.640  1.00  0.00    -0.225 OA 
HETATM   15  H   UNL     2      -8.314  15.628  70.586  1.00  0.00     0.000 HD 
HETATM   16  O   UNL     2     -10.908  17.053  69.925  1.00  0.00    -0.177 OA 
HETATM   17  C   UNL     2      -8.927  16.014  67.255  1.00  0.00    -0.197 C  
HETATM   18  C   UNL     2      -8.982  16.221  68.728  1.00  0.00    -0.243 C  
HETATM   19  O   UNL     2      -8.278  15.496  69.646  1.00  0.00    -0.230 OA 
ENDBRANCH   8  11
ENDBRANCH   3   8
BRANCH   7  20
HETATM   20  C   UNL     3     -10.863  12.445  68.472  1.00  0.00    -0.242 C  
HETATM   21  O   UNL     3     -10.804  13.526  69.401  1.00  0.00    -0.432 OA 
HETATM   22  H   UNL     3     -11.630  13.605  69.863  1.00  0.00     0.000 HD 
BRANCH  20  23
HETATM   23  C   UNL     3     -11.597  11.201  69.045  1.00  0.00    -0.324 C  
HETATM   24  O   UNL     3     -10.198   8.070  69.533  1.00  0.00    -0.199 OA 
HETATM   25  C   UNL     3     -11.172   9.821  70.841  1.00  0.00    -0.359 C  
HETATM   26  C   UNL     3     -11.841  10.926  70.492  1.00  0.00    -0.360 C  
HETATM   27  O   UNL     3     -11.189   9.206  72.072  1.00  0.00    -0.364 OA 
HETATM   28  O   UNL     3     -11.051   9.969  68.544  1.00  0.00    -0.223 OA 
HETATM   29  C   UNL     3     -10.673   9.191  69.617  1.00  0.00    -0.225 C  
HETATM   30  O   UNL     3     -12.693  11.669  71.032  1.00  0.00    -0.356 OA 
HETATM   31  H   UNL     3     -11.513   9.615  72.866  1.00  0.00     0.000 HD 
ENDBRANCH  20  23
ENDBRANCH   7  20
TORSDOF 4
ENDMDL
MODEL       41
REMARK 921   NORMALIZED FREE ENERGY PREDICTED BY IDOCK:   -6.21 KCAL/MOL
REMARK 922        TOTAL FREE ENERGY PREDICTED BY IDOCK:   -9.59 KCAL/MOL
REMARK 923 INTER-LIGAND FREE ENERGY PREDICTED BY IDOCK:   -8.28 KCAL/MOL
REMARK 924 INTRA-LIGAND FREE ENERGY PREDICTED BY IDOCK:   -1.31 KCAL/MOL
REMARK 927      BINDING AFFINITY PREDICTED BY RF-SCORE:    0.00 PKD
ROOT
HETATM    1 CA   UNL     1      -9.930   7.567  65.345  1.00  0.00    -0.391 Ca 
HETATM    2  O   UNL     2     -12.428  13.704  63.094  1.00  0.00    -1.033 OA 
HETATM    3  C   UNL     2     -12.239  12.339  63.483  1.00  0.00    -0.568 C  
HETATM    4  H   UNL     2     -13.337  13.801  62.834  1.00  0.00     0.000 HD 
HETATM    5  O   UNL     3      -9.399  10.767  69.723  1.00  0.00    -0.387 OA 
HETATM    6  H   UNL     3      -9.234  11.652  70.024  1.00  0.00     0.000 HD 
HETATM    7  C   UNL     3      -8.106  10.209  69.352  1.00  0.00    -0.160 C  
ENDROOT
BRANCH   3   8
HETATM    8  C   UNL     2     -10.794  12.185  63.896  1.00  0.00    -0.406 C  
HETATM    9  H   UNL     2      -9.317  10.977  63.426  1.00  0.00     0.000 HD 
HETATM   10  O   UNL     2     -10.226  11.075  63.166  1.00  0.00    -0.328 OA 
BRANCH   8  11
HETATM   11  C   UNL     2     -10.539  11.952  65.400  1.00  0.00    -0.271 C  
HETATM   12  C   UNL     2     -11.510  12.475  66.429  1.00  0.00    -0.365 C  
HETATM   13  O   UNL     2      -9.439  12.825  65.677  1.00  0.00    -0.111 OA 
HETATM   14  O   UNL     2      -9.497  15.134  65.609  1.00  0.00    -0.307 OA 
HETATM   15  H   UNL     2     -12.785  14.544  67.730  1.00  0.00     0.000 HD 
HETATM   16  O   UNL     2     -12.147  11.642  67.128  1.00  0.00    -0.575 OA 
HETATM   17  C   UNL     2     -10.012  14.058  65.810  1.00  0.00    -0.298 C  
HETATM   18  C   UNL     2     -11.321  13.815  66.477  1.00  0.00    -0.325 C  
HETATM   19  O   UNL     2     -11.951  14.699  67.305  1.00  0.00    -0.391 OA 
ENDBRANCH   8  11
ENDBRANCH   3   8
BRANCH   7  20
HETATM   20  C   UNL     3      -8.373   8.780  68.865  1.00  0.00    -0.127 C  
HETATM   21  O   UNL     3      -8.916   8.805  67.547  1.00  0.00    -0.133 OA 
HETATM   22  H   UNL     3      -9.081   7.920  67.245  1.00  0.00     0.000 HD 
BRANCH  20  23
HETATM   23  C   UNL     3      -9.057   7.724  69.777  1.00  0.00    -0.147 C  
HETATM   24  O   UNL     3     -11.030   8.407  72.541  1.00  0.00    -0.356 OA 
HETATM   25  C   UNL     3     -11.249   7.374  70.394  1.00  0.00    -0.262 C  
HETATM   26  C   UNL     3     -10.338   7.020  69.479  1.00  0.00    -0.213 C  
HETATM   27  O   UNL     3     -12.535   6.894  70.500  1.00  0.00    -0.601 OA 
HETATM   28  O   UNL     3      -9.224   8.195  71.125  1.00  0.00    -0.144 OA 
HETATM   29  C   UNL     3     -10.559   8.110  71.456  1.00  0.00    -0.228 C  
HETATM   30  O   UNL     3     -10.272   6.172  68.559  1.00  0.00    -0.155 OA 
HETATM   31  H   UNL     3     -12.982   6.416  69.812  1.00  0.00     0.000 HD 
ENDBRANCH  20  23
ENDBRANCH   7  20
TORSDOF 4
ENDMDL
MODEL       42
REMARK 921   NORMALIZED FREE ENERGY PREDICTED BY IDOCK:   -6.21 KCAL/MOL
REMARK 922        TOTAL FREE ENERGY PREDICTED BY IDOCK:   -9.59 KCAL/MOL
REMARK 923 INTER-LIGAND FREE ENERGY PREDICTED BY IDOCK:   -8.08 KCAL/MOL
REMARK 924 INTRA-LIGAND FREE ENERGY PREDICTED BY IDOCK:   -1.51 KCAL/MOL
REMARK 927      BINDING AFFINITY PREDICTED BY RF-SCORE:    0.00 PKD
ROOT
HETATM    1 CA   UNL     1      -8.183  13.933  67.180  1.00  0.00    -0.130 Ca 
HETATM    2  O   UNL     2      -7.276  20.682  65.566  1.00  0.00    -0.510 OA 
HETATM    3  C   UNL     2      -7.147  19.268  65.754  1.00  0.00    -0.279 C  
HETATM    4  H   UNL     2      -6.501  20.979  65.105  1.00  0.00     0.000 HD 
HETATM    5  O   UNL     3     -12.289  14.915  63.735  1.00  0.00    -1.022 OA 
HETATM    6  H   UNL     3     -12.906  15.567  63.426  1.00  0.00     0.000 HD 
HETATM    7  C   UNL     3     -12.808  14.426  65.005  1.00  0.00    -0.107 C  
ENDROOT
BRANCH   3   8
HETATM    8  C   UNL     2      -8.381  18.796  66.486  1.00  0.00    -0.297 C  
HETATM    9  H   UNL     2     -10.318  19.065  66.298  1.00  0.00     0.000 HD 
HETATM   10  O   UNL     2      -9.542  19.361  65.837  1.00  0.00    -0.410 OA 
BRANCH   8  11
HETATM   11  C   UNL     2      -8.453  19.145  67.988  1.00  0.00    -0.309 C  
HETATM   12  C   UNL     2      -7.202  19.153  68.831  1.00  0.00    -0.341 C  
HETATM   13  O   UNL     2      -9.087  17.992  68.553  1.00  0.00    -0.283 OA 
HETATM   14  O   UNL     2      -8.186  15.867  68.653  1.00  0.00    -0.160 OA 
HETATM   15  H   UNL     2      -5.053  17.878  69.996  1.00  0.00     0.000 HD 
HETATM   16  O   UNL     2      -6.815  20.250  69.316  1.00  0.00    -0.225 OA 
HETATM   17  C   UNL     2      -8.083  17.073  68.660  1.00  0.00    -0.254 C  
HETATM   18  C   UNL     2      -6.868  17.854  69.020  1.00  0.00    -0.242 C  
HETATM   19  O   UNL     2      -5.828  17.380  69.766  1.00  0.00    -0.223 OA 
ENDBRANCH   8  11
ENDBRANCH   3   8
BRANCH   7  20
HETATM   20  C   UNL     3     -11.812  13.373  65.505  1.00  0.00    -0.363 C  
HETATM   21  O   UNL     3     -12.338  12.064  65.297  1.00  0.00    -0.442 OA 
HETATM   22  H   UNL     3     -11.721  11.411  65.607  1.00  0.00     0.000 HD 
BRANCH  20  23
HETATM   23  C   UNL     3     -11.091  13.520  66.873  1.00  0.00    -0.296 C  
HETATM   24  O   UNL     3     -11.715  15.972  69.240  1.00  0.00    -0.350 OA 
HETATM   25  C   UNL     3     -11.855  13.591  69.047  1.00  0.00    -0.343 C  
HETATM   26  C   UNL     3     -11.408  12.746  68.110  1.00  0.00    -0.288 C  
HETATM   27  O   UNL     3     -12.193  13.274  70.343  1.00  0.00    -0.346 OA 
HETATM   28  O   UNL     3     -11.045  14.886  67.321  1.00  0.00    -0.317 OA 
HETATM   29  C   UNL     3     -11.621  14.956  68.571  1.00  0.00    -0.323 C  
HETATM   30  O   UNL     3     -11.078  11.538  68.073  1.00  0.00    -0.218 OA 
HETATM   31  H   UNL     3     -12.345  12.388  70.651  1.00  0.00     0.000 HD 
ENDBRANCH  20  23
ENDBRANCH   7  20
TORSDOF 4
ENDMDL
MODEL       43
REMARK 921   NORMALIZED FREE ENERGY PREDICTED BY IDOCK:   -6.21 KCAL/MOL
REMARK 922        TOTAL FREE ENERGY PREDICTED BY IDOCK:   -9.59 KCAL/MOL
REMARK 923 INTER-LIGAND FREE ENERGY PREDICTED BY IDOCK:   -8.26 KCAL/MOL
REMARK 924 INTRA-LIGAND FREE ENERGY PREDICTED BY IDOCK:   -1.32 KCAL/MOL
REMARK 927      BINDING AFFINITY PREDICTED BY RF-SCORE:    0.00 PKD
ROOT
HETATM    1 CA   UNL     1      -8.385  12.708  67.174  1.00  0.00    -0.136 Ca 
HETATM    2  O   UNL     2     -11.403   7.007  69.887  1.00  0.00    -0.399 OA 
HETATM    3  C   UNL     2     -10.796   8.284  69.661  1.00  0.00    -0.150 C  
HETATM    4  H   UNL     2     -11.633   6.961  70.808  1.00  0.00     0.000 HD 
HETATM    5  O   UNL     3     -13.157  12.504  64.553  1.00  0.00    -0.816 OA 
HETATM    6  H   UNL     3     -13.828  11.931  64.202  1.00  0.00     0.000 HD 
HETATM    7  C   UNL     3     -12.060  12.487  63.595  1.00  0.00    -0.554 C  
ENDROOT
BRANCH   3   8
HETATM    8  C   UNL     2     -10.431   8.356  68.197  1.00  0.00    -0.174 C  
HETATM    9  H   UNL     2      -9.710   7.107  66.864  1.00  0.00     0.000 HD 
HETATM   10  O   UNL     2      -9.940   7.062  67.784  1.00  0.00    -0.140 OA 
BRANCH   8  11
HETATM   11  C   UNL     2      -9.377   9.416  67.812  1.00  0.00    -0.128 C  
HETATM   12  C   UNL     2      -9.131  10.608  68.703  1.00  0.00    -0.170 C  
HETATM   13  O   UNL     2      -9.993  10.093  66.711  1.00  0.00    -0.193 OA 
HETATM   14  O   UNL     2     -11.892  11.404  66.822  1.00  0.00    -0.443 OA 
HETATM   15  H   UNL     2      -9.952  12.948  69.908  1.00  0.00     0.000 HD 
HETATM   16  O   UNL     2      -8.006  10.714  69.263  1.00  0.00    -0.147 OA 
HETATM   17  C   UNL     2     -10.871  10.960  67.296  1.00  0.00    -0.287 C  
HETATM   18  C   UNL     2     -10.197  11.426  68.539  1.00  0.00    -0.208 C  
HETATM   19  O   UNL     2     -10.382  12.650  69.115  1.00  0.00    -0.006 OA 
ENDBRANCH   8  11
ENDBRANCH   3   8
BRANCH   7  20
HETATM   20  C   UNL     3     -10.976  13.412  64.161  1.00  0.00    -0.304 C  
HETATM   21  O   UNL     3      -9.875  12.641  64.640  1.00  0.00    -0.498 OA 
HETATM   22  H   UNL     3      -9.203  13.214  64.990  1.00  0.00     0.000 HD 
BRANCH  20  23
HETATM   23  C   UNL     3     -11.328  14.602  65.096  1.00  0.00    -0.375 C  
HETATM   24  O   UNL     3      -9.472  15.649  67.828  1.00  0.00    -0.206 OA 
HETATM   25  C   UNL     3     -10.180  16.505  65.708  1.00  0.00    -0.329 C  
HETATM   26  C   UNL     3     -11.057  16.042  64.809  1.00  0.00    -0.365 C  
HETATM   27  O   UNL     3      -9.725  17.799  65.818  1.00  0.00    -0.534 OA 
HETATM   28  O   UNL     3     -10.825  14.414  66.430  1.00  0.00    -0.304 OA 
HETATM   29  C   UNL     3     -10.029  15.491  66.753  1.00  0.00    -0.249 C  
HETATM   30  O   UNL     3     -11.774  16.543  63.912  1.00  0.00    -1.148 OA 
HETATM   31  H   UNL     3      -9.823  18.457  65.140  1.00  0.00     0.000 HD 
ENDBRANCH  20  23
ENDBRANCH   7  20
TORSDOF 4
ENDMDL
MODEL       44
REMARK 921   NORMALIZED FREE ENERGY PREDICTED BY IDOCK:   -6.18 KCAL/MOL
REMARK 922        TOTAL FREE ENERGY PREDICTED BY IDOCK:   -9.55 KCAL/MOL
REMARK 923 INTER-LIGAND FREE ENERGY PREDICTED BY IDOCK:   -8.14 KCAL/MOL
REMARK 924 INTRA-LIGAND FREE ENERGY PREDICTED BY IDOCK:   -1.40 KCAL/MOL
REMARK 927      BINDING AFFINITY PREDICTED BY RF-SCORE:    0.00 PKD
ROOT
HETATM    1 CA   UNL     1     -10.895  13.512  70.811  1.00  0.00    -0.429 Ca 
HETATM    2  O   UNL     2     -14.092   7.423  72.107  1.00  0.00    -0.554 OA 
HETATM    3  C   UNL     2     -13.756   8.799  71.895  1.00  0.00    -0.433 C  
HETATM    4  H   UNL     2     -15.028   7.382  72.268  1.00  0.00     0.000 HD 
HETATM    5  O   UNL     3     -10.174  10.756  66.166  1.00  0.00    -0.237 OA 
HETATM    6  H   UNL     3     -10.050   9.896  65.783  1.00  0.00     0.000 HD 
HETATM    7  C   UNL     3      -8.886  11.152  66.717  1.00  0.00    -0.161 C  
ENDROOT
BRANCH   3   8
HETATM    8  C   UNL     2     -12.268   8.864  71.639  1.00  0.00    -0.343 C  
HETATM    9  H   UNL     2     -10.652   8.248  72.570  1.00  0.00     0.000 HD 
HETATM   10  O   UNL     2     -11.587   8.207  72.730  1.00  0.00    -0.411 OA 
BRANCH   8  11
HETATM   11  C   UNL     2     -11.669  10.278  71.480  1.00  0.00    -0.119 C  
HETATM   12  C   UNL     2     -12.326  11.289  70.575  1.00  0.00    -0.356 C  
HETATM   13  O   UNL     2     -10.485  10.037  70.711  1.00  0.00    -0.257 OA 
HETATM   14  O   UNL     2     -10.422   9.301  68.522  1.00  0.00    -0.205 OA 
HETATM   15  H   UNL     2     -13.122  12.161  68.083  1.00  0.00     0.000 HD 
HETATM   16  O   UNL     2     -12.822  12.325  71.097  1.00  0.00    -0.319 OA 
HETATM   17  C   UNL     2     -10.934   9.920  69.427  1.00  0.00    -0.230 C  
HETATM   18  C   UNL     2     -12.053  10.895  69.309  1.00  0.00    -0.261 C  
HETATM   19  O   UNL     2     -12.409  11.539  68.159  1.00  0.00    -0.473 OA 
ENDBRANCH   8  11
ENDBRANCH   3   8
BRANCH   7  20
HETATM   20  C   UNL     3      -9.086  12.540  67.336  1.00  0.00    -0.185 C  
HETATM   21  O   UNL     3      -8.881  12.482  68.747  1.00  0.00    -0.381 OA 
HETATM   22  H   UNL     3      -9.005  13.342  69.130  1.00  0.00     0.000 HD 
BRANCH  20  23
HETATM   23  C   UNL     3     -10.288  13.442  66.941  1.00  0.00    -0.257 C  
HETATM   24  O   UNL     3     -10.947  16.604  68.194  1.00  0.00    -0.352 OA 
HETATM   25  C   UNL     3     -10.428  15.580  66.094  1.00  0.00    -0.313 C  
HETATM   26  C   UNL     3     -10.367  14.296  65.719  1.00  0.00    -0.327 C  
HETATM   27  O   UNL     3     -10.572  16.670  65.265  1.00  0.00    -0.596 OA 
HETATM   28  O   UNL     3     -10.683  14.322  68.007  1.00  0.00    -0.233 OA 
HETATM   29  C   UNL     3     -10.642  15.618  67.542  1.00  0.00    -0.297 C  
HETATM   30  O   UNL     3     -10.495  13.667  64.644  1.00  0.00    -0.411 OA 
HETATM   31  H   UNL     3     -10.434  16.645  64.325  1.00  0.00     0.000 HD 
ENDBRANCH  20  23
ENDBRANCH   7  20
TORSDOF 4
ENDMDL
MODEL       45
REMARK 921   NORMALIZED FREE ENERGY PREDICTED BY IDOCK:   -6.16 KCAL/MOL
REMARK 922        TOTAL FREE ENERGY PREDICTED BY IDOCK:   -9.53 KCAL/MOL
REMARK 923 INTER-LIGAND FREE ENERGY PREDICTED BY IDOCK:   -8.10 KCAL/MOL
REMARK 924 INTRA-LIGAND FREE ENERGY PREDICTED BY IDOCK:   -1.43 KCAL/MOL
REMARK 927      BINDING AFFINITY PREDICTED BY RF-SCORE:    0.00 PKD
ROOT
HETATM    1 CA   UNL     1     -11.258   8.452  67.347  1.00  0.00    -0.402 Ca 
HETATM    2  O   UNL     2      -6.574   7.334  72.425  1.00  0.00    -0.051 OA 
HETATM    3  C   UNL     2      -7.293   7.406  71.189  1.00  0.00    -0.072 C  
HETATM    4  H   UNL     2      -5.732   6.936  72.240  1.00  0.00     0.000 HD 
HETATM    5  O   UNL     3     -10.057  13.498  69.016  1.00  0.00    -0.420 OA 
HETATM    6  H   UNL     3      -9.810  14.033  69.760  1.00  0.00     0.000 HD 
HETATM    7  C   UNL     3     -11.489  13.259  69.138  1.00  0.00    -0.305 C  
ENDROOT
BRANCH   3   8
HETATM    8  C   UNL     2      -8.633   8.040  71.483  1.00  0.00    -0.128 C  
HETATM    9  H   UNL     2      -9.312   9.361  72.769  1.00  0.00     0.000 HD 
HETATM   10  O   UNL     2      -8.470   8.963  72.583  1.00  0.00    -0.388 OA 
BRANCH   8  11
HETATM   11  C   UNL     2      -9.780   7.069  71.836  1.00  0.00    -0.157 C  
HETATM   12  C   UNL     2     -10.324   6.120  70.798  1.00  0.00    -0.213 C  
HETATM   13  O   UNL     2     -10.911   7.939  71.949  1.00  0.00    -0.237 OA 
HETATM   14  O   UNL     2     -11.879   9.127  70.219  1.00  0.00    -0.113 OA 
HETATM   15  H   UNL     2     -11.627   5.610  68.422  1.00  0.00     0.000 HD 
HETATM   16  O   UNL     2     -10.165   4.882  70.978  1.00  0.00    -0.217 OA 
HETATM   17  C   UNL     2     -11.295   8.162  70.657  1.00  0.00    -0.249 C  
HETATM   18  C   UNL     2     -11.058   6.875  69.946  1.00  0.00    -0.288 C  
HETATM   19  O   UNL     2     -11.778   6.430  68.876  1.00  0.00    -0.096 OA 
ENDBRANCH   8  11
ENDBRANCH   3   8
BRANCH   7  20
HETATM   20  C   UNL     3     -11.889  12.395  67.936  1.00  0.00    -0.308 C  
HETATM   21  O   UNL     3     -11.794  11.012  68.273  1.00  0.00    -0.553 OA 
HETATM   22  H   UNL     3     -12.042  10.477  67.529  1.00  0.00     0.000 HD 
BRANCH  20  23
HETATM   23  C   UNL     3     -11.368  12.701  66.504  1.00  0.00    -0.326 C  
HETATM   24  O   UNL     3     -13.067  12.068  63.552  1.00  0.00    -0.764 OA 
HETATM   25  C   UNL     3     -12.218  13.949  64.763  1.00  0.00    -0.415 C  
HETATM   26  C   UNL     3     -11.413  14.032  65.830  1.00  0.00    -0.330 C  
HETATM   27  O   UNL     3     -12.471  14.946  63.848  1.00  0.00    -1.009 OA 
HETATM   28  O   UNL     3     -11.906  11.797  65.524  1.00  0.00    -0.308 OA 
HETATM   29  C   UNL     3     -12.531  12.536  64.544  1.00  0.00    -0.459 C  
HETATM   30  O   UNL     3     -10.620  14.883  66.293  1.00  0.00    -0.292 OA 
HETATM   31  H   UNL     3     -12.267  15.863  63.991  1.00  0.00     0.000 HD 
ENDBRANCH  20  23
ENDBRANCH   7  20
TORSDOF 4
ENDMDL
MODEL       46
REMARK 921   NORMALIZED FREE ENERGY PREDICTED BY IDOCK:   -6.08 KCAL/MOL
REMARK 922        TOTAL FREE ENERGY PREDICTED BY IDOCK:   -9.43 KCAL/MOL
REMARK 923 INTER-LIGAND FREE ENERGY PREDICTED BY IDOCK:   -8.08 KCAL/MOL
REMARK 924 INTRA-LIGAND FREE ENERGY PREDICTED BY IDOCK:   -1.35 KCAL/MOL
REMARK 927      BINDING AFFINITY PREDICTED BY RF-SCORE:    0.00 PKD
ROOT
HETATM    1 CA   UNL     1      -7.655  14.436  66.009  1.00  0.00    -0.035 Ca 
HETATM    2  O   UNL     2      -9.685  21.083  66.825  1.00  0.00    -0.608 OA 
HETATM    3  C   UNL     2      -9.007  19.868  66.483  1.00  0.00    -0.366 C  
HETATM    4  H   UNL     2      -9.203  21.798  66.428  1.00  0.00     0.000 HD 
HETATM    5  O   UNL     3     -12.518  14.524  63.554  1.00  0.00    -1.089 OA 
HETATM    6  H   UNL     3     -13.385  14.912  63.558  1.00  0.00     0.000 HD 
HETATM    7  C   UNL     3     -12.510  13.522  64.610  1.00  0.00    -0.323 C  
ENDROOT
BRANCH   3   8
HETATM    8  C   UNL     2      -9.775  18.731  67.115  1.00  0.00    -0.301 C  
HETATM    9  H   UNL     2     -11.629  18.434  67.692  1.00  0.00     0.000 HD 
HETATM   10  O   UNL     2     -11.147  19.149  67.294  1.00  0.00    -0.417 OA 
BRANCH   8  11
HETATM   11  C   UNL     2      -9.244  18.227  68.475  1.00  0.00    -0.318 C  
HETATM   12  C   UNL     2      -7.831  17.718  68.601  1.00  0.00    -0.278 C  
HETATM   13  O   UNL     2      -9.938  16.986  68.648  1.00  0.00    -0.262 OA 
HETATM   14  O   UNL     2      -9.659  15.091  67.355  1.00  0.00    -0.203 OA 
HETATM   15  H   UNL     2      -5.840  15.907  68.000  1.00  0.00     0.000 HD 
HETATM   16  O   UNL     2      -7.025  18.365  69.324  1.00  0.00    -0.255 OA 
HETATM   17  C   UNL     2      -9.241  16.101  67.877  1.00  0.00    -0.200 C  
HETATM   18  C   UNL     2      -7.814  16.503  68.003  1.00  0.00    -0.157 C  
HETATM   19  O   UNL     2      -6.751  15.650  67.920  1.00  0.00    -0.123 OA 
ENDBRANCH   8  11
ENDBRANCH   3   8
BRANCH   7  20
HETATM   20  C   UNL     3     -11.111  12.895  64.604  1.00  0.00    -0.324 C  
HETATM   21  O   UNL     3     -10.690  12.650  63.263  1.00  0.00    -0.537 OA 
HETATM   22  H   UNL     3      -9.823  12.262  63.259  1.00  0.00     0.000 HD 
BRANCH  20  23
HETATM   23  C   UNL     3     -10.731  11.742  65.573  1.00  0.00    -0.279 C  
HETATM   24  O   UNL     3      -7.567  11.117  66.838  1.00  0.00    -0.130 OA 
HETATM   25  C   UNL     3      -9.738  11.707  67.653  1.00  0.00    -0.180 C  
HETATM   26  C   UNL     3     -10.934  11.748  67.052  1.00  0.00    -0.285 C  
HETATM   27  O   UNL     3      -9.502  11.637  69.007  1.00  0.00    -0.406 OA 
HETATM   28  O   UNL     3      -9.366  11.322  65.411  1.00  0.00    -0.216 OA 
HETATM   29  C   UNL     3      -8.729  11.424  66.629  1.00  0.00    -0.178 C  
HETATM   30  O   UNL     3     -12.127  11.655  67.420  1.00  0.00    -0.605 OA 
HETATM   31  H   UNL     3     -10.157  11.820  69.670  1.00  0.00     0.000 HD 
ENDBRANCH  20  23
ENDBRANCH   7  20
TORSDOF 4
ENDMDL
MODEL       47
REMARK 921   NORMALIZED FREE ENERGY PREDICTED BY IDOCK:   -6.07 KCAL/MOL
REMARK 922        TOTAL FREE ENERGY PREDICTED BY IDOCK:   -9.41 KCAL/MOL
REMARK 923 INTER-LIGAND FREE ENERGY PREDICTED BY IDOCK:   -8.17 KCAL/MOL
REMARK 924 INTRA-LIGAND FREE ENERGY PREDICTED BY IDOCK:   -1.25 KCAL/MOL
REMARK 927      BINDING AFFINITY PREDICTED BY RF-SCORE:    0.00 PKD
ROOT
HETATM    1 CA   UNL     1      -8.090  10.199  68.553  1.00  0.00    -0.089 Ca 
HETATM    2  O   UNL     2     -10.686   7.136  74.284  1.00  0.00    -0.540 OA 
HETATM    3  C   UNL     2      -9.855   7.737  73.285  1.00  0.00    -0.299 C  
HETATM    4  H   UNL     2     -10.133   6.937  75.031  1.00  0.00     0.000 HD 
HETATM    5  O   UNL     3     -11.622  13.908  70.410  1.00  0.00    -0.474 OA 
HETATM    6  H   UNL     3     -12.446  14.040  70.865  1.00  0.00     0.000 HD 
HETATM    7  C   UNL     3     -11.961  13.537  69.044  1.00  0.00    -0.335 C  
ENDROOT
BRANCH   3   8
HETATM    8  C   UNL     2     -10.735   8.054  72.098  1.00  0.00    -0.276 C  
HETATM    9  H   UNL     2     -12.656   8.349  71.810  1.00  0.00     0.000 HD 
HETATM   10  O   UNL     2     -12.102   8.150  72.556  1.00  0.00    -0.365 OA 
BRANCH   8  11
HETATM   11  C   UNL     2     -10.689   7.046  70.931  1.00  0.00    -0.235 C  
HETATM   12  C   UNL     2      -9.380   6.715  70.259  1.00  0.00    -0.159 C  
HETATM   13  O   UNL     2     -11.305   7.770  69.860  1.00  0.00    -0.139 OA 
HETATM   14  O   UNL     2     -10.444   9.651  68.830  1.00  0.00    -0.203 OA 
HETATM   15  H   UNL     2      -7.178   7.416  68.755  1.00  0.00     0.000 HD 
HETATM   16  O   UNL     2      -8.934   5.539  70.364  1.00  0.00    -0.134 OA 
HETATM   17  C   UNL     2     -10.315   8.586  69.392  1.00  0.00    -0.215 C  
HETATM   18  C   UNL     2      -9.060   7.793  69.505  1.00  0.00    -0.146 C  
HETATM   19  O   UNL     2      -7.978   7.922  68.683  1.00  0.00    -0.120 OA 
ENDBRANCH   8  11
ENDBRANCH   3   8
BRANCH   7  20
HETATM   20  C   UNL     3     -10.632  13.325  68.309  1.00  0.00    -0.251 C  
HETATM   21  O   UNL     3      -9.632  14.188  68.847  1.00  0.00    -0.351 OA 
HETATM   22  H   UNL     3      -8.808  14.057  68.393  1.00  0.00     0.000 HD 
BRANCH  20  23
HETATM   23  C   UNL     3     -10.565  13.220  66.761  1.00  0.00    -0.276 C  
HETATM   24  O   UNL     3     -13.240  12.574  64.656  1.00  0.00    -0.848 OA 
HETATM   25  C   UNL     3     -11.668  14.330  65.068  1.00  0.00    -0.383 C  
HETATM   26  C   UNL     3     -10.556  14.373  65.812  1.00  0.00    -0.318 C  
HETATM   27  O   UNL     3     -11.999  15.182  64.039  1.00  0.00    -0.848 OA 
HETATM   28  O   UNL     3     -11.572  12.343  66.230  1.00  0.00    -0.357 OA 
HETATM   29  C   UNL     3     -12.321  13.042  65.309  1.00  0.00    -0.486 C  
HETATM   30  O   UNL     3      -9.496  15.041  65.806  1.00  0.00    -0.319 OA 
HETATM   31  H   UNL     3     -11.575  16.018  63.883  1.00  0.00     0.000 HD 
ENDBRANCH  20  23
ENDBRANCH   7  20
TORSDOF 4
ENDMDL
MODEL       48
REMARK 921   NORMALIZED FREE ENERGY PREDICTED BY IDOCK:   -6.07 KCAL/MOL
REMARK 922        TOTAL FREE ENERGY PREDICTED BY IDOCK:   -9.41 KCAL/MOL
REMARK 923 INTER-LIGAND FREE ENERGY PREDICTED BY IDOCK:   -8.70 KCAL/MOL
REMARK 924 INTRA-LIGAND FREE ENERGY PREDICTED BY IDOCK:   -0.72 KCAL/MOL
REMARK 927      BINDING AFFINITY PREDICTED BY RF-SCORE:    0.00 PKD
ROOT
HETATM    1 CA   UNL     1     -12.756  11.693  71.168  1.00  0.00    -0.283 Ca 
HETATM    2  O   UNL     2     -10.556  17.302  67.609  1.00  0.00    -0.358 OA 
HETATM    3  C   UNL     2     -11.072  16.389  68.584  1.00  0.00    -0.352 C  
HETATM    4  H   UNL     2     -10.550  18.166  68.004  1.00  0.00     0.000 HD 
HETATM    5  O   UNL     3      -7.505  10.562  70.255  1.00  0.00    -0.430 OA 
HETATM    6  H   UNL     3      -6.779  10.668  69.651  1.00  0.00     0.000 HD 
HETATM    7  C   UNL     3      -8.345   9.507  69.707  1.00  0.00    -0.164 C  
ENDROOT
BRANCH   3   8
HETATM    8  C   UNL     2     -11.080  15.016  67.955  1.00  0.00    -0.300 C  
HETATM    9  H   UNL     2     -10.520  13.214  68.502  1.00  0.00     0.000 HD 
HETATM   10  O   UNL     2     -10.515  14.078  68.898  1.00  0.00    -0.236 OA 
BRANCH   8  11
HETATM   11  C   UNL     2     -10.317  14.876  66.621  1.00  0.00    -0.283 C  
HETATM   12  C   UNL     2     -10.947  15.335  65.330  1.00  0.00    -0.393 C  
HETATM   13  O   UNL     2     -10.344  13.464  66.385  1.00  0.00    -0.277 OA 
HETATM   14  O   UNL     2     -12.228  12.205  65.930  1.00  0.00    -0.604 OA 
HETATM   15  H   UNL     2     -12.885  15.158  63.377  1.00  0.00     0.000 HD 
HETATM   16  O   UNL     2     -10.418  16.303  64.718  1.00  0.00    -0.607 OA 
HETATM   17  C   UNL     2     -11.588  13.231  65.872  1.00  0.00    -0.347 C  
HETATM   18  C   UNL     2     -11.896  14.418  65.027  1.00  0.00    -0.400 C  
HETATM   19  O   UNL     2     -12.689  14.401  63.916  1.00  0.00    -0.771 OA 
ENDBRANCH   8  11
ENDBRANCH   3   8
BRANCH   7  20
HETATM   20  C   UNL     3      -9.517   9.335  70.681  1.00  0.00    -0.272 C  
HETATM   21  O   UNL     3      -9.027   9.075  71.995  1.00  0.00    -0.374 OA 
HETATM   22  H   UNL     3      -9.752   8.968  72.599  1.00  0.00     0.000 HD 
BRANCH  20  23
HETATM   23  C   UNL     3     -10.755   8.469  70.320  1.00  0.00    -0.230 C  
HETATM   24  O   UNL     3     -10.892   5.007  70.372  1.00  0.00    -0.086 OA 
HETATM   25  C   UNL     3     -11.931   6.859  71.476  1.00  0.00    -0.344 C  
HETATM   26  C   UNL     3     -11.903   8.174  71.227  1.00  0.00    -0.287 C  
HETATM   27  O   UNL     3     -12.873   6.184  72.219  1.00  0.00    -0.467 OA 
HETATM   28  O   UNL     3     -10.386   7.181  69.797  1.00  0.00    -0.202 OA 
HETATM   29  C   UNL     3     -10.984   6.208  70.568  1.00  0.00    -0.318 C  
HETATM   30  O   UNL     3     -12.658   9.147  71.454  1.00  0.00    -0.312 OA 
HETATM   31  H   UNL     3     -13.488   6.607  72.808  1.00  0.00     0.000 HD 
ENDBRANCH  20  23
ENDBRANCH   7  20
TORSDOF 4
ENDMDL
MODEL       49
REMARK 921   NORMALIZED FREE ENERGY PREDICTED BY IDOCK:   -6.06 KCAL/MOL
REMARK 922        TOTAL FREE ENERGY PREDICTED BY IDOCK:   -9.40 KCAL/MOL
REMARK 923 INTER-LIGAND FREE ENERGY PREDICTED BY IDOCK:   -7.07 KCAL/MOL
REMARK 924 INTRA-LIGAND FREE ENERGY PREDICTED BY IDOCK:   -2.33 KCAL/MOL
REMARK 927      BINDING AFFINITY PREDICTED BY RF-SCORE:    0.00 PKD
ROOT
HETATM    1 CA   UNL     1      -8.848  15.165  64.939  1.00  0.00    -0.160 Ca 
HETATM    2  O   UNL     2     -11.124  11.005  70.086  1.00  0.00    -0.441 OA 
HETATM    3  C   UNL     2     -10.362  11.681  69.079  1.00  0.00    -0.092 C  
HETATM    4  H   UNL     2     -10.544  10.384  70.511  1.00  0.00     0.000 HD 
HETATM    5  O   UNL     3     -10.177  18.709  68.858  1.00  0.00    -0.444 OA 
HETATM    6  H   UNL     3     -10.766  18.883  69.582  1.00  0.00     0.000 HD 
HETATM    7  C   UNL     3     -10.919  19.008  67.641  1.00  0.00    -0.243 C  
ENDROOT
BRANCH   3   8
HETATM    8  C   UNL     2     -11.284  12.669  68.404  1.00  0.00    -0.279 C  
HETATM    9  H   UNL     2     -12.824  12.553  67.190  1.00  0.00     0.000 HD 
HETATM   10  O   UNL     2     -12.244  11.932  67.615  1.00  0.00    -0.510 OA 
BRANCH   8  11
HETATM   11  C   UNL     2     -10.608  13.712  67.488  1.00  0.00    -0.241 C  
HETATM   12  C   UNL     2      -9.312  14.364  67.901  1.00  0.00    -0.203 C  
HETATM   13  O   UNL     2     -11.470  14.848  67.608  1.00  0.00    -0.334 OA 
HETATM   14  O   UNL     2     -11.790  16.106  69.521  1.00  0.00    -0.272 OA 
HETATM   15  H   UNL     2      -7.834  15.980  69.575  1.00  0.00     0.000 HD 
HETATM   16  O   UNL     2      -8.281  14.131  67.213  1.00  0.00    -0.186 OA 
HETATM   17  C   UNL     2     -11.104  15.426  68.790  1.00  0.00    -0.283 C  
HETATM   18  C   UNL     2      -9.629  15.245  68.879  1.00  0.00    -0.220 C  
HETATM   19  O   UNL     2      -8.774  16.095  69.519  1.00  0.00    -0.173 OA 
ENDBRANCH   8  11
ENDBRANCH   3   8
BRANCH   7  20
HETATM   20  C   UNL     3      -9.969  18.726  66.472  1.00  0.00    -0.380 C  
HETATM   21  O   UNL     3     -10.264  17.455  65.895  1.00  0.00    -0.499 OA 
HETATM   22  H   UNL     3      -9.675  17.280  65.171  1.00  0.00     0.000 HD 
BRANCH  20  23
HETATM   23  C   UNL     3      -8.442  18.996  66.580  1.00  0.00    -0.304 C  
HETATM   24  O   UNL     3      -6.771  20.069  69.419  1.00  0.00    -0.326 OA 
HETATM   25  C   UNL     3      -6.801  18.166  67.969  1.00  0.00    -0.208 C  
HETATM   26  C   UNL     3      -7.389  17.957  66.785  1.00  0.00    -0.202 C  
HETATM   27  O   UNL     3      -5.742  17.460  68.494  1.00  0.00    -0.150 OA 
HETATM   28  O   UNL     3      -8.135  19.999  67.563  1.00  0.00    -0.297 OA 
HETATM   29  C   UNL     3      -7.251  19.464  68.474  1.00  0.00    -0.321 C  
HETATM   30  O   UNL     3      -7.181  17.217  65.796  1.00  0.00    -0.305 OA 
HETATM   31  H   UNL     3      -5.450  16.617  68.165  1.00  0.00     0.000 HD 
ENDBRANCH  20  23
ENDBRANCH   7  20
TORSDOF 4
ENDMDL
MODEL       50
REMARK 921   NORMALIZED FREE ENERGY PREDICTED BY IDOCK:   -6.03 KCAL/MOL
REMARK 922        TOTAL FREE ENERGY PREDICTED BY IDOCK:   -9.37 KCAL/MOL
REMARK 923 INTER-LIGAND FREE ENERGY PREDICTED BY IDOCK:   -7.28 KCAL/MOL
REMARK 924 INTRA-LIGAND FREE ENERGY PREDICTED BY IDOCK:   -2.09 KCAL/MOL
REMARK 927      BINDING AFFINITY PREDICTED BY RF-SCORE:    0.00 PKD
ROOT
HETATM    1 CA   UNL     1     -11.868  12.414  69.888  1.00  0.00    -0.232 Ca 
HETATM    2  O   UNL     2     -11.428  16.092  63.951  1.00  0.00    -1.351 OA 
HETATM    3  C   UNL     2     -11.330  15.602  65.293  1.00  0.00    -0.139 C  
HETATM    4  H   UNL     2     -10.928  16.899  63.906  1.00  0.00     0.000 HD 
HETATM    5  O   UNL     3      -9.267   8.994  66.537  1.00  0.00    -0.156 OA 
HETATM    6  H   UNL     3      -9.173   8.709  65.636  1.00  0.00     0.000 HD 
HETATM    7  C   UNL     3     -10.483   8.371  67.041  1.00  0.00    -0.305 C  
ENDROOT
BRANCH   3   8
HETATM    8  C   UNL     2     -12.125  14.320  65.363  1.00  0.00    -0.396 C  
HETATM    9  H   UNL     2     -14.026  13.835  65.251  1.00  0.00     0.000 HD 
HETATM   10  O   UNL     2     -13.525  14.641  65.206  1.00  0.00    -0.247 OA 
BRANCH   8  11
HETATM   11  C   UNL     2     -11.964  13.492  66.656  1.00  0.00    -0.404 C  
HETATM   12  C   UNL     2     -10.607  13.325  67.292  1.00  0.00    -0.247 C  
HETATM   13  O   UNL     2     -12.156  12.148  66.200  1.00  0.00    -0.621 OA 
HETATM   14  O   UNL     2     -10.751  10.990  64.776  1.00  0.00    -0.309 OA 
HETATM   15  H   UNL     2      -8.011  12.396  67.263  1.00  0.00     0.000 HD 
HETATM   16  O   UNL     2     -10.414  13.831  68.430  1.00  0.00    -0.240 OA 
HETATM   17  C   UNL     2     -10.954  11.804  65.650  1.00  0.00    -0.295 C  
HETATM   18  C   UNL     2      -9.926  12.459  66.503  1.00  0.00    -0.230 C  
HETATM   19  O   UNL     2      -8.667  11.978  66.719  1.00  0.00    -0.192 OA 
ENDBRANCH   8  11
ENDBRANCH   3   8
BRANCH   7  20
HETATM   20  C   UNL     3     -10.636   8.831  68.495  1.00  0.00    -0.129 C  
HETATM   21  O   UNL     3     -11.385  10.044  68.549  1.00  0.00    -0.477 OA 
HETATM   22  H   UNL     3     -11.480  10.329  69.450  1.00  0.00     0.000 HD 
BRANCH  20  23
HETATM   23  C   UNL     3      -9.437   8.821  69.483  1.00  0.00    -0.165 C  
HETATM   24  O   UNL     3      -9.621   8.215  72.888  1.00  0.00    -0.257 OA 
HETATM   25  C   UNL     3      -8.626   7.236  70.945  1.00  0.00    -0.136 C  
HETATM   26  C   UNL     3      -8.493   7.684  69.691  1.00  0.00    -0.135 C  
HETATM   27  O   UNL     3      -7.889   6.238  71.542  1.00  0.00    -0.099 OA 
HETATM   28  O   UNL     3      -9.824   9.199  70.814  1.00  0.00    -0.225 OA 
HETATM   29  C   UNL     3      -9.457   8.192  71.679  1.00  0.00    -0.177 C  
HETATM   30  O   UNL     3      -7.704   7.474  68.741  1.00  0.00    -0.113 OA 
HETATM   31  H   UNL     3      -7.350   5.618  71.065  1.00  0.00     0.000 HD 
ENDBRANCH  20  23
ENDBRANCH   7  20
TORSDOF 4
ENDMDL
MODEL       51
REMARK 921   NORMALIZED FREE ENERGY PREDICTED BY IDOCK:   -6.03 KCAL/MOL
REMARK 922        TOTAL FREE ENERGY PREDICTED BY IDOCK:   -9.36 KCAL/MOL
REMARK 923 INTER-LIGAND FREE ENERGY PREDICTED BY IDOCK:   -7.56 KCAL/MOL
REMARK 924 INTRA-LIGAND FREE ENERGY PREDICTED BY IDOCK:   -1.81 KCAL/MOL
REMARK 927      BINDING AFFINITY PREDICTED BY RF-SCORE:    0.00 PKD
ROOT
HETATM    1 CA   UNL     1      -8.594  14.165  67.630  1.00  0.00    -0.138 Ca 
HETATM    2  O   UNL     2      -7.625  20.712  65.358  1.00  0.00    -0.511 OA 
HETATM    3  C   UNL     2      -7.499  19.330  65.708  1.00  0.00    -0.204 C  
HETATM    4  H   UNL     2      -6.820  20.970  64.924  1.00  0.00     0.000 HD 
HETATM    5  O   UNL     3     -12.444  14.701  63.813  1.00  0.00    -1.041 OA 
HETATM    6  H   UNL     3     -13.042  15.306  63.390  1.00  0.00     0.000 HD 
HETATM    7  C   UNL     3     -13.051  14.345  65.088  1.00  0.00     0.143 C  
ENDROOT
BRANCH   3   8
HETATM    8  C   UNL     2      -8.779  18.920  66.397  1.00  0.00    -0.303 C  
HETATM    9  H   UNL     2     -10.651  19.514  66.354  1.00  0.00     0.000 HD 
HETATM   10  O   UNL     2      -9.846  19.771  65.921  1.00  0.00    -0.401 OA 
BRANCH   8  11
HETATM   11  C   UNL     2      -8.768  18.980  67.939  1.00  0.00    -0.301 C  
HETATM   12  C   UNL     2      -7.744  18.202  68.726  1.00  0.00    -0.264 C  
HETATM   13  O   UNL     2      -9.932  18.225  68.295  1.00  0.00    -0.325 OA 
HETATM   14  O   UNL     2     -10.229  15.958  67.960  1.00  0.00    -0.231 OA 
HETATM   15  H   UNL     2      -6.609  15.830  69.555  1.00  0.00     0.000 HD 
HETATM   16  O   UNL     2      -6.892  18.845  69.398  1.00  0.00    -0.285 OA 
HETATM   17  C   UNL     2      -9.535  16.923  68.192  1.00  0.00    -0.251 C  
HETATM   18  C   UNL     2      -8.120  16.903  68.654  1.00  0.00    -0.253 C  
HETATM   19  O   UNL     2      -7.511  15.843  69.261  1.00  0.00    -0.200 OA 
ENDBRANCH   8  11
ENDBRANCH   3   8
BRANCH   7  20
HETATM   20  C   UNL     3     -12.086  13.368  65.770  1.00  0.00    -0.436 C  
HETATM   21  O   UNL     3     -11.910  13.730  67.139  1.00  0.00    -0.363 OA 
HETATM   22  H   UNL     3     -11.312  13.125  67.562  1.00  0.00     0.000 HD 
BRANCH  20  23
HETATM   23  C   UNL     3     -10.760  12.925  65.091  1.00  0.00    -0.305 C  
HETATM   24  O   UNL     3      -8.605  10.478  66.260  1.00  0.00    -0.138 OA 
HETATM   25  C   UNL     3      -9.988  10.884  64.350  1.00  0.00    -0.322 C  
HETATM   26  C   UNL     3     -10.648  11.976  63.944  1.00  0.00    -0.400 C  
HETATM   27  O   UNL     3      -9.628   9.807  63.572  1.00  0.00    -0.484 OA 
HETATM   28  O   UNL     3      -9.798  12.438  66.041  1.00  0.00    -0.251 OA 
HETATM   29  C   UNL     3      -9.429  11.162  65.675  1.00  0.00    -0.224 C  
HETATM   30  O   UNL     3     -11.051  12.426  62.847  1.00  0.00    -0.070 OA 
HETATM   31  H   UNL     3      -9.990   9.628  62.712  1.00  0.00     0.000 HD 
ENDBRANCH  20  23
ENDBRANCH   7  20
TORSDOF 4
ENDMDL
MODEL       52
REMARK 921   NORMALIZED FREE ENERGY PREDICTED BY IDOCK:   -6.02 KCAL/MOL
REMARK 922        TOTAL FREE ENERGY PREDICTED BY IDOCK:   -9.36 KCAL/MOL
REMARK 923 INTER-LIGAND FREE ENERGY PREDICTED BY IDOCK:   -6.91 KCAL/MOL
REMARK 924 INTRA-LIGAND FREE ENERGY PREDICTED BY IDOCK:   -2.44 KCAL/MOL
REMARK 927      BINDING AFFINITY PREDICTED BY RF-SCORE:    0.00 PKD
ROOT
HETATM    1 CA   UNL     1     -12.942  14.472  69.267  1.00  0.00    -0.522 Ca 
HETATM    2  O   UNL     2      -8.434  19.772  68.518  1.00  0.00    -0.316 OA 
HETATM    3  C   UNL     2      -9.264  18.711  69.005  1.00  0.00    -0.123 C  
HETATM    4  H   UNL     2      -7.934  20.102  69.255  1.00  0.00     0.000 HD 
HETATM    5  O   UNL     3      -9.201  12.407  65.887  1.00  0.00    -0.417 OA 
HETATM    6  H   UNL     3      -8.588  12.606  65.189  1.00  0.00     0.000 HD 
HETATM    7  C   UNL     3     -10.519  12.344  65.272  1.00  0.00    -0.286 C  
ENDROOT
BRANCH   3   8
HETATM    8  C   UNL     2     -10.058  18.186  67.832  1.00  0.00    -0.357 C  
HETATM    9  H   UNL     2     -11.462  18.892  66.653  1.00  0.00     0.000 HD 
HETATM   10  O   UNL     2     -10.962  19.223  67.391  1.00  0.00    -0.484 OA 
BRANCH   8  11
HETATM   11  C   UNL     2     -10.882  16.906  68.090  1.00  0.00    -0.351 C  
HETATM   12  C   UNL     2     -10.308  15.781  68.913  1.00  0.00    -0.224 C  
HETATM   13  O   UNL     2     -10.879  16.262  66.811  1.00  0.00    -0.253 OA 
HETATM   14  O   UNL     2      -9.028  15.369  65.753  1.00  0.00    -0.197 OA 
HETATM   15  H   UNL     2      -8.462  13.776  69.331  1.00  0.00     0.000 HD 
HETATM   16  O   UNL     2     -10.855  15.508  70.017  1.00  0.00    -0.270 OA 
HETATM   17  C   UNL     2      -9.661  15.646  66.747  1.00  0.00    -0.241 C  
HETATM   18  C   UNL     2      -9.381  15.177  68.131  1.00  0.00    -0.192 C  
HETATM   19  O   UNL     2      -8.640  14.076  68.448  1.00  0.00    -0.170 OA 
ENDBRANCH   8  11
ENDBRANCH   3   8
BRANCH   7  20
HETATM   20  C   UNL     3     -11.509  12.022  66.397  1.00  0.00    -0.353 C  
HETATM   21  O   UNL     3     -11.975  13.229  66.999  1.00  0.00    -0.379 OA 
HETATM   22  H   UNL     3     -12.589  13.030  67.696  1.00  0.00     0.000 HD 
BRANCH  20  23
HETATM   23  C   UNL     3     -11.223  10.904  67.438  1.00  0.00    -0.273 C  
HETATM   24  O   UNL     3      -8.452   8.826  67.469  1.00  0.00    -0.119 OA 
HETATM   25  C   UNL     3      -9.452  10.500  68.856  1.00  0.00    -0.193 C  
HETATM   26  C   UNL     3     -10.642  11.110  68.797  1.00  0.00    -0.202 C  
HETATM   27  O   UNL     3      -8.631  10.407  69.957  1.00  0.00    -0.365 OA 
HETATM   28  O   UNL     3     -10.441   9.832  66.884  1.00  0.00    -0.238 OA 
HETATM   29  C   UNL     3      -9.311   9.672  67.656  1.00  0.00    -0.126 C  
HETATM   30  O   UNL     3     -11.407  11.668  69.617  1.00  0.00    -0.264 OA 
HETATM   31  H   UNL     3      -8.724  10.944  70.735  1.00  0.00     0.000 HD 
ENDBRANCH  20  23
ENDBRANCH   7  20
TORSDOF 4
ENDMDL
MODEL       53
REMARK 921   NORMALIZED FREE ENERGY PREDICTED BY IDOCK:   -6.02 KCAL/MOL
REMARK 922        TOTAL FREE ENERGY PREDICTED BY IDOCK:   -9.35 KCAL/MOL
REMARK 923 INTER-LIGAND FREE ENERGY PREDICTED BY IDOCK:   -7.47 KCAL/MOL
REMARK 924 INTRA-LIGAND FREE ENERGY PREDICTED BY IDOCK:   -1.88 KCAL/MOL
REMARK 927      BINDING AFFINITY PREDICTED BY RF-SCORE:    0.00 PKD
ROOT
HETATM    1 CA   UNL     1     -12.104  12.670  68.545  1.00  0.00    -0.248 Ca 
HETATM    2  O   UNL     2      -5.880   9.654  69.617  1.00  0.00    -0.033 OA 
HETATM    3  C   UNL     2      -7.262  10.031  69.624  1.00  0.00    -0.119 C  
HETATM    4  H   UNL     2      -5.791   8.895  70.182  1.00  0.00     0.000 HD 
HETATM    5  O   UNL     3     -10.768  10.857  63.583  1.00  0.00    -0.546 OA 
HETATM    6  H   UNL     3     -10.051  10.684  62.985  1.00  0.00     0.000 HD 
HETATM    7  C   UNL     3     -11.000  12.294  63.544  1.00  0.00    -0.459 C  
ENDROOT
BRANCH   3   8
HETATM    8  C   UNL     2      -7.404  11.238  68.726  1.00  0.00    -0.109 C  
HETATM    9  H   UNL     2      -6.859  13.123  68.805  1.00  0.00     0.000 HD 
HETATM   10  O   UNL     2      -6.769  12.364  69.370  1.00  0.00    -0.098 OA 
BRANCH   8  11
HETATM   11  C   UNL     2      -8.847  11.644  68.359  1.00  0.00    -0.161 C  
HETATM   12  C   UNL     2      -9.919  10.595  68.201  1.00  0.00    -0.158 C  
HETATM   13  O   UNL     2      -8.729  12.040  66.988  1.00  0.00    -0.175 OA 
HETATM   14  O   UNL     2      -8.218  10.645  65.218  1.00  0.00    -0.158 OA 
HETATM   15  H   UNL     2     -11.007   8.409  66.919  1.00  0.00     0.000 HD 
HETATM   16  O   UNL     2     -10.879  10.593  69.020  1.00  0.00    -0.203 OA 
HETATM   17  C   UNL     2      -8.724  10.863  66.296  1.00  0.00    -0.171 C  
HETATM   18  C   UNL     2      -9.664   9.970  67.027  1.00  0.00    -0.181 C  
HETATM   19  O   UNL     2     -10.406   8.979  66.453  1.00  0.00    -0.261 OA 
ENDBRANCH   8  11
ENDBRANCH   3   8
BRANCH   7  20
HETATM   20  C   UNL     3     -12.157  12.574  64.510  1.00  0.00    -0.425 C  
HETATM   21  O   UNL     3     -13.389  12.136  63.939  1.00  0.00    -0.711 OA 
HETATM   22  H   UNL     3     -14.106  12.309  64.538  1.00  0.00     0.000 HD 
BRANCH  20  23
HETATM   23  C   UNL     3     -12.289  13.933  65.251  1.00  0.00    -0.464 C  
HETATM   24  O   UNL     3     -10.284  15.023  67.857  1.00  0.00    -0.226 OA 
HETATM   25  C   UNL     3     -10.814  15.667  65.615  1.00  0.00    -0.327 C  
HETATM   26  C   UNL     3     -11.758  15.241  64.766  1.00  0.00    -0.276 C  
HETATM   27  O   UNL     3     -10.130  16.859  65.550  1.00  0.00    -0.575 OA 
HETATM   28  O   UNL     3     -11.835  13.858  66.613  1.00  0.00    -0.374 OA 
HETATM   29  C   UNL     3     -10.856  14.809  66.801  1.00  0.00    -0.316 C  
HETATM   30  O   UNL     3     -12.367  15.725  63.784  1.00  0.00    -0.698 OA 
HETATM   31  H   UNL     3     -10.103  17.416  64.780  1.00  0.00     0.000 HD 
ENDBRANCH  20  23
ENDBRANCH   7  20
TORSDOF 4
ENDMDL
MODEL       54
REMARK 921   NORMALIZED FREE ENERGY PREDICTED BY IDOCK:   -6.02 KCAL/MOL
REMARK 922        TOTAL FREE ENERGY PREDICTED BY IDOCK:   -9.35 KCAL/MOL
REMARK 923 INTER-LIGAND FREE ENERGY PREDICTED BY IDOCK:   -7.55 KCAL/MOL
REMARK 924 INTRA-LIGAND FREE ENERGY PREDICTED BY IDOCK:   -1.80 KCAL/MOL
REMARK 927      BINDING AFFINITY PREDICTED BY RF-SCORE:    0.00 PKD
ROOT
HETATM    1 CA   UNL     1     -10.371  15.291  63.866  1.00  0.00    -0.481 Ca 
HETATM    2  O   UNL     2      -8.558  21.065  67.379  1.00  0.00    -0.442 OA 
HETATM    3  C   UNL     2      -9.243  20.032  66.661  1.00  0.00    -0.376 C  
HETATM    4  H   UNL     2      -9.202  21.723  67.613  1.00  0.00     0.000 HD 
HETATM    5  O   UNL     3      -8.636  13.309  68.636  1.00  0.00    -0.330 OA 
HETATM    6  H   UNL     3      -8.028  13.432  69.355  1.00  0.00     0.000 HD 
HETATM    7  C   UNL     3      -7.870  12.725  67.543  1.00  0.00    -0.171 C  
ENDROOT
BRANCH   3   8
HETATM    8  C   UNL     2      -8.218  18.986  66.290  1.00  0.00    -0.282 C  
HETATM    9  H   UNL     2      -6.693  18.886  65.055  1.00  0.00     0.000 HD 
HETATM   10  O   UNL     2      -7.338  19.544  65.289  1.00  0.00    -0.410 OA 
BRANCH   8  11
HETATM   11  C   UNL     2      -8.775  17.652  65.751  1.00  0.00     0.313 C  
HETATM   12  C   UNL     2     -10.182  17.222  66.083  1.00  0.00    -0.331 C  
HETATM   13  O   UNL     2      -8.064  16.675  66.519  1.00  0.00    -0.241 OA 
HETATM   14  O   UNL     2      -8.271  16.333  68.795  1.00  0.00    -0.202 OA 
HETATM   15  H   UNL     2     -12.121  16.443  67.882  1.00  0.00     0.000 HD 
HETATM   16  O   UNL     2     -11.019  17.139  65.144  1.00  0.00    -0.543 OA 
HETATM   17  C   UNL     2      -8.722  16.641  67.715  1.00  0.00    -0.201 C  
HETATM   18  C   UNL     2     -10.160  16.833  67.380  1.00  0.00    -0.276 C  
HETATM   19  O   UNL     2     -11.204  16.321  68.095  1.00  0.00    -0.350 OA 
ENDBRANCH   8  11
ENDBRANCH   3   8
BRANCH   7  20
HETATM   20  C   UNL     3      -8.851  12.526  66.382  1.00  0.00    -0.013 C  
HETATM   21  O   UNL     3      -9.354  13.786  65.944  1.00  0.00    -0.498 OA 
HETATM   22  H   UNL     3      -9.961  13.663  65.224  1.00  0.00     0.000 HD 
BRANCH  20  23
HETATM   23  C   UNL     3      -9.945  11.423  66.421  1.00  0.00    -0.214 C  
HETATM   24  O   UNL     3     -10.113   8.815  68.695  1.00  0.00    -0.178 OA 
HETATM   25  C   UNL     3     -11.407  10.726  68.061  1.00  0.00    -0.307 C  
HETATM   26  C   UNL     3     -11.302  11.568  67.026  1.00  0.00    -0.269 C  
HETATM   27  O   UNL     3     -12.523  10.516  68.838  1.00  0.00    -0.776 OA 
HETATM   28  O   UNL     3      -9.453  10.187  66.965  1.00  0.00    -0.161 OA 
HETATM   29  C   UNL     3     -10.248   9.830  68.032  1.00  0.00    -0.190 C  
HETATM   30  O   UNL     3     -12.084  12.312  66.391  1.00  0.00    -0.623 OA 
HETATM   31  H   UNL     3     -13.275  11.097  68.856  1.00  0.00     0.000 HD 
ENDBRANCH  20  23
ENDBRANCH   7  20
TORSDOF 4
ENDMDL
MODEL       55
REMARK 921   NORMALIZED FREE ENERGY PREDICTED BY IDOCK:   -5.99 KCAL/MOL
REMARK 922        TOTAL FREE ENERGY PREDICTED BY IDOCK:   -9.32 KCAL/MOL
REMARK 923 INTER-LIGAND FREE ENERGY PREDICTED BY IDOCK:   -8.12 KCAL/MOL
REMARK 924 INTRA-LIGAND FREE ENERGY PREDICTED BY IDOCK:   -1.19 KCAL/MOL
REMARK 927      BINDING AFFINITY PREDICTED BY RF-SCORE:    0.00 PKD
ROOT
HETATM    1 CA   UNL     1     -12.683  11.029  68.357  1.00  0.00    -0.215 Ca 
HETATM    2  O   UNL     2      -9.778   4.921  66.562  1.00  0.00    -0.151 OA 
HETATM    3  C   UNL     2     -10.631   5.967  67.040  1.00  0.00    -0.305 C  
HETATM    4  H   UNL     2     -10.239   4.099  66.686  1.00  0.00     0.000 HD 
HETATM    5  O   UNL     3     -12.131  11.494  62.956  1.00  0.00    -0.939 OA 
HETATM    6  H   UNL     3     -11.601  11.256  62.205  1.00  0.00     0.000 HD 
HETATM    7  C   UNL     3     -11.432  12.582  63.625  1.00  0.00    -0.493 C  
ENDROOT
BRANCH   3   8
HETATM    8  C   UNL     2      -9.897   7.272  66.842  1.00  0.00    -0.214 C  
HETATM    9  H   UNL     2      -8.535   7.946  65.596  1.00  0.00     0.000 HD 
HETATM   10  O   UNL     2      -8.998   7.125  65.720  1.00  0.00    -0.118 OA 
BRANCH   8  11
HETATM   11  C   UNL     2      -9.080   7.781  68.049  1.00  0.00    -0.128 C  
HETATM   12  C   UNL     2      -9.762   8.079  69.361  1.00  0.00    -0.170 C  
HETATM   13  O   UNL     2      -8.750   9.121  67.668  1.00  0.00    -0.120 OA 
HETATM   14  O   UNL     2     -10.249  10.860  67.406  1.00  0.00    -0.188 OA 
HETATM   15  H   UNL     2     -11.533   9.523  70.903  1.00  0.00     0.000 HD 
HETATM   16  O   UNL     2      -9.470   7.368  70.361  1.00  0.00    -0.165 OA 
HETATM   17  C   UNL     2      -9.881   9.837  67.939  1.00  0.00    -0.149 C  
HETATM   18  C   UNL     2     -10.445   9.233  69.177  1.00  0.00    -0.217 C  
HETATM   19  O   UNL     2     -11.173   9.908  70.113  1.00  0.00    -0.255 OA 
ENDBRANCH   8  11
ENDBRANCH   3   8
BRANCH   7  20
HETATM   20  C   UNL     3     -12.287  12.966  64.839  1.00  0.00    -0.475 C  
HETATM   21  O   UNL     3     -13.602  12.432  64.701  1.00  0.00    -0.441 OA 
HETATM   22  H   UNL     3     -14.131  12.670  65.452  1.00  0.00     0.000 HD 
BRANCH  20  23
HETATM   23  C   UNL     3     -12.282  14.410  65.412  1.00  0.00    -0.361 C  
HETATM   24  O   UNL     3     -10.309  15.548  68.023  1.00  0.00    -0.240 OA 
HETATM   25  C   UNL     3     -10.618  15.980  65.690  1.00  0.00    -0.377 C  
HETATM   26  C   UNL     3     -11.557  15.576  64.826  1.00  0.00    -0.256 C  
HETATM   27  O   UNL     3      -9.780  17.062  65.543  1.00  0.00    -0.534 OA 
HETATM   28  O   UNL     3     -11.923  14.442  66.804  1.00  0.00    -0.411 OA 
HETATM   29  C   UNL     3     -10.841  15.282  66.957  1.00  0.00    -0.321 C  
HETATM   30  O   UNL     3     -12.039  16.010  63.754  1.00  0.00    -0.882 OA 
HETATM   31  H   UNL     3      -9.636  17.516  64.721  1.00  0.00     0.000 HD 
ENDBRANCH  20  23
ENDBRANCH   7  20
TORSDOF 4
ENDMDL
MODEL       56
REMARK 921   NORMALIZED FREE ENERGY PREDICTED BY IDOCK:   -5.94 KCAL/MOL
REMARK 922        TOTAL FREE ENERGY PREDICTED BY IDOCK:   -9.25 KCAL/MOL
REMARK 923 INTER-LIGAND FREE ENERGY PREDICTED BY IDOCK:   -7.64 KCAL/MOL
REMARK 924 INTRA-LIGAND FREE ENERGY PREDICTED BY IDOCK:   -1.61 KCAL/MOL
REMARK 927      BINDING AFFINITY PREDICTED BY RF-SCORE:    0.00 PKD
ROOT
HETATM    1 CA   UNL     1      -7.657  14.161  66.440  1.00  0.00    -0.323 Ca 
HETATM    2  O   UNL     2      -7.938   8.621  70.705  1.00  0.00    -0.088 OA 
HETATM    3  C   UNL     2      -7.834   9.928  70.129  1.00  0.00    -0.171 C  
HETATM    4  H   UNL     2      -7.883   8.721  71.648  1.00  0.00     0.000 HD 
HETATM    5  O   UNL     3     -12.667  12.210  65.556  1.00  0.00    -0.315 OA 
HETATM    6  H   UNL     3     -13.201  11.425  65.520  1.00  0.00     0.000 HD 
HETATM    7  C   UNL     3     -11.922  12.259  64.306  1.00  0.00    -0.407 C  
ENDROOT
BRANCH   3   8
HETATM    8  C   UNL     2      -7.923   9.768  68.630  1.00  0.00    -0.089 C  
HETATM    9  H   UNL     2      -6.662   9.353  67.182  1.00  0.00     0.000 HD 
HETATM   10  O   UNL     2      -6.606   9.453  68.125  1.00  0.00    -0.058 OA 
BRANCH   8  11
HETATM   11  C   UNL     2      -8.459  10.986  67.848  1.00  0.00    -0.128 C  
HETATM   12  C   UNL     2      -9.721  11.682  68.291  1.00  0.00    -0.197 C  
HETATM   13  O   UNL     2      -8.949  10.398  66.638  1.00  0.00    -0.140 OA 
HETATM   14  O   UNL     2     -10.749   8.959  66.468  1.00  0.00    -0.115 OA 
HETATM   15  H   UNL     2     -12.441  11.721  68.744  1.00  0.00     0.000 HD 
HETATM   16  O   UNL     2      -9.636  12.872  68.701  1.00  0.00    -0.146 OA 
HETATM   17  C   UNL     2     -10.170   9.890  66.981  1.00  0.00    -0.233 C  
HETATM   18  C   UNL     2     -10.743  10.859  67.955  1.00  0.00    -0.231 C  
HETATM   19  O   UNL     2     -12.075  11.103  68.123  1.00  0.00    -0.633 OA 
ENDBRANCH   8  11
ENDBRANCH   3   8
BRANCH   7  20
HETATM   20  C   UNL     3     -11.059  13.525  64.364  1.00  0.00    -0.380 C  
HETATM   21  O   UNL     3      -9.693  13.177  64.582  1.00  0.00    -0.571 OA 
HETATM   22  H   UNL     3      -9.158  13.961  64.618  1.00  0.00     0.000 HD 
BRANCH  20  23
HETATM   23  C   UNL     3     -11.499  14.773  65.178  1.00  0.00    -0.371 C  
HETATM   24  O   UNL     3      -9.926  16.001  68.010  1.00  0.00    -0.225 OA 
HETATM   25  C   UNL     3     -10.410  16.714  65.778  1.00  0.00    -0.321 C  
HETATM   26  C   UNL     3     -11.193  16.191  64.826  1.00  0.00    -0.304 C  
HETATM   27  O   UNL     3      -9.962  18.013  65.849  1.00  0.00    -0.541 OA 
HETATM   28  O   UNL     3     -11.136  14.674  66.566  1.00  0.00    -0.317 OA 
HETATM   29  C   UNL     3     -10.371  15.771  66.898  1.00  0.00    -0.295 C  
HETATM   30  O   UNL     3     -11.812  16.631  63.830  1.00  0.00    -1.047 OA 
HETATM   31  H   UNL     3      -9.987  18.625  65.122  1.00  0.00     0.000 HD 
ENDBRANCH  20  23
ENDBRANCH   7  20
TORSDOF 4
ENDMDL
MODEL       57
REMARK 921   NORMALIZED FREE ENERGY PREDICTED BY IDOCK:   -5.93 KCAL/MOL
REMARK 922        TOTAL FREE ENERGY PREDICTED BY IDOCK:   -9.24 KCAL/MOL
REMARK 923 INTER-LIGAND FREE ENERGY PREDICTED BY IDOCK:   -7.81 KCAL/MOL
REMARK 924 INTRA-LIGAND FREE ENERGY PREDICTED BY IDOCK:   -1.44 KCAL/MOL
REMARK 927      BINDING AFFINITY PREDICTED BY RF-SCORE:    0.00 PKD
ROOT
HETATM    1 CA   UNL     1      -8.659  13.764  65.787  1.00  0.00    -0.409 Ca 
HETATM    2  O   UNL     2      -7.090   7.315  68.004  1.00  0.00    -0.076 OA 
HETATM    3  C   UNL     2      -7.068   8.682  67.579  1.00  0.00    -0.080 C  
HETATM    4  H   UNL     2      -6.200   7.075  68.232  1.00  0.00     0.000 HD 
HETATM    5  O   UNL     3     -11.424  13.389  70.466  1.00  0.00    -0.505 OA 
HETATM    6  H   UNL     3     -11.891  12.803  71.049  1.00  0.00     0.000 HD 
HETATM    7  C   UNL     3     -12.334  13.693  69.371  1.00  0.00    -0.153 C  
ENDROOT
BRANCH   3   8
HETATM    8  C   UNL     2      -8.485   9.064  67.217  1.00  0.00    -0.114 C  
HETATM    9  H   UNL     2     -10.249   8.886  68.062  1.00  0.00     0.000 HD 
HETATM   10  O   UNL     2      -9.358   8.647  68.289  1.00  0.00    -0.138 OA 
BRANCH   8  11
HETATM   11  C   UNL     2      -9.029   8.477  65.897  1.00  0.00    -0.189 C  
HETATM   12  C   UNL     2      -8.179   8.481  64.652  1.00  0.00    -0.160 C  
HETATM   13  O   UNL     2     -10.004   9.447  65.496  1.00  0.00    -0.281 OA 
HETATM   14  O   UNL     2      -9.561  11.619  64.844  1.00  0.00    -0.224 OA 
HETATM   15  H   UNL     2      -6.827   9.794  62.639  1.00  0.00     0.000 HD 
HETATM   16  O   UNL     2      -7.815   7.372  64.173  1.00  0.00    -0.122 OA 
HETATM   17  C   UNL     2      -9.270  10.447  64.925  1.00  0.00    -0.221 C  
HETATM   18  C   UNL     2      -8.153   9.763  64.217  1.00  0.00    -0.152 C  
HETATM   19  O   UNL     2      -7.540  10.230  63.090  1.00  0.00    -0.148 OA 
ENDBRANCH   8  11
ENDBRANCH   3   8
BRANCH   7  20
HETATM   20  C   UNL     3     -11.581  14.640  68.430  1.00  0.00    -0.323 C  
HETATM   21  O   UNL     3     -12.159  15.943  68.479  1.00  0.00    -0.469 OA 
HETATM   22  H   UNL     3     -11.692  16.529  67.896  1.00  0.00     0.000 HD 
BRANCH  20  23
HETATM   23  C   UNL     3     -11.186  14.212  66.989  1.00  0.00    -0.318 C  
HETATM   24  O   UNL     3     -13.253  12.617  64.712  1.00  0.00    -0.846 OA 
HETATM   25  C   UNL     3     -12.073  14.688  64.916  1.00  0.00    -0.382 C  
HETATM   26  C   UNL     3     -11.154  15.107  65.795  1.00  0.00    -0.330 C  
HETATM   27  O   UNL     3     -12.311  15.213  63.666  1.00  0.00    -0.982 OA 
HETATM   28  O   UNL     3     -11.924  13.062  66.542  1.00  0.00    -0.393 OA 
HETATM   29  C   UNL     3     -12.565  13.384  65.365  1.00  0.00    -0.475 C  
HETATM   30  O   UNL     3     -10.226  15.948  65.792  1.00  0.00    -0.318 OA 
HETATM   31  H   UNL     3     -11.991  16.059  63.375  1.00  0.00     0.000 HD 
ENDBRANCH  20  23
ENDBRANCH   7  20
TORSDOF 4
ENDMDL
MODEL       58
REMARK 921   NORMALIZED FREE ENERGY PREDICTED BY IDOCK:   -5.92 KCAL/MOL
REMARK 922        TOTAL FREE ENERGY PREDICTED BY IDOCK:   -9.23 KCAL/MOL
REMARK 923 INTER-LIGAND FREE ENERGY PREDICTED BY IDOCK:   -8.38 KCAL/MOL
REMARK 924 INTRA-LIGAND FREE ENERGY PREDICTED BY IDOCK:   -0.85 KCAL/MOL
REMARK 927      BINDING AFFINITY PREDICTED BY RF-SCORE:    0.00 PKD
ROOT
HETATM    1 CA   UNL     1     -13.194  10.924  69.987  1.00  0.00    -0.281 Ca 
HETATM    2  O   UNL     2     -10.719  17.285  68.447  1.00  0.00    -0.367 OA 
HETATM    3  C   UNL     2     -11.180  16.091  69.089  1.00  0.00    -0.342 C  
HETATM    4  H   UNL     2     -10.437  17.883  69.129  1.00  0.00     0.000 HD 
HETATM    5  O   UNL     3      -8.663   9.809  67.175  1.00  0.00    -0.131 OA 
HETATM    6  H   UNL     3      -8.090  10.099  66.476  1.00  0.00     0.000 HD 
HETATM    7  C   UNL     3      -9.813   9.187  66.535  1.00  0.00    -0.264 C  
ENDROOT
BRANCH   3   8
HETATM    8  C   UNL     2     -11.628  15.140  68.004  1.00  0.00    -0.328 C  
HETATM    9  H   UNL     2     -12.275  13.287  67.936  1.00  0.00     0.000 HD 
HETATM   10  O   UNL     2     -11.994  13.885  68.618  1.00  0.00    -0.353 OA 
BRANCH   8  11
HETATM   11  C   UNL     2     -10.600  14.850  66.890  1.00  0.00    -0.300 C  
HETATM   12  C   UNL     2     -10.421  15.814  65.745  1.00  0.00    -0.367 C  
HETATM   13  O   UNL     2     -11.206  13.770  66.170  1.00  0.00    -0.296 OA 
HETATM   14  O   UNL     2     -13.151  13.898  64.929  1.00  0.00    -0.704 OA 
HETATM   15  H   UNL     2     -11.355  17.125  63.506  1.00  0.00     0.000 HD 
HETATM   16  O   UNL     2      -9.316  16.413  65.635  1.00  0.00    -0.476 OA 
HETATM   17  C   UNL     2     -12.130  14.377  65.368  1.00  0.00    -0.364 C  
HETATM   18  C   UNL     2     -11.508  15.664  64.953  1.00  0.00    -0.245 C  
HETATM   19  O   UNL     2     -11.751  16.304  63.771  1.00  0.00    -0.969 OA 
ENDBRANCH   8  11
ENDBRANCH   3   8
BRANCH   7  20
HETATM   20  C   UNL     3     -10.738   8.719  67.664  1.00  0.00    -0.136 C  
HETATM   21  O   UNL     3     -11.564   9.797  68.100  1.00  0.00    -0.527 OA 
HETATM   22  H   UNL     3     -12.138   9.506  68.800  1.00  0.00     0.000 HD 
BRANCH  20  23
HETATM   23  C   UNL     3     -10.211   7.852  68.842  1.00  0.00    -0.205 C  
HETATM   24  O   UNL     3      -8.472   9.022  71.599  1.00  0.00    -0.339 OA 
HETATM   25  C   UNL     3     -10.548   7.935  71.120  1.00  0.00    -0.213 C  
HETATM   26  C   UNL     3     -11.023   7.375  70.000  1.00  0.00    -0.248 C  
HETATM   27  O   UNL     3     -10.987   7.701  72.403  1.00  0.00    -0.255 OA 
HETATM   28  O   UNL     3      -9.036   8.415  69.449  1.00  0.00    -0.151 OA 
HETATM   29  C   UNL     3      -9.279   8.589  70.794  1.00  0.00    -0.172 C  
HETATM   30  O   UNL     3     -11.858   6.483  69.726  1.00  0.00    -0.345 OA 
HETATM   31  H   UNL     3     -11.810   7.276  72.615  1.00  0.00     0.000 HD 
ENDBRANCH  20  23
ENDBRANCH   7  20
TORSDOF 4
ENDMDL
MODEL       59
REMARK 921   NORMALIZED FREE ENERGY PREDICTED BY IDOCK:   -5.91 KCAL/MOL
REMARK 922        TOTAL FREE ENERGY PREDICTED BY IDOCK:   -9.22 KCAL/MOL
REMARK 923 INTER-LIGAND FREE ENERGY PREDICTED BY IDOCK:   -7.89 KCAL/MOL
REMARK 924 INTRA-LIGAND FREE ENERGY PREDICTED BY IDOCK:   -1.33 KCAL/MOL
REMARK 927      BINDING AFFINITY PREDICTED BY RF-SCORE:    0.00 PKD
ROOT
HETATM    1 CA   UNL     1      -7.869  13.050  69.218  1.00  0.00    -0.241 Ca 
HETATM    2  O   UNL     2     -11.234  16.914  64.453  1.00  0.00    -1.192 OA 
HETATM    3  C   UNL     2     -10.320  16.075  65.168  1.00  0.00    -0.215 C  
HETATM    4  H   UNL     2     -10.914  16.987  63.562  1.00  0.00     0.000 HD 
HETATM    5  O   UNL     3     -12.659  10.495  68.755  1.00  0.00    -0.620 OA 
HETATM    6  H   UNL     3     -13.588  10.606  68.590  1.00  0.00     0.000 HD 
HETATM    7  C   UNL     3     -12.435  10.890  70.138  1.00  0.00    -0.283 C  
ENDROOT
BRANCH   3   8
HETATM    8  C   UNL     2     -10.830  15.959  66.586  1.00  0.00    -0.213 C  
HETATM    9  H   UNL     2     -11.060  17.186  68.103  1.00  0.00     0.000 HD 
HETATM   10  O   UNL     2     -10.740  17.259  67.211  1.00  0.00    -0.310 OA 
BRANCH   8  11
HETATM   11  C   UNL     2     -10.102  14.939  67.487  1.00  0.00    -0.228 C  
HETATM   12  C   UNL     2      -9.185  13.906  66.884  1.00  0.00    -0.259 C  
HETATM   13  O   UNL     2     -11.161  14.071  67.905  1.00  0.00    -0.255 OA 
HETATM   14  O   UNL     2     -12.362  12.647  66.537  1.00  0.00    -0.500 OA 
HETATM   15  H   UNL     2      -8.725  11.700  65.295  1.00  0.00     0.000 HD 
HETATM   16  O   UNL     2      -7.956  13.964  67.160  1.00  0.00    -0.151 OA 
HETATM   17  C   UNL     2     -11.346  13.230  66.846  1.00  0.00    -0.318 C  
HETATM   18  C   UNL     2      -9.987  12.993  66.286  1.00  0.00    -0.283 C  
HETATM   19  O   UNL     2      -9.592  11.852  65.651  1.00  0.00    -0.233 OA 
ENDBRANCH   8  11
ENDBRANCH   3   8
BRANCH   7  20
HETATM   20  C   UNL     3     -10.936  10.710  70.405  1.00  0.00    -0.086 C  
HETATM   21  O   UNL     3     -10.177  11.459  69.457  1.00  0.00    -0.430 OA 
HETATM   22  H   UNL     3      -9.248  11.348  69.623  1.00  0.00     0.000 HD 
BRANCH  20  23
HETATM   23  C   UNL     3     -10.323   9.313  70.695  1.00  0.00    -0.263 C  
HETATM   24  O   UNL     3     -11.821   6.785  72.531  1.00  0.00    -0.218 OA 
HETATM   25  C   UNL     3     -11.060   7.166  70.295  1.00  0.00    -0.274 C  
HETATM   26  C   UNL     3     -10.328   8.150  69.758  1.00  0.00    -0.216 C  
HETATM   27  O   UNL     3     -11.256   5.909  69.768  1.00  0.00    -0.389 OA 
HETATM   28  O   UNL     3     -10.792   8.760  71.937  1.00  0.00    -0.314 OA 
HETATM   29  C   UNL     3     -11.353   7.527  71.683  1.00  0.00    -0.252 C  
HETATM   30  O   UNL     3      -9.570   8.269  68.768  1.00  0.00    -0.148 OA 
HETATM   31  H   UNL     3     -11.065   5.675  68.867  1.00  0.00     0.000 HD 
ENDBRANCH  20  23
ENDBRANCH   7  20
TORSDOF 4
ENDMDL
MODEL       60
REMARK 921   NORMALIZED FREE ENERGY PREDICTED BY IDOCK:   -5.89 KCAL/MOL
REMARK 922        TOTAL FREE ENERGY PREDICTED BY IDOCK:   -9.20 KCAL/MOL
REMARK 923 INTER-LIGAND FREE ENERGY PREDICTED BY IDOCK:   -8.17 KCAL/MOL
REMARK 924 INTRA-LIGAND FREE ENERGY PREDICTED BY IDOCK:   -1.02 KCAL/MOL
REMARK 927      BINDING AFFINITY PREDICTED BY RF-SCORE:    0.00 PKD
ROOT
HETATM    1 CA   UNL     1      -8.049   9.354  68.819  1.00  0.00    -0.089 Ca 
HETATM    2  O   UNL     2     -10.444  11.477  62.596  1.00  0.00    -0.557 OA 
HETATM    3  C   UNL     2      -9.889  10.748  63.697  1.00  0.00    -0.350 C  
HETATM    4  H   UNL     2     -10.461  10.892  61.848  1.00  0.00     0.000 HD 
HETATM    5  O   UNL     3     -13.291  10.429  69.844  1.00  0.00    -0.486 OA 
HETATM    6  H   UNL     3     -14.030  10.981  69.620  1.00  0.00     0.000 HD 
HETATM    7  C   UNL     3     -12.438  11.220  70.721  1.00  0.00    -0.376 C  
ENDROOT
BRANCH   3   8
HETATM    8  C   UNL     2      -9.862  11.680  64.886  1.00  0.00    -0.235 C  
HETATM    9  H   UNL     2      -8.999  11.684  66.651  1.00  0.00     0.000 HD 
HETATM   10  O   UNL     2      -9.016  11.099  65.903  1.00  0.00    -0.194 OA 
BRANCH   8  11
HETATM   11  C   UNL     2     -11.229  12.004  65.525  1.00  0.00    -0.321 C  
HETATM   12  C   UNL     2     -12.292  12.723  64.732  1.00  0.00    -0.478 C  
HETATM   13  O   UNL     2     -10.909  13.046  66.452  1.00  0.00    -0.275 OA 
HETATM   14  O   UNL     2     -10.185  15.170  65.901  1.00  0.00    -0.283 OA 
HETATM   15  H   UNL     2     -13.236  14.938  63.390  1.00  0.00     0.000 HD 
HETATM   16  O   UNL     2     -13.357  12.104  64.462  1.00  0.00    -0.691 OA 
HETATM   17  C   UNL     2     -10.833  14.171  65.682  1.00  0.00    -0.305 C  
HETATM   18  C   UNL     2     -11.887  14.012  64.643  1.00  0.00    -0.417 C  
HETATM   19  O   UNL     2     -12.563  15.040  64.053  1.00  0.00    -0.817 OA 
ENDBRANCH   8  11
ENDBRANCH   3   8
BRANCH   7  20
HETATM   20  C   UNL     3     -11.244  10.330  71.084  1.00  0.00    -0.041 C  
HETATM   21  O   UNL     3     -10.381  10.184  69.957  1.00  0.00    -0.260 OA 
HETATM   22  H   UNL     3      -9.641   9.632  70.182  1.00  0.00     0.000 HD 
BRANCH  20  23
HETATM   23  C   UNL     3     -11.427   9.005  71.875  1.00  0.00    -0.370 C  
HETATM   24  O   UNL     3     -14.022   6.746  71.472  1.00  0.00    -0.192 OA 
HETATM   25  C   UNL     3     -11.643   6.806  71.219  1.00  0.00    -0.320 C  
HETATM   26  C   UNL     3     -10.732   7.716  71.584  1.00  0.00    -0.211 C  
HETATM   27  O   UNL     3     -11.409   5.481  70.929  1.00  0.00    -0.054 OA 
HETATM   28  O   UNL     3     -12.810   8.633  72.002  1.00  0.00    -0.336 OA 
HETATM   29  C   UNL     3     -12.970   7.364  71.489  1.00  0.00    -0.375 C  
HETATM   30  O   UNL     3      -9.510   7.704  71.859  1.00  0.00    -0.142 OA 
HETATM   31  H   UNL     3     -10.548   5.120  70.754  1.00  0.00     0.000 HD 
ENDBRANCH  20  23
ENDBRANCH   7  20
TORSDOF 4
ENDMDL
MODEL       61
REMARK 921   NORMALIZED FREE ENERGY PREDICTED BY IDOCK:   -5.89 KCAL/MOL
REMARK 922        TOTAL FREE ENERGY PREDICTED BY IDOCK:   -9.19 KCAL/MOL
REMARK 923 INTER-LIGAND FREE ENERGY PREDICTED BY IDOCK:   -7.58 KCAL/MOL
REMARK 924 INTRA-LIGAND FREE ENERGY PREDICTED BY IDOCK:   -1.62 KCAL/MOL
REMARK 927      BINDING AFFINITY PREDICTED BY RF-SCORE:    0.00 PKD
ROOT
HETATM    1 CA   UNL     1      -9.929   9.902  68.342  1.00  0.00    -0.143 Ca 
HETATM    2  O   UNL     2     -10.191   3.547  65.423  1.00  0.00    -0.402 OA 
HETATM    3  C   UNL     2     -10.399   4.724  66.213  1.00  0.00    -0.291 C  
HETATM    4  H   UNL     2     -10.846   2.911  65.685  1.00  0.00     0.000 HD 
HETATM    5  O   UNL     3     -11.095  11.010  63.136  1.00  0.00    -0.770 OA 
HETATM    6  H   UNL     3     -10.971  10.736  62.235  1.00  0.00     0.000 HD 
HETATM    7  C   UNL     3      -9.871  11.694  63.530  1.00  0.00    -0.370 C  
ENDROOT
BRANCH   3   8
HETATM    8  C   UNL     2      -9.358   5.736  65.795  1.00  0.00    -0.026 C  
HETATM    9  H   UNL     2      -8.328   6.104  64.163  1.00  0.00     0.000 HD 
HETATM   10  O   UNL     2      -8.983   5.468  64.426  1.00  0.00     0.030 OA 
BRANCH   8  11
HETATM   11  C   UNL     2      -8.071   5.776  66.647  1.00  0.00    -0.102 C  
HETATM   12  C   UNL     2      -8.142   6.074  68.123  1.00  0.00    -0.110 C  
HETATM   13  O   UNL     2      -7.438   6.985  66.212  1.00  0.00    -0.077 OA 
HETATM   14  O   UNL     2      -8.238   9.126  66.551  1.00  0.00    -0.109 OA 
HETATM   15  H   UNL     2      -8.697   7.757  70.236  1.00  0.00     0.000 HD 
HETATM   16  O   UNL     2      -7.807   5.167  68.933  1.00  0.00    -0.080 OA 
HETATM   17  C   UNL     2      -8.097   7.972  66.888  1.00  0.00    -0.108 C  
HETATM   18  C   UNL     2      -8.401   7.399  68.228  1.00  0.00    -0.125 C  
HETATM   19  O   UNL     2      -8.503   8.122  69.381  1.00  0.00    -0.125 OA 
ENDBRANCH   8  11
ENDBRANCH   3   8
BRANCH   7  20
HETATM   20  C   UNL     3     -10.070  12.138  64.984  1.00  0.00    -0.263 C  
HETATM   21  O   UNL     3     -10.295  11.001  65.816  1.00  0.00    -0.250 OA 
HETATM   22  H   UNL     3     -10.419  11.276  66.717  1.00  0.00     0.000 HD 
BRANCH  20  23
HETATM   23  C   UNL     3     -10.983  13.340  65.350  1.00  0.00    -0.284 C  
HETATM   24  O   UNL     3      -9.902  16.524  66.186  1.00  0.00    -0.297 OA 
HETATM   25  C   UNL     3     -11.200  15.463  64.479  1.00  0.00    -0.299 C  
HETATM   26  C   UNL     3     -11.691  14.222  64.375  1.00  0.00    -0.389 C  
HETATM   27  O   UNL     3     -11.633  16.576  63.794  1.00  0.00    -1.617 OA 
HETATM   28  O   UNL     3     -10.338  14.261  66.246  1.00  0.00    -0.280 OA 
HETATM   29  C   UNL     3     -10.349  15.513  65.669  1.00  0.00    -0.384 C  
HETATM   30  O   UNL     3     -12.652  13.683  63.779  1.00  0.00    -0.705 OA 
HETATM   31  H   UNL     3     -12.186  16.543  63.022  1.00  0.00     0.000 HD 
ENDBRANCH  20  23
ENDBRANCH   7  20
TORSDOF 4
ENDMDL
MODEL       62
REMARK 921   NORMALIZED FREE ENERGY PREDICTED BY IDOCK:   -5.87 KCAL/MOL
REMARK 922        TOTAL FREE ENERGY PREDICTED BY IDOCK:   -9.16 KCAL/MOL
REMARK 923 INTER-LIGAND FREE ENERGY PREDICTED BY IDOCK:   -8.42 KCAL/MOL
REMARK 924 INTRA-LIGAND FREE ENERGY PREDICTED BY IDOCK:   -0.75 KCAL/MOL
REMARK 927      BINDING AFFINITY PREDICTED BY RF-SCORE:    0.00 PKD
ROOT
HETATM    1 CA   UNL     1      -9.266   9.167  66.792  1.00  0.00    -0.128 Ca 
HETATM    2  O   UNL     2     -12.660  13.938  62.959  1.00  0.00    -1.030 OA 
HETATM    3  C   UNL     2     -12.020  12.761  63.465  1.00  0.00    -0.555 C  
HETATM    4  H   UNL     2     -13.013  13.723  62.103  1.00  0.00     0.000 HD 
HETATM    5  O   UNL     3     -13.640  10.281  69.844  1.00  0.00    -0.313 OA 
HETATM    6  H   UNL     3     -14.261  10.953  70.098  1.00  0.00     0.000 HD 
HETATM    7  C   UNL     3     -12.423  10.537  70.602  1.00  0.00    -0.366 C  
ENDROOT
BRANCH   3   8
HETATM    8  C   UNL     2     -11.459  13.103  64.825  1.00  0.00    -0.323 C  
HETATM    9  H   UNL     2     -11.578  12.336  66.630  1.00  0.00     0.000 HD 
HETATM   10  O   UNL     2     -11.931  12.121  65.774  1.00  0.00    -0.536 OA 
BRANCH   8  11
HETATM   11  C   UNL     2     -11.809  14.505  65.370  1.00  0.00    -0.344 C  
HETATM   12  C   UNL     2     -10.978  15.703  64.986  1.00  0.00    -0.431 C  
HETATM   13  O   UNL     2     -11.433  14.414  66.749  1.00  0.00    -0.343 OA 
HETATM   14  O   UNL     2      -9.278  14.173  67.548  1.00  0.00    -0.180 OA 
HETATM   15  H   UNL     2      -8.610  17.115  64.986  1.00  0.00     0.000 HD 
HETATM   16  O   UNL     2     -11.520  16.609  64.296  1.00  0.00    -1.075 OA 
HETATM   17  C   UNL     2     -10.078  14.589  66.741  1.00  0.00    -0.264 C  
HETATM   18  C   UNL     2      -9.815  15.589  65.670  1.00  0.00    -0.342 C  
HETATM   19  O   UNL     2      -8.778  16.477  65.668  1.00  0.00    -0.401 OA 
ENDBRANCH   8  11
ENDBRANCH   3   8
BRANCH   7  20
HETATM   20  C   UNL     3     -11.420   9.452  70.193  1.00  0.00    -0.138 C  
HETATM   21  O   UNL     3     -11.953   8.160  70.478  1.00  0.00    -0.485 OA 
HETATM   22  H   UNL     3     -11.331   7.488  70.225  1.00  0.00     0.000 HD 
BRANCH  20  23
HETATM   23  C   UNL     3      -9.910   9.569  70.537  1.00  0.00    -0.269 C  
HETATM   24  O   UNL     3      -7.823   6.946  71.413  1.00  0.00    -0.098 OA 
HETATM   25  C   UNL     3      -8.024   8.569  69.666  1.00  0.00    -0.101 C  
HETATM   26  C   UNL     3      -8.798   9.655  69.544  1.00  0.00    -0.190 C  
HETATM   27  O   UNL     3      -6.865   8.306  68.973  1.00  0.00    -0.054 OA 
HETATM   28  O   UNL     3      -9.479   8.548  71.453  1.00  0.00    -0.173 OA 
HETATM   29  C   UNL     3      -8.432   7.859  70.880  1.00  0.00    -0.126 C  
HETATM   30  O   UNL     3      -8.732  10.739  68.920  1.00  0.00    -0.153 OA 
HETATM   31  H   UNL     3      -6.600   8.767  68.185  1.00  0.00     0.000 HD 
ENDBRANCH  20  23
ENDBRANCH   7  20
TORSDOF 4
ENDMDL
MODEL       63
REMARK 921   NORMALIZED FREE ENERGY PREDICTED BY IDOCK:   -5.87 KCAL/MOL
REMARK 922        TOTAL FREE ENERGY PREDICTED BY IDOCK:   -9.16 KCAL/MOL
REMARK 923 INTER-LIGAND FREE ENERGY PREDICTED BY IDOCK:   -7.74 KCAL/MOL
REMARK 924 INTRA-LIGAND FREE ENERGY PREDICTED BY IDOCK:   -1.42 KCAL/MOL
REMARK 927      BINDING AFFINITY PREDICTED BY RF-SCORE:    0.00 PKD
ROOT
HETATM    1 CA   UNL     1     -12.233  11.023  68.949  1.00  0.00    -0.271 Ca 
HETATM    2  O   UNL     2     -10.275   4.432  70.251  1.00  0.00    -0.180 OA 
HETATM    3  C   UNL     2     -10.990   5.636  69.951  1.00  0.00    -0.239 C  
HETATM    4  H   UNL     2     -10.897   3.715  70.209  1.00  0.00     0.000 HD 
HETATM    5  O   UNL     3      -8.681  10.004  64.945  1.00  0.00    -0.157 OA 
HETATM    6  H   UNL     3      -7.892   9.532  64.706  1.00  0.00     0.000 HD 
HETATM    7  C   UNL     3      -8.251  11.165  65.710  1.00  0.00    -0.004 C  
ENDROOT
BRANCH   3   8
HETATM    8  C   UNL     2     -10.000   6.776  70.019  1.00  0.00    -0.176 C  
HETATM    9  H   UNL     2      -8.070   6.984  69.716  1.00  0.00     0.000 HD 
HETATM   10  O   UNL     2      -8.693   6.267  69.673  1.00  0.00    -0.134 OA 
BRANCH   8  11
HETATM   11  C   UNL     2      -9.890   7.498  71.379  1.00  0.00    -0.177 C  
HETATM   12  C   UNL     2     -11.024   8.357  71.881  1.00  0.00    -0.305 C  
HETATM   13  O   UNL     2      -8.936   8.533  71.114  1.00  0.00    -0.153 OA 
HETATM   14  O   UNL     2      -9.254  10.333  69.700  1.00  0.00    -0.199 OA 
HETATM   15  H   UNL     2     -12.668  10.562  71.689  1.00  0.00     0.000 HD 
HETATM   16  O   UNL     2     -11.635   7.991  72.922  1.00  0.00    -0.397 OA 
HETATM   17  C   UNL     2      -9.660   9.505  70.484  1.00  0.00    -0.251 C  
HETATM   18  C   UNL     2     -10.998   9.488  71.136  1.00  0.00    -0.368 C  
HETATM   19  O   UNL     2     -11.815  10.573  71.273  1.00  0.00    -0.328 OA 
ENDBRANCH   8  11
ENDBRANCH   3   8
BRANCH   7  20
HETATM   20  C   UNL     3      -9.525  11.927  66.097  1.00  0.00    -0.231 C  
HETATM   21  O   UNL     3      -9.749  11.825  67.501  1.00  0.00    -0.177 OA 
HETATM   22  H   UNL     3     -10.538  12.297  67.741  1.00  0.00     0.000 HD 
BRANCH  20  23
HETATM   23  C   UNL     3     -10.833  11.798  65.268  1.00  0.00    -0.290 C  
HETATM   24  O   UNL     3     -13.594  13.877  65.505  1.00  0.00    -0.579 OA 
HETATM   25  C   UNL     3     -11.954  13.254  63.877  1.00  0.00    -0.483 C  
HETATM   26  C   UNL     3     -11.028  12.288  63.871  1.00  0.00    -0.406 C  
HETATM   27  O   UNL     3     -12.458  13.914  62.779  1.00  0.00    -0.901 OA 
HETATM   28  O   UNL     3     -11.978  12.303  65.976  1.00  0.00    -0.570 OA 
HETATM   29  C   UNL     3     -12.579  13.271  65.201  1.00  0.00    -0.453 C  
HETATM   30  O   UNL     3     -10.417  11.634  62.995  1.00  0.00    -0.311 OA 
HETATM   31  H   UNL     3     -12.052  13.902  61.920  1.00  0.00     0.000 HD 
ENDBRANCH  20  23
ENDBRANCH   7  20
TORSDOF 4
ENDMDL
MODEL       64
REMARK 921   NORMALIZED FREE ENERGY PREDICTED BY IDOCK:   -5.86 KCAL/MOL
REMARK 922        TOTAL FREE ENERGY PREDICTED BY IDOCK:   -9.16 KCAL/MOL
REMARK 923 INTER-LIGAND FREE ENERGY PREDICTED BY IDOCK:   -7.43 KCAL/MOL
REMARK 924 INTRA-LIGAND FREE ENERGY PREDICTED BY IDOCK:   -1.73 KCAL/MOL
REMARK 927      BINDING AFFINITY PREDICTED BY RF-SCORE:    0.00 PKD
ROOT
HETATM    1 CA   UNL     1      -9.346  12.707  69.348  1.00  0.00    -0.370 Ca 
HETATM    2  O   UNL     2     -11.946  11.651  62.938  1.00  0.00    -0.845 OA 
HETATM    3  C   UNL     2     -11.113  11.887  64.078  1.00  0.00    -0.391 C  
HETATM    4  H   UNL     2     -11.379  11.600  62.178  1.00  0.00     0.000 HD 
HETATM    5  O   UNL     3     -11.563   7.745  69.746  1.00  0.00    -0.450 OA 
HETATM    6  H   UNL     3     -12.265   7.180  69.446  1.00  0.00     0.000 HD 
HETATM    7  C   UNL     3     -12.144   8.633  70.742  1.00  0.00    -0.068 C  
ENDROOT
BRANCH   3   8
HETATM    8  C   UNL     2     -12.016  11.967  65.287  1.00  0.00    -0.139 C  
HETATM    9  H   UNL     2     -13.679  12.909  65.741  1.00  0.00     0.000 HD 
HETATM   10  O   UNL     2     -13.111  12.858  64.980  1.00  0.00    -0.794 OA 
BRANCH   8  11
HETATM   11  C   UNL     2     -11.355  12.450  66.596  1.00  0.00    -0.339 C  
HETATM   12  C   UNL     2      -9.855  12.433  66.746  1.00  0.00    -0.222 C  
HETATM   13  O   UNL     2     -11.676  11.404  67.520  1.00  0.00    -0.568 OA 
HETATM   14  O   UNL     2     -10.895   9.231  67.426  1.00  0.00    -0.255 OA 
HETATM   15  H   UNL     2      -7.446  11.101  66.901  1.00  0.00     0.000 HD 
HETATM   16  O   UNL     2      -9.253  13.535  66.864  1.00  0.00    -0.237 OA 
HETATM   17  C   UNL     2     -10.768  10.422  67.246  1.00  0.00    -0.273 C  
HETATM   18  C   UNL     2      -9.507  11.134  66.902  1.00  0.00    -0.185 C  
HETATM   19  O   UNL     2      -8.250  10.647  67.120  1.00  0.00    -0.119 OA 
ENDBRANCH   8  11
ENDBRANCH   3   8
BRANCH   7  20
HETATM   20  C   UNL     3     -11.010   9.545  71.226  1.00  0.00    -0.370 C  
HETATM   21  O   UNL     3     -10.788  10.592  70.283  1.00  0.00    -0.437 OA 
HETATM   22  H   UNL     3     -10.085  11.157  70.582  1.00  0.00     0.000 HD 
BRANCH  20  23
HETATM   23  C   UNL     3      -9.689   8.965  71.803  1.00  0.00    -0.295 C  
HETATM   24  O   UNL     3      -9.019   5.612  72.354  1.00  0.00    -0.135 OA 
HETATM   25  C   UNL     3      -8.186   7.408  71.011  1.00  0.00    -0.110 C  
HETATM   26  C   UNL     3      -8.436   8.723  71.028  1.00  0.00    -0.179 C  
HETATM   27  O   UNL     3      -7.091   6.789  70.452  1.00  0.00    -0.064 OA 
HETATM   28  O   UNL     3      -9.900   7.735  72.516  1.00  0.00    -0.178 OA 
HETATM   29  C   UNL     3      -9.096   6.764  71.960  1.00  0.00    -0.138 C  
HETATM   30  O   UNL     3      -7.823   9.759  70.683  1.00  0.00    -0.277 OA 
HETATM   31  H   UNL     3      -6.500   7.208  69.836  1.00  0.00     0.000 HD 
ENDBRANCH  20  23
ENDBRANCH   7  20
TORSDOF 4
ENDMDL
MODEL       65
REMARK 921   NORMALIZED FREE ENERGY PREDICTED BY IDOCK:   -5.86 KCAL/MOL
REMARK 922        TOTAL FREE ENERGY PREDICTED BY IDOCK:   -9.15 KCAL/MOL
REMARK 923 INTER-LIGAND FREE ENERGY PREDICTED BY IDOCK:   -7.33 KCAL/MOL
REMARK 924 INTRA-LIGAND FREE ENERGY PREDICTED BY IDOCK:   -1.82 KCAL/MOL
REMARK 927      BINDING AFFINITY PREDICTED BY RF-SCORE:    0.00 PKD
ROOT
HETATM    1 CA   UNL     1      -8.003  11.350  69.749  1.00  0.00    -0.311 Ca 
HETATM    2  O   UNL     2     -11.216   6.152  66.340  1.00  0.00    -0.725 OA 
HETATM    3  C   UNL     2     -10.711   7.071  67.314  1.00  0.00    -0.342 C  
HETATM    4  H   UNL     2     -11.786   5.542  66.794  1.00  0.00     0.000 HD 
HETATM    5  O   UNL     3     -11.293  14.009  66.314  1.00  0.00    -0.318 OA 
HETATM    6  H   UNL     3     -11.704  13.989  65.458  1.00  0.00     0.000 HD 
HETATM    7  C   UNL     3      -9.911  14.415  66.098  1.00  0.00    -0.320 C  
ENDROOT
BRANCH   3   8
HETATM    8  C   UNL     2      -9.805   8.041  66.592  1.00  0.00    -0.252 C  
HETATM    9  H   UNL     2      -8.065   7.933  65.687  1.00  0.00     0.000 HD 
HETATM   10  O   UNL     2      -8.635   7.323  66.141  1.00  0.00    -0.137 OA 
BRANCH   8  11
HETATM   11  C   UNL     2      -9.335   9.265  67.405  1.00  0.00    -0.127 C  
HETATM   12  C   UNL     2     -10.299  10.001  68.302  1.00  0.00    -0.193 C  
HETATM   13  O   UNL     2      -9.166  10.270  66.399  1.00  0.00    -0.153 OA 
HETATM   14  O   UNL     2     -10.854  11.220  65.140  1.00  0.00    -0.270 OA 
HETATM   15  H   UNL     2     -12.551  11.541  68.701  1.00  0.00     0.000 HD 
HETATM   16  O   UNL     2     -10.092   9.980  69.546  1.00  0.00    -0.201 OA 
HETATM   17  C   UNL     2     -10.431  10.725  66.160  1.00  0.00    -0.214 C  
HETATM   18  C   UNL     2     -11.116  10.703  67.482  1.00  0.00    -0.300 C  
HETATM   19  O   UNL     2     -12.114  11.554  67.858  1.00  0.00    -0.630 OA 
ENDBRANCH   8  11
ENDBRANCH   3   8
BRANCH   7  20
HETATM   20  C   UNL     3      -9.247  14.447  67.479  1.00  0.00    -0.200 C  
HETATM   21  O   UNL     3      -9.297  13.153  68.078  1.00  0.00    -0.205 OA 
HETATM   22  H   UNL     3      -8.886  13.173  68.933  1.00  0.00     0.000 HD 
BRANCH  20  23
HETATM   23  C   UNL     3      -9.532  15.589  68.494  1.00  0.00    -0.200 C  
HETATM   24  O   UNL     3      -7.972  18.682  68.554  1.00  0.00    -0.319 OA 
HETATM   25  C   UNL     3     -10.169  17.789  68.236  1.00  0.00    -0.382 C  
HETATM   26  C   UNL     3     -10.665  16.558  68.414  1.00  0.00    -0.339 C  
HETATM   27  O   UNL     3     -10.887  18.962  68.175  1.00  0.00    -0.313 OA 
HETATM   28  O   UNL     3      -8.380  16.420  68.717  1.00  0.00    -0.218 OA 
HETATM   29  C   UNL     3      -8.720  17.725  68.437  1.00  0.00    -0.292 C  
HETATM   30  O   UNL     3     -11.793  16.071  68.656  1.00  0.00    -0.367 OA 
HETATM   31  H   UNL     3     -11.828  19.003  68.045  1.00  0.00     0.000 HD 
ENDBRANCH  20  23
ENDBRANCH   7  20
TORSDOF 4
ENDMDL
MODEL       66
REMARK 921   NORMALIZED FREE ENERGY PREDICTED BY IDOCK:   -5.85 KCAL/MOL
REMARK 922        TOTAL FREE ENERGY PREDICTED BY IDOCK:   -9.15 KCAL/MOL
REMARK 923 INTER-LIGAND FREE ENERGY PREDICTED BY IDOCK:   -9.11 KCAL/MOL
REMARK 924 INTRA-LIGAND FREE ENERGY PREDICTED BY IDOCK:   -0.04 KCAL/MOL
REMARK 927      BINDING AFFINITY PREDICTED BY RF-SCORE:    0.00 PKD
ROOT
HETATM    1 CA   UNL     1     -12.219  15.686  63.556  1.00  0.00    -0.792 Ca 
HETATM    2  O   UNL     2      -9.326   9.355  62.832  1.00  0.00    -0.528 OA 
HETATM    3  C   UNL     2      -9.768  10.708  62.672  1.00  0.00    -0.188 C  
HETATM    4  H   UNL     2      -8.777   9.146  62.085  1.00  0.00     0.000 HD 
HETATM    5  O   UNL     3      -8.873  15.388  67.846  1.00  0.00    -0.166 OA 
HETATM    6  H   UNL     3      -8.480  14.809  68.488  1.00  0.00     0.000 HD 
HETATM    7  C   UNL     3     -10.237  15.632  68.293  1.00  0.00    -0.223 C  
ENDROOT
BRANCH   3   8
HETATM    8  C   UNL     2     -10.640  11.040  63.861  1.00  0.00    -0.312 C  
HETATM    9  H   UNL     2     -12.322  12.014  64.143  1.00  0.00     0.000 HD 
HETATM   10  O   UNL     2     -11.774  11.805  63.395  1.00  0.00    -0.427 OA 
BRANCH   8  11
HETATM   11  C   UNL     2      -9.961  11.830  65.000  1.00  0.00    -0.254 C  
HETATM   12  C   UNL     2     -10.297  11.534  66.440  1.00  0.00    -0.237 C  
HETATM   13  O   UNL     2     -10.569  13.123  64.897  1.00  0.00    -0.313 OA 
HETATM   14  O   UNL     2     -12.791  13.608  65.309  1.00  0.00    -0.672 OA 
HETATM   15  H   UNL     2     -12.065  11.461  68.554  1.00  0.00     0.000 HD 
HETATM   16  O   UNL     2      -9.392  11.062  67.180  1.00  0.00    -0.162 OA 
HETATM   17  C   UNL     2     -11.778  12.977  65.515  1.00  0.00    -0.368 C  
HETATM   18  C   UNL     2     -11.533  12.047  66.651  1.00  0.00    -0.346 C  
HETATM   19  O   UNL     2     -12.222  12.054  67.829  1.00  0.00    -0.474 OA 
ENDBRANCH   8  11
ENDBRANCH   3   8
BRANCH   7  20
HETATM   20  C   UNL     3     -10.872  16.568  67.257  1.00  0.00    -0.173 C  
HETATM   21  O   UNL     3     -10.732  16.018  65.949  1.00  0.00    -0.323 OA 
HETATM   22  H   UNL     3     -11.126  16.597  65.307  1.00  0.00     0.000 HD 
BRANCH  20  23
HETATM   23  C   UNL     3     -10.633  18.103  67.292  1.00  0.00    -0.367 C  
HETATM   24  O   UNL     3      -7.853  19.691  68.615  1.00  0.00    -0.346 OA 
HETATM   25  C   UNL     3      -8.934  19.441  66.495  1.00  0.00    -0.356 C  
HETATM   26  C   UNL     3     -10.124  18.928  66.157  1.00  0.00    -0.393 C  
HETATM   27  O   UNL     3      -8.170  20.305  65.744  1.00  0.00    -0.541 OA 
HETATM   28  O   UNL     3      -9.816  18.502  68.405  1.00  0.00    -0.332 OA 
HETATM   29  C   UNL     3      -8.726  19.192  67.923  1.00  0.00    -0.305 C  
HETATM   30  O   UNL     3     -10.933  19.083  65.214  1.00  0.00    -0.511 OA 
HETATM   31  H   UNL     3      -8.306  20.466  64.817  1.00  0.00     0.000 HD 
ENDBRANCH  20  23
ENDBRANCH   7  20
TORSDOF 4
ENDMDL
MODEL       67
REMARK 921   NORMALIZED FREE ENERGY PREDICTED BY IDOCK:   -5.85 KCAL/MOL
REMARK 922        TOTAL FREE ENERGY PREDICTED BY IDOCK:   -9.15 KCAL/MOL
REMARK 923 INTER-LIGAND FREE ENERGY PREDICTED BY IDOCK:   -8.45 KCAL/MOL
REMARK 924 INTRA-LIGAND FREE ENERGY PREDICTED BY IDOCK:   -0.70 KCAL/MOL
REMARK 927      BINDING AFFINITY PREDICTED BY RF-SCORE:    0.00 PKD
ROOT
HETATM    1 CA   UNL     1     -12.059  12.560  65.815  1.00  0.00    -0.325 Ca 
HETATM    2  O   UNL     2      -8.854   7.354  69.221  1.00  0.00    -0.136 OA 
HETATM    3  C   UNL     2      -9.297   8.326  68.266  1.00  0.00    -0.134 C  
HETATM    4  H   UNL     2      -8.147   6.864  68.819  1.00  0.00     0.000 HD 
HETATM    5  O   UNL     3      -9.739  15.120  70.028  1.00  0.00    -0.474 OA 
HETATM    6  H   UNL     3      -9.478  15.043  70.938  1.00  0.00     0.000 HD 
HETATM    7  C   UNL     3     -11.177  15.355  70.031  1.00  0.00    -0.300 C  
ENDROOT
BRANCH   3   8
HETATM    8  C   UNL     2     -10.422   9.105  68.906  1.00  0.00    -0.218 C  
HETATM    9  H   UNL     2     -11.568  10.611  68.378  1.00  0.00     0.000 HD 
HETATM   10  O   UNL     2     -10.861  10.120  67.976  1.00  0.00    -0.239 OA 
BRANCH   8  11
HETATM   11  C   UNL     2     -10.093   9.792  70.248  1.00  0.00    -0.266 C  
HETATM   12  C   UNL     2      -9.952   8.977  71.509  1.00  0.00    -0.321 C  
HETATM   13  O   UNL     2     -11.313  10.472  70.565  1.00  0.00    -0.312 OA 
HETATM   14  O   UNL     2     -13.326   9.464  71.087  1.00  0.00    -0.314 OA 
HETATM   15  H   UNL     2     -10.987   7.331  73.463  1.00  0.00     0.000 HD 
HETATM   16  O   UNL     2      -8.821   8.927  72.065  1.00  0.00    -0.367 OA 
HETATM   17  C   UNL     2     -12.116   9.499  71.087  1.00  0.00    -0.347 C  
HETATM   18  C   UNL     2     -11.207   8.609  71.861  1.00  0.00    -0.343 C  
HETATM   19  O   UNL     2     -11.567   7.898  72.969  1.00  0.00    -0.351 OA 
ENDBRANCH   8  11
ENDBRANCH   3   8
BRANCH   7  20
HETATM   20  C   UNL     3     -11.599  15.480  68.563  1.00  0.00    -0.368 C  
HETATM   21  O   UNL     3     -12.380  14.350  68.179  1.00  0.00    -0.601 OA 
HETATM   22  H   UNL     3     -12.642  14.428  67.270  1.00  0.00     0.000 HD 
BRANCH  20  23
HETATM   23  C   UNL     3     -10.595  15.918  67.461  1.00  0.00    -0.315 C  
HETATM   24  O   UNL     3     -11.421  16.936  64.255  1.00  0.00    -1.142 OA 
HETATM   25  C   UNL     3     -10.383  17.843  66.211  1.00  0.00    -0.364 C  
HETATM   26  C   UNL     3      -9.966  17.267  67.346  1.00  0.00    -0.278 C  
HETATM   27  O   UNL     3      -9.983  19.062  65.715  1.00  0.00    -0.473 OA 
HETATM   28  O   UNL     3     -11.087  15.650  66.138  1.00  0.00    -0.257 OA 
HETATM   29  C   UNL     3     -11.086  16.828  65.423  1.00  0.00     0.054 C  
HETATM   30  O   UNL     3      -9.108  17.525  68.221  1.00  0.00    -0.258 OA 
HETATM   31  H   UNL     3      -9.526  19.721  66.226  1.00  0.00     0.000 HD 
ENDBRANCH  20  23
ENDBRANCH   7  20
TORSDOF 4
ENDMDL
MODEL       68
REMARK 921   NORMALIZED FREE ENERGY PREDICTED BY IDOCK:   -5.84 KCAL/MOL
REMARK 922        TOTAL FREE ENERGY PREDICTED BY IDOCK:   -9.13 KCAL/MOL
REMARK 923 INTER-LIGAND FREE ENERGY PREDICTED BY IDOCK:   -8.56 KCAL/MOL
REMARK 924 INTRA-LIGAND FREE ENERGY PREDICTED BY IDOCK:   -0.57 KCAL/MOL
REMARK 927      BINDING AFFINITY PREDICTED BY RF-SCORE:    0.00 PKD
ROOT
HETATM    1 CA   UNL     1     -10.788   9.038  66.194  1.00  0.00    -0.213 Ca 
HETATM    2  O   UNL     2      -6.864   7.224  71.697  1.00  0.00    -0.054 OA 
HETATM    3  C   UNL     2      -7.386   7.498  70.391  1.00  0.00    -0.072 C  
HETATM    4  H   UNL     2      -5.968   6.928  71.587  1.00  0.00     0.000 HD 
HETATM    5  O   UNL     3     -10.368  13.708  68.970  1.00  0.00    -0.394 OA 
HETATM    6  H   UNL     3     -10.293  14.095  69.834  1.00  0.00     0.000 HD 
HETATM    7  C   UNL     3     -11.769  13.354  68.796  1.00  0.00    -0.340 C  
ENDROOT
BRANCH   3   8
HETATM    8  C   UNL     2      -8.811   7.968  70.566  1.00  0.00    -0.137 C  
HETATM    9  H   UNL     2     -10.082   9.029  69.508  1.00  0.00     0.000 HD 
HETATM   10  O   UNL     2      -9.186   8.732  69.398  1.00  0.00    -0.144 OA 
BRANCH   8  11
HETATM   11  C   UNL     2      -9.093   8.829  71.815  1.00  0.00    -0.235 C  
HETATM   12  C   UNL     2      -9.053   8.214  73.192  1.00  0.00    -0.265 C  
HETATM   13  O   UNL     2     -10.502   9.069  71.726  1.00  0.00    -0.332 OA 
HETATM   14  O   UNL     2     -12.160   7.471  71.928  1.00  0.00    -0.288 OA 
HETATM   15  H   UNL     2     -10.013   6.469  75.099  1.00  0.00     0.000 HD 
HETATM   16  O   UNL     2      -8.160   8.600  73.994  1.00  0.00    -0.385 OA 
HETATM   17  C   UNL     2     -11.070   7.922  72.202  1.00  0.00    -0.294 C  
HETATM   18  C   UNL     2     -10.176   7.464  73.301  1.00  0.00    -0.335 C  
HETATM   19  O   UNL     2     -10.583   6.761  74.398  1.00  0.00    -0.178 OA 
ENDBRANCH   8  11
ENDBRANCH   3   8
BRANCH   7  20
HETATM   20  C   UNL     3     -11.890  12.728  67.402  1.00  0.00    -0.342 C  
HETATM   21  O   UNL     3     -11.681  11.319  67.478  1.00  0.00    -0.574 OA 
HETATM   22  H   UNL     3     -11.756  10.931  66.614  1.00  0.00     0.000 HD 
BRANCH  20  23
HETATM   23  C   UNL     3     -11.211  13.370  66.160  1.00  0.00    -0.295 C  
HETATM   24  O   UNL     3     -12.558  13.531  62.973  1.00  0.00    -0.716 OA 
HETATM   25  C   UNL     3     -11.865  15.031  64.703  1.00  0.00    -0.375 C  
HETATM   26  C   UNL     3     -11.188  14.828  65.840  1.00  0.00    -0.340 C  
HETATM   27  O   UNL     3     -12.019  16.230  64.044  1.00  0.00    -1.224 OA 
HETATM   28  O   UNL     3     -11.628  12.751  64.932  1.00  0.00    -0.307 OA 
HETATM   29  C   UNL     3     -12.142  13.725  64.103  1.00  0.00    -0.433 C  
HETATM   30  O   UNL     3     -10.459  15.519  66.587  1.00  0.00    -0.287 OA 
HETATM   31  H   UNL     3     -11.839  17.078  64.434  1.00  0.00     0.000 HD 
ENDBRANCH  20  23
ENDBRANCH   7  20
TORSDOF 4
ENDMDL
MODEL       69
REMARK 921   NORMALIZED FREE ENERGY PREDICTED BY IDOCK:   -5.83 KCAL/MOL
REMARK 922        TOTAL FREE ENERGY PREDICTED BY IDOCK:   -9.12 KCAL/MOL
REMARK 923 INTER-LIGAND FREE ENERGY PREDICTED BY IDOCK:   -7.98 KCAL/MOL
REMARK 924 INTRA-LIGAND FREE ENERGY PREDICTED BY IDOCK:   -1.15 KCAL/MOL
REMARK 927      BINDING AFFINITY PREDICTED BY RF-SCORE:    0.00 PKD
ROOT
HETATM    1 CA   UNL     1     -12.195  10.166  67.643  1.00  0.00    -0.361 Ca 
HETATM    2  O   UNL     2     -10.755  17.009  67.916  1.00  0.00    -0.356 OA 
HETATM    3  C   UNL     2     -11.339  15.706  68.025  1.00  0.00    -0.324 C  
HETATM    4  H   UNL     2     -11.338  17.618  68.353  1.00  0.00     0.000 HD 
HETATM    5  O   UNL     3      -7.601  10.318  70.569  1.00  0.00    -0.442 OA 
HETATM    6  H   UNL     3      -6.779  10.774  70.704  1.00  0.00     0.000 HD 
HETATM    7  C   UNL     3      -7.418   9.476  69.395  1.00  0.00    -0.088 C  
ENDROOT
BRANCH   3   8
HETATM    8  C   UNL     2     -10.412  14.736  67.330  1.00  0.00    -0.256 C  
HETATM    9  H   UNL     2      -8.615  14.019  67.671  1.00  0.00     0.000 HD 
HETATM   10  O   UNL     2      -9.198  14.628  68.108  1.00  0.00    -0.181 OA 
BRANCH   8  11
HETATM   11  C   UNL     2     -10.023  15.091  65.879  1.00  0.00    -0.326 C  
HETATM   12  C   UNL     2     -11.081  15.495  64.883  1.00  0.00    -0.416 C  
HETATM   13  O   UNL     2      -9.676  13.818  65.322  1.00  0.00    -0.161 OA 
HETATM   14  O   UNL     2     -11.132  12.062  64.955  1.00  0.00    -0.302 OA 
HETATM   15  H   UNL     2     -13.314  14.953  63.359  1.00  0.00     0.000 HD 
HETATM   16  O   UNL     2     -11.057  16.672  64.430  1.00  0.00    -0.985 OA 
HETATM   17  C   UNL     2     -10.877  13.243  65.020  1.00  0.00    -0.322 C  
HETATM   18  C   UNL     2     -11.746  14.361  64.560  1.00  0.00    -0.419 C  
HETATM   19  O   UNL     2     -12.759  14.240  63.653  1.00  0.00    -0.783 OA 
ENDBRANCH   8  11
ENDBRANCH   3   8
BRANCH   7  20
HETATM   20  C   UNL     3      -8.745   8.740  69.178  1.00  0.00    -0.136 C  
HETATM   21  O   UNL     3      -9.733   9.645  68.689  1.00  0.00    -0.150 OA 
HETATM   22  H   UNL     3     -10.555   9.189  68.554  1.00  0.00     0.000 HD 
BRANCH  20  23
HETATM   23  C   UNL     3      -9.308   7.748  70.233  1.00  0.00    -0.156 C  
HETATM   24  O   UNL     3      -9.077   8.100  73.671  1.00  0.00    -0.257 OA 
HETATM   25  C   UNL     3     -10.777   8.000  71.991  1.00  0.00    -0.258 C  
HETATM   26  C   UNL     3     -10.727   7.682  70.691  1.00  0.00    -0.231 C  
HETATM   27  O   UNL     3     -11.895   7.994  72.794  1.00  0.00    -0.551 OA 
HETATM   28  O   UNL     3      -8.549   7.762  71.453  1.00  0.00    -0.116 OA 
HETATM   29  C   UNL     3      -9.404   8.043  72.497  1.00  0.00    -0.224 C  
HETATM   30  O   UNL     3     -11.533   7.229  69.846  1.00  0.00    -0.175 OA 
HETATM   31  H   UNL     3     -12.786   7.966  72.465  1.00  0.00     0.000 HD 
ENDBRANCH  20  23
ENDBRANCH   7  20
TORSDOF 4
ENDMDL
MODEL       70
REMARK 921   NORMALIZED FREE ENERGY PREDICTED BY IDOCK:   -5.80 KCAL/MOL
REMARK 922        TOTAL FREE ENERGY PREDICTED BY IDOCK:   -9.08 KCAL/MOL
REMARK 923 INTER-LIGAND FREE ENERGY PREDICTED BY IDOCK:   -7.18 KCAL/MOL
REMARK 924 INTRA-LIGAND FREE ENERGY PREDICTED BY IDOCK:   -1.90 KCAL/MOL
REMARK 927      BINDING AFFINITY PREDICTED BY RF-SCORE:    0.00 PKD
ROOT
HETATM    1 CA   UNL     1     -13.588   8.545  70.373  1.00  0.00    -0.491 Ca 
HETATM    2  O   UNL     2      -8.822   4.469  73.479  1.00  0.00    -0.102 OA 
HETATM    3  C   UNL     2      -9.912   5.001  72.718  1.00  0.00    -0.163 C  
HETATM    4  H   UNL     2      -8.801   3.532  73.328  1.00  0.00     0.000 HD 
HETATM    5  O   UNL     3      -8.895  10.376  68.298  1.00  0.00    -0.128 OA 
HETATM    6  H   UNL     3      -7.972  10.521  68.470  1.00  0.00     0.000 HD 
HETATM    7  C   UNL     3      -9.611  11.464  68.951  1.00  0.00    -0.073 C  
ENDROOT
BRANCH   3   8
HETATM    8  C   UNL     2      -9.945   6.492  72.958  1.00  0.00    -0.172 C  
HETATM    9  H   UNL     2     -10.298   7.662  74.496  1.00  0.00     0.000 HD 
HETATM   10  O   UNL     2     -10.277   6.724  74.345  1.00  0.00    -0.355 OA 
BRANCH   8  11
HETATM   11  C   UNL     2     -10.930   7.298  72.086  1.00  0.00    -0.239 C  
HETATM   12  C   UNL     2     -10.981   7.083  70.594  1.00  0.00    -0.260 C  
HETATM   13  O   UNL     2     -10.363   8.613  72.096  1.00  0.00    -0.316 OA 
HETATM   14  O   UNL     2      -8.350   9.223  71.137  1.00  0.00    -0.291 OA 
HETATM   15  H   UNL     2      -9.842   7.191  68.086  1.00  0.00     0.000 HD 
HETATM   16  O   UNL     2     -12.035   6.601  70.096  1.00  0.00    -0.367 OA 
HETATM   17  C   UNL     2      -9.358   8.553  71.172  1.00  0.00    -0.196 C  
HETATM   18  C   UNL     2      -9.866   7.664  70.092  1.00  0.00    -0.184 C  
HETATM   19  O   UNL     2      -9.518   7.757  68.775  1.00  0.00    -0.149 OA 
ENDBRANCH   8  11
ENDBRANCH   3   8
BRANCH   7  20
HETATM   20  C   UNL     3     -11.100  11.231  68.674  1.00  0.00    -0.232 C  
HETATM   21  O   UNL     3     -11.289   9.967  68.039  1.00  0.00    -0.513 OA 
HETATM   22  H   UNL     3     -12.212   9.823  67.867  1.00  0.00     0.000 HD 
BRANCH  20  23
HETATM   23  C   UNL     3     -12.001  12.345  68.073  1.00  0.00    -0.203 C  
HETATM   24  O   UNL     3     -11.606  15.752  68.562  1.00  0.00    -0.368 OA 
HETATM   25  C   UNL     3     -11.550  14.183  66.757  1.00  0.00    -0.391 C  
HETATM   26  C   UNL     3     -11.899  12.892  66.688  1.00  0.00    -0.395 C  
HETATM   27  O   UNL     3     -11.414  15.053  65.699  1.00  0.00    -0.331 OA 
HETATM   28  O   UNL     3     -12.047  13.516  68.906  1.00  0.00    -0.341 OA 
HETATM   29  C   UNL     3     -11.651  14.602  68.156  1.00  0.00    -0.335 C  
HETATM   30  O   UNL     3     -12.276  12.110  65.785  1.00  0.00    -0.586 OA 
HETATM   31  H   UNL     3     -11.349  14.780  64.791  1.00  0.00     0.000 HD 
ENDBRANCH  20  23
ENDBRANCH   7  20
TORSDOF 4
ENDMDL
MODEL       71
REMARK 921   NORMALIZED FREE ENERGY PREDICTED BY IDOCK:   -5.78 KCAL/MOL
REMARK 922        TOTAL FREE ENERGY PREDICTED BY IDOCK:   -9.05 KCAL/MOL
REMARK 923 INTER-LIGAND FREE ENERGY PREDICTED BY IDOCK:   -7.53 KCAL/MOL
REMARK 924 INTRA-LIGAND FREE ENERGY PREDICTED BY IDOCK:   -1.52 KCAL/MOL
REMARK 927      BINDING AFFINITY PREDICTED BY RF-SCORE:    0.00 PKD
ROOT
HETATM    1 CA   UNL     1     -12.300  10.313  68.162  1.00  0.00    -0.457 Ca 
HETATM    2  O   UNL     2      -9.678   4.148  66.141  1.00  0.00    -0.185 OA 
HETATM    3  C   UNL     2     -10.494   5.218  66.630  1.00  0.00    -0.290 C  
HETATM    4  H   UNL     2     -10.202   3.355  66.170  1.00  0.00     0.000 HD 
HETATM    5  O   UNL     3     -11.297  11.104  62.865  1.00  0.00    -0.798 OA 
HETATM    6  H   UNL     3     -10.727  10.880  62.139  1.00  0.00     0.000 HD 
HETATM    7  C   UNL     3     -10.581  12.091  63.662  1.00  0.00    -0.454 C  
ENDROOT
BRANCH   3   8
HETATM    8  C   UNL     2      -9.661   6.477  66.583  1.00  0.00    -0.160 C  
HETATM    9  H   UNL     2      -8.168   7.137  65.490  1.00  0.00     0.000 HD 
HETATM   10  O   UNL     2      -8.693   6.345  65.519  1.00  0.00    -0.141 OA 
BRANCH   8  11
HETATM   11  C   UNL     2      -8.905   6.839  67.879  1.00  0.00    -0.118 C  
HETATM   12  C   UNL     2      -9.657   7.051  69.169  1.00  0.00    -0.149 C  
HETATM   13  O   UNL     2      -8.496   8.191  67.643  1.00  0.00    -0.129 OA 
HETATM   14  O   UNL     2      -9.903  10.014  67.450  1.00  0.00    -0.172 OA 
HETATM   15  H   UNL     2     -11.464   8.434  70.725  1.00  0.00     0.000 HD 
HETATM   16  O   UNL     2      -9.460   6.241  70.116  1.00  0.00    -0.158 OA 
HETATM   17  C   UNL     2      -9.612   8.932  67.908  1.00  0.00    -0.148 C  
HETATM   18  C   UNL     2     -10.279   8.248  69.049  1.00  0.00    -0.217 C  
HETATM   19  O   UNL     2     -11.039   8.870  69.997  1.00  0.00    -0.237 OA 
ENDBRANCH   8  11
ENDBRANCH   3   8
BRANCH   7  20
HETATM   20  C   UNL     3     -11.501  12.452  64.834  1.00  0.00    -0.332 C  
HETATM   21  O   UNL     3     -12.698  13.057  64.349  1.00  0.00    -0.652 OA 
HETATM   22  H   UNL     3     -13.268  13.281  65.075  1.00  0.00     0.000 HD 
BRANCH  20  23
HETATM   23  C   UNL     3     -10.954  13.144  66.114  1.00  0.00    -0.283 C  
HETATM   24  O   UNL     3     -10.444  16.546  66.518  1.00  0.00    -0.301 OA 
HETATM   25  C   UNL     3     -11.788  14.810  67.470  1.00  0.00    -0.301 C  
HETATM   26  C   UNL     3     -11.755  13.480  67.328  1.00  0.00    -0.383 C  
HETATM   27  O   UNL     3     -12.373  15.511  68.500  1.00  0.00    -0.514 OA 
HETATM   28  O   UNL     3     -10.248  14.360  65.817  1.00  0.00    -0.305 OA 
HETATM   29  C   UNL     3     -10.827  15.388  66.528  1.00  0.00    -0.298 C  
HETATM   30  O   UNL     3     -12.104  12.494  68.018  1.00  0.00    -0.351 OA 
HETATM   31  H   UNL     3     -12.997  15.136  69.111  1.00  0.00     0.000 HD 
ENDBRANCH  20  23
ENDBRANCH   7  20
TORSDOF 4
ENDMDL
MODEL       72
REMARK 921   NORMALIZED FREE ENERGY PREDICTED BY IDOCK:   -5.77 KCAL/MOL
REMARK 922        TOTAL FREE ENERGY PREDICTED BY IDOCK:   -9.05 KCAL/MOL
REMARK 923 INTER-LIGAND FREE ENERGY PREDICTED BY IDOCK:   -6.79 KCAL/MOL
REMARK 924 INTRA-LIGAND FREE ENERGY PREDICTED BY IDOCK:   -2.25 KCAL/MOL
REMARK 927      BINDING AFFINITY PREDICTED BY RF-SCORE:    0.00 PKD
ROOT
HETATM    1 CA   UNL     1     -13.141  10.839  68.597  1.00  0.00    -0.241 Ca 
HETATM    2  O   UNL     2     -10.763  15.973  64.479  1.00  0.00    -0.808 OA 
HETATM    3  C   UNL     2     -11.255  15.174  65.561  1.00  0.00    -0.320 C  
HETATM    4  H   UNL     2     -10.605  16.845  64.820  1.00  0.00     0.000 HD 
HETATM    5  O   UNL     3      -8.220   9.024  67.124  1.00  0.00    -0.109 OA 
HETATM    6  H   UNL     3      -7.569   9.014  66.432  1.00  0.00     0.000 HD 
HETATM    7  C   UNL     3      -9.242   8.060  66.743  1.00  0.00    -0.165 C  
ENDROOT
BRANCH   3   8
HETATM    8  C   UNL     2     -11.506  13.786  65.019  1.00  0.00    -0.332 C  
HETATM    9  H   UNL     2     -12.772  12.979  63.752  1.00  0.00     0.000 HD 
HETATM   10  O   UNL     2     -12.613  13.852  64.093  1.00  0.00    -0.675 OA 
BRANCH   8  11
HETATM   11  C   UNL     2     -11.818  12.695  66.065  1.00  0.00    -0.436 C  
HETATM   12  C   UNL     2     -11.081  12.666  67.381  1.00  0.00    -0.273 C  
HETATM   13  O   UNL     2     -11.254  11.518  65.476  1.00  0.00    -0.244 OA 
HETATM   14  O   UNL     2      -9.004  11.132  65.116  1.00  0.00    -0.179 OA 
HETATM   15  H   UNL     2      -8.777  12.378  68.867  1.00  0.00     0.000 HD 
HETATM   16  O   UNL     2     -11.738  12.874  68.438  1.00  0.00    -0.306 OA 
HETATM   17  C   UNL     2      -9.919  11.611  65.748  1.00  0.00    -0.237 C  
HETATM   18  C   UNL     2      -9.833  12.220  67.103  1.00  0.00    -0.203 C  
HETATM   19  O   UNL     2      -8.832  11.989  68.002  1.00  0.00    -0.165 OA 
ENDBRANCH   8  11
ENDBRANCH   3   8
BRANCH   7  20
HETATM   20  C   UNL     3     -10.292   8.077  67.860  1.00  0.00    -0.222 C  
HETATM   21  O   UNL     3     -11.081   9.262  67.773  1.00  0.00    -0.504 OA 
HETATM   22  H   UNL     3     -11.731   9.273  68.465  1.00  0.00     0.000 HD 
BRANCH  20  23
HETATM   23  C   UNL     3      -9.930   7.703  69.324  1.00  0.00    -0.180 C  
HETATM   24  O   UNL     3      -6.785   6.803  70.466  1.00  0.00    -0.051 OA 
HETATM   25  C   UNL     3      -8.390   8.542  70.819  1.00  0.00    -0.139 C  
HETATM   26  C   UNL     3      -9.663   8.672  70.428  1.00  0.00    -0.176 C  
HETATM   27  O   UNL     3      -7.777   9.215  71.852  1.00  0.00    -0.339 OA 
HETATM   28  O   UNL     3      -8.825   6.785  69.394  1.00  0.00    -0.135 OA 
HETATM   29  C   UNL     3      -7.843   7.341  70.184  1.00  0.00    -0.100 C  
HETATM   30  O   UNL     3     -10.672   9.288  70.842  1.00  0.00    -0.250 OA 
HETATM   31  H   UNL     3      -8.132   9.994  72.264  1.00  0.00     0.000 HD 
ENDBRANCH  20  23
ENDBRANCH   7  20
TORSDOF 4
ENDMDL
MODEL       73
REMARK 921   NORMALIZED FREE ENERGY PREDICTED BY IDOCK:   -5.76 KCAL/MOL
REMARK 922        TOTAL FREE ENERGY PREDICTED BY IDOCK:   -9.04 KCAL/MOL
REMARK 923 INTER-LIGAND FREE ENERGY PREDICTED BY IDOCK:   -6.87 KCAL/MOL
REMARK 924 INTRA-LIGAND FREE ENERGY PREDICTED BY IDOCK:   -2.17 KCAL/MOL
REMARK 927      BINDING AFFINITY PREDICTED BY RF-SCORE:    0.00 PKD
ROOT
HETATM    1 CA   UNL     1      -8.271  12.018  69.327  1.00  0.00    -0.273 Ca 
HETATM    2  O   UNL     2     -10.797   6.204  66.363  1.00  0.00    -0.536 OA 
HETATM    3  C   UNL     2     -10.439   7.268  67.252  1.00  0.00    -0.310 C  
HETATM    4  H   UNL     2     -11.345   5.600  66.850  1.00  0.00     0.000 HD 
HETATM    5  O   UNL     3     -11.522  13.971  65.415  1.00  0.00    -0.303 OA 
HETATM    6  H   UNL     3     -11.870  13.819  64.544  1.00  0.00     0.000 HD 
HETATM    7  C   UNL     3     -10.168  14.474  65.236  1.00  0.00    -0.402 C  
ENDROOT
BRANCH   3   8
HETATM    8  C   UNL     2      -9.569   8.229  66.476  1.00  0.00    -0.244 C  
HETATM    9  H   UNL     2      -7.800   8.152  65.626  1.00  0.00     0.000 HD 
HETATM   10  O   UNL     2      -8.347   7.548  66.113  1.00  0.00    -0.123 OA 
BRANCH   8  11
HETATM   11  C   UNL     2      -9.192   9.539  67.200  1.00  0.00    -0.134 C  
HETATM   12  C   UNL     2     -10.219  10.283  68.017  1.00  0.00    -0.169 C  
HETATM   13  O   UNL     2      -9.057  10.472  66.122  1.00  0.00    -0.155 OA 
HETATM   14  O   UNL     2     -10.766  11.217  64.757  1.00  0.00    -0.310 OA 
HETATM   15  H   UNL     2     -12.567  11.709  68.247  1.00  0.00     0.000 HD 
HETATM   16  O   UNL     2     -10.043  10.371  69.262  1.00  0.00    -0.209 OA 
HETATM   17  C   UNL     2     -10.340  10.829  65.822  1.00  0.00    -0.230 C  
HETATM   18  C   UNL     2     -11.055  10.868  67.127  1.00  0.00    -0.240 C  
HETATM   19  O   UNL     2     -12.111  11.684  67.415  1.00  0.00    -0.605 OA 
ENDBRANCH   8  11
ENDBRANCH   3   8
BRANCH   7  20
HETATM   20  C   UNL     3      -9.606  14.719  66.641  1.00  0.00    -0.272 C  
HETATM   21  O   UNL     3      -9.026  13.520  67.153  1.00  0.00    -0.210 OA 
HETATM   22  H   UNL     3      -8.678  13.672  68.024  1.00  0.00     0.000 HD 
BRANCH  20  23
HETATM   23  C   UNL     3     -10.411  15.503  67.714  1.00  0.00    -0.273 C  
HETATM   24  O   UNL     3     -12.858  14.179  69.779  1.00  0.00    -0.101 OA 
HETATM   25  C   UNL     3     -10.704  15.202  69.980  1.00  0.00    -0.238 C  
HETATM   26  C   UNL     3      -9.932  15.835  69.089  1.00  0.00    -0.241 C  
HETATM   27  O   UNL     3     -10.624  15.300  71.351  1.00  0.00    -0.393 OA 
HETATM   28  O   UNL     3     -11.719  14.946  67.928  1.00  0.00    -0.340 OA 
HETATM   29  C   UNL     3     -11.853  14.642  69.265  1.00  0.00    -0.321 C  
HETATM   30  O   UNL     3      -9.034  16.706  69.136  1.00  0.00    -0.239 OA 
HETATM   31  H   UNL     3      -9.878  15.664  71.815  1.00  0.00     0.000 HD 
ENDBRANCH  20  23
ENDBRANCH   7  20
TORSDOF 4
ENDMDL
MODEL       74
REMARK 921   NORMALIZED FREE ENERGY PREDICTED BY IDOCK:   -5.75 KCAL/MOL
REMARK 922        TOTAL FREE ENERGY PREDICTED BY IDOCK:   -9.02 KCAL/MOL
REMARK 923 INTER-LIGAND FREE ENERGY PREDICTED BY IDOCK:   -8.26 KCAL/MOL
REMARK 924 INTRA-LIGAND FREE ENERGY PREDICTED BY IDOCK:   -0.76 KCAL/MOL
REMARK 927      BINDING AFFINITY PREDICTED BY RF-SCORE:    0.00 PKD
ROOT
HETATM    1 CA   UNL     1      -7.603  15.739  69.975  1.00  0.00    -0.200 Ca 
HETATM    2  O   UNL     2     -13.021  15.226  74.374  1.00  0.00    -0.557 OA 
HETATM    3  C   UNL     2     -11.728  15.338  73.768  1.00  0.00    -0.055 C  
HETATM    4  H   UNL     2     -12.896  15.251  75.315  1.00  0.00     0.000 HD 
HETATM    5  O   UNL     3     -10.499  20.215  68.852  1.00  0.00    -0.535 OA 
HETATM    6  H   UNL     3     -11.373  20.587  68.807  1.00  0.00     0.000 HD 
HETATM    7  C   UNL     3     -10.329  19.416  67.647  1.00  0.00    -0.437 C  
ENDROOT
BRANCH   3   8
HETATM    8  C   UNL     2     -11.928  15.298  72.271  1.00  0.00    -0.421 C  
HETATM    9  H   UNL     2     -12.022  16.628  70.828  1.00  0.00     0.000 HD 
HETATM   10  O   UNL     2     -11.896  16.653  71.770  1.00  0.00    -0.319 OA 
BRANCH   8  11
HETATM   11  C   UNL     2     -13.230  14.633  71.778  1.00  0.00    -0.350 C  
HETATM   12  C   UNL     2     -13.464  13.159  71.992  1.00  0.00    -0.507 C  
HETATM   13  O   UNL     2     -13.063  14.621  70.355  1.00  0.00    -0.291 OA 
HETATM   14  O   UNL     2     -11.491  13.391  69.191  1.00  0.00    -0.266 OA 
HETATM   15  H   UNL     2     -12.829  10.512  71.553  1.00  0.00     0.000 HD 
HETATM   16  O   UNL     2     -14.405  12.807  72.755  1.00  0.00    -0.265 OA 
HETATM   17  C   UNL     2     -12.249  13.550  70.121  1.00  0.00    -0.330 C  
HETATM   18  C   UNL     2     -12.656  12.518  71.114  1.00  0.00    -0.253 C  
HETATM   19  O   UNL     2     -12.569  11.170  70.920  1.00  0.00    -0.360 OA 
ENDBRANCH   8  11
ENDBRANCH   3   8
BRANCH   7  20
HETATM   20  C   UNL     3      -8.919  18.817  67.720  1.00  0.00    -0.286 C  
HETATM   21  O   UNL     3      -7.959  19.848  67.940  1.00  0.00    -0.291 OA 
HETATM   22  H   UNL     3      -7.086  19.477  67.986  1.00  0.00     0.000 HD 
BRANCH  20  23
HETATM   23  C   UNL     3      -8.433  17.753  66.696  1.00  0.00    -0.258 C  
HETATM   24  O   UNL     3      -6.568  14.930  67.440  1.00  0.00    -0.272 OA 
HETATM   25  C   UNL     3      -8.723  15.471  66.554  1.00  0.00    -0.305 C  
HETATM   26  C   UNL     3      -9.256  16.632  66.152  1.00  0.00    -0.277 C  
HETATM   27  O   UNL     3      -9.154  14.210  66.211  1.00  0.00    -0.467 OA 
HETATM   28  O   UNL     3      -7.211  17.119  67.109  1.00  0.00    -0.152 OA 
HETATM   29  C   UNL     3      -7.418  15.757  67.152  1.00  0.00    -0.224 C  
HETATM   30  O   UNL     3     -10.156  16.979  65.354  1.00  0.00    -0.581 OA 
HETATM   31  H   UNL     3     -10.002  14.025  65.822  1.00  0.00     0.000 HD 
ENDBRANCH  20  23
ENDBRANCH   7  20
TORSDOF 4
ENDMDL
MODEL       75
REMARK 921   NORMALIZED FREE ENERGY PREDICTED BY IDOCK:   -5.75 KCAL/MOL
REMARK 922        TOTAL FREE ENERGY PREDICTED BY IDOCK:   -9.01 KCAL/MOL
REMARK 923 INTER-LIGAND FREE ENERGY PREDICTED BY IDOCK:   -8.21 KCAL/MOL
REMARK 924 INTRA-LIGAND FREE ENERGY PREDICTED BY IDOCK:   -0.81 KCAL/MOL
REMARK 927      BINDING AFFINITY PREDICTED BY RF-SCORE:    0.00 PKD
ROOT
HETATM    1 CA   UNL     1      -8.222  13.742  66.576  1.00  0.00    -0.314 Ca 
HETATM    2  O   UNL     2      -9.835   8.107  70.398  1.00  0.00    -0.185 OA 
HETATM    3  C   UNL     2      -9.501   9.417  69.926  1.00  0.00    -0.213 C  
HETATM    4  H   UNL     2      -9.954   8.166  71.339  1.00  0.00     0.000 HD 
HETATM    5  O   UNL     3     -13.125  12.342  64.655  1.00  0.00    -0.825 OA 
HETATM    6  H   UNL     3     -13.713  11.618  64.475  1.00  0.00     0.000 HD 
HETATM    7  C   UNL     3     -12.151  12.362  63.573  1.00  0.00    -0.558 C  
ENDROOT
BRANCH   3   8
HETATM    8  C   UNL     2      -9.312   9.322  68.430  1.00  0.00    -0.138 C  
HETATM    9  H   UNL     2      -9.049  10.599  66.961  1.00  0.00     0.000 HD 
HETATM   10  O   UNL     2      -9.167  10.659  67.901  1.00  0.00    -0.145 OA 
BRANCH   8  11
HETATM   11  C   UNL     2     -10.440   8.615  67.648  1.00  0.00    -0.244 C  
HETATM   12  C   UNL     2     -10.444   7.114  67.503  1.00  0.00    -0.260 C  
HETATM   13  O   UNL     2     -10.151   8.962  66.289  1.00  0.00    -0.293 OA 
HETATM   14  O   UNL     2      -8.303   8.277  65.082  1.00  0.00    -0.153 OA 
HETATM   15  H   UNL     2      -9.345   4.762  66.573  1.00  0.00     0.000 HD 
HETATM   16  O   UNL     2     -11.376   6.463  68.049  1.00  0.00    -0.267 OA 
HETATM   17  C   UNL     2      -9.154   8.103  65.925  1.00  0.00    -0.130 C  
HETATM   18  C   UNL     2      -9.469   6.819  66.610  1.00  0.00    -0.165 C  
HETATM   19  O   UNL     2      -9.144   5.581  66.137  1.00  0.00    -0.142 OA 
ENDBRANCH   8  11
ENDBRANCH   3   8
BRANCH   7  20
HETATM   20  C   UNL     3     -11.202  13.530  63.862  1.00  0.00    -0.122 C  
HETATM   21  O   UNL     3      -9.863  13.056  63.984  1.00  0.00    -0.687 OA 
HETATM   22  H   UNL     3      -9.275  13.780  64.163  1.00  0.00     0.000 HD 
BRANCH  20  23
HETATM   23  C   UNL     3     -11.551  14.620  64.914  1.00  0.00    -0.405 C  
HETATM   24  O   UNL     3     -10.371  14.747  68.168  1.00  0.00    -0.233 OA 
HETATM   25  C   UNL     3     -10.256  16.056  66.168  1.00  0.00    -0.324 C  
HETATM   26  C   UNL     3     -10.918  15.969  65.008  1.00  0.00    -0.380 C  
HETATM   27  O   UNL     3      -9.593  17.160  66.654  1.00  0.00    -0.247 OA 
HETATM   28  O   UNL     3     -11.497  14.116  66.259  1.00  0.00    -0.332 OA 
HETATM   29  C   UNL     3     -10.621  14.895  66.983  1.00  0.00    -0.289 C  
HETATM   30  O   UNL     3     -11.232  16.763  64.091  1.00  0.00    -1.155 OA 
HETATM   31  H   UNL     3      -9.357  17.914  66.125  1.00  0.00     0.000 HD 
ENDBRANCH  20  23
ENDBRANCH   7  20
TORSDOF 4
ENDMDL
MODEL       76
REMARK 921   NORMALIZED FREE ENERGY PREDICTED BY IDOCK:   -5.72 KCAL/MOL
REMARK 922        TOTAL FREE ENERGY PREDICTED BY IDOCK:   -8.99 KCAL/MOL
REMARK 923 INTER-LIGAND FREE ENERGY PREDICTED BY IDOCK:   -7.26 KCAL/MOL
REMARK 924 INTRA-LIGAND FREE ENERGY PREDICTED BY IDOCK:   -1.72 KCAL/MOL
REMARK 927      BINDING AFFINITY PREDICTED BY RF-SCORE:    0.00 PKD
ROOT
HETATM    1 CA   UNL     1     -12.249   9.758  68.339  1.00  0.00    -0.493 Ca 
HETATM    2  O   UNL     2      -6.130   7.483  70.861  1.00  0.00    -0.035 OA 
HETATM    3  C   UNL     2      -7.294   7.753  70.071  1.00  0.00    -0.075 C  
HETATM    4  H   UNL     2      -5.560   6.925  70.344  1.00  0.00     0.000 HD 
HETATM    5  O   UNL     3      -9.425  14.370  69.000  1.00  0.00    -0.353 OA 
HETATM    6  H   UNL     3      -8.767  14.812  69.524  1.00  0.00     0.000 HD 
HETATM    7  C   UNL     3     -10.665  14.431  69.759  1.00  0.00     0.011 C  
ENDROOT
BRANCH   3   8
HETATM    8  C   UNL     2      -8.199   8.641  70.893  1.00  0.00    -0.143 C  
HETATM    9  H   UNL     2      -7.948  10.142  72.135  1.00  0.00     0.000 HD 
HETATM   10  O   UNL     2      -7.379   9.584  71.618  1.00  0.00    -0.293 OA 
BRANCH   8  11
HETATM   11  C   UNL     2      -9.115   7.923  71.907  1.00  0.00    -0.146 C  
HETATM   12  C   UNL     2      -9.990   6.775  71.466  1.00  0.00    -0.177 C  
HETATM   13  O   UNL     2     -10.140   8.893  72.153  1.00  0.00    -0.325 OA 
HETATM   14  O   UNL     2     -11.701   9.630  70.618  1.00  0.00    -0.269 OA 
HETATM   15  H   UNL     2     -12.072   5.740  69.986  1.00  0.00     0.000 HD 
HETATM   16  O   UNL     2      -9.753   5.629  71.937  1.00  0.00    -0.158 OA 
HETATM   17  C   UNL     2     -10.979   8.776  71.083  1.00  0.00    -0.268 C  
HETATM   18  C   UNL     2     -11.000   7.325  70.752  1.00  0.00    -0.251 C  
HETATM   19  O   UNL     2     -12.058   6.666  70.197  1.00  0.00    -0.323 OA 
ENDBRANCH   8  11
ENDBRANCH   3   8
BRANCH   7  20
HETATM   20  C   UNL     3     -11.728  13.718  68.914  1.00  0.00    -0.336 C  
HETATM   21  O   UNL     3     -11.602  12.305  69.059  1.00  0.00    -0.270 OA 
HETATM   22  H   UNL     3     -12.260  11.863  68.535  1.00  0.00     0.000 HD 
BRANCH  20  23
HETATM   23  C   UNL     3     -12.026  14.148  67.451  1.00  0.00    -0.404 C  
HETATM   24  O   UNL     3     -10.139  16.355  65.562  1.00  0.00    -0.508 OA 
HETATM   25  C   UNL     3     -10.790  14.053  65.508  1.00  0.00    -0.309 C  
HETATM   26  C   UNL     3     -11.683  13.363  66.228  1.00  0.00    -0.366 C  
HETATM   27  O   UNL     3     -10.272  13.696  64.284  1.00  0.00    -0.678 OA 
HETATM   28  O   UNL     3     -11.542  15.470  67.162  1.00  0.00    -0.161 OA 
HETATM   29  C   UNL     3     -10.696  15.399  66.077  1.00  0.00    -0.322 C  
HETATM   30  O   UNL     3     -12.369  12.329  66.057  1.00  0.00    -0.609 OA 
HETATM   31  H   UNL     3     -10.334  12.822  63.915  1.00  0.00     0.000 HD 
ENDBRANCH  20  23
ENDBRANCH   7  20
TORSDOF 4
ENDMDL
MODEL       77
REMARK 921   NORMALIZED FREE ENERGY PREDICTED BY IDOCK:   -5.71 KCAL/MOL
REMARK 922        TOTAL FREE ENERGY PREDICTED BY IDOCK:   -8.97 KCAL/MOL
REMARK 923 INTER-LIGAND FREE ENERGY PREDICTED BY IDOCK:   -6.74 KCAL/MOL
REMARK 924 INTRA-LIGAND FREE ENERGY PREDICTED BY IDOCK:   -2.23 KCAL/MOL
REMARK 927      BINDING AFFINITY PREDICTED BY RF-SCORE:    0.00 PKD
ROOT
HETATM    1 CA   UNL     1      -7.461  13.432  66.536  1.00  0.00    -0.367 Ca 
HETATM    2  O   UNL     2      -9.160   6.712  65.570  1.00  0.00    -0.367 OA 
HETATM    3  C   UNL     2      -8.738   7.978  66.089  1.00  0.00    -0.154 C  
HETATM    4  H   UNL     2      -9.116   6.085  66.283  1.00  0.00     0.000 HD 
HETATM    5  O   UNL     3     -12.750  13.694  65.255  1.00  0.00    -0.583 OA 
HETATM    6  H   UNL     3     -13.449  13.297  64.748  1.00  0.00     0.000 HD 
HETATM    7  C   UNL     3     -11.970  14.497  64.323  1.00  0.00    -0.397 C  
ENDROOT
BRANCH   3   8
HETATM    8  C   UNL     2      -8.807   8.975  64.956  1.00  0.00    -0.170 C  
HETATM    9  H   UNL     2      -7.851   9.248  63.262  1.00  0.00     0.000 HD 
HETATM   10  O   UNL     2      -7.808   8.621  63.974  1.00  0.00    -0.130 OA 
BRANCH   8  11
HETATM   11  C   UNL     2      -8.600  10.455  65.341  1.00  0.00    -0.174 C  
HETATM   12  C   UNL     2      -9.294  11.035  66.548  1.00  0.00    -0.180 C  
HETATM   13  O   UNL     2      -9.321  11.154  64.320  1.00  0.00    -0.210 OA 
HETATM   14  O   UNL     2     -11.611  11.112  64.014  1.00  0.00    -0.027 OA 
HETATM   15  H   UNL     2     -11.571  11.776  67.915  1.00  0.00     0.000 HD 
HETATM   16  O   UNL     2      -8.586  11.415  67.520  1.00  0.00    -0.132 OA 
HETATM   17  C   UNL     2     -10.625  11.077  64.716  1.00  0.00    -0.280 C  
HETATM   18  C   UNL     2     -10.595  11.178  66.201  1.00  0.00    -0.248 C  
HETATM   19  O   UNL     2     -11.590  11.712  66.968  1.00  0.00    -0.500 OA 
ENDBRANCH   8  11
ENDBRANCH   3   8
BRANCH   7  20
HETATM   20  C   UNL     3     -10.842  15.137  65.140  1.00  0.00    -0.422 C  
HETATM   21  O   UNL     3      -9.715  14.264  65.188  1.00  0.00    -0.551 OA 
HETATM   22  H   UNL     3      -9.017  14.661  65.694  1.00  0.00     0.000 HD 
BRANCH  20  23
HETATM   23  C   UNL     3     -11.118  15.837  66.499  1.00  0.00    -0.079 C  
HETATM   24  O   UNL     3     -10.700  14.417  69.631  1.00  0.00    -0.177 OA 
HETATM   25  C   UNL     3      -9.806  16.231  68.352  1.00  0.00    -0.229 C  
HETATM   26  C   UNL     3     -10.193  16.780  67.194  1.00  0.00    -0.295 C  
HETATM   27  O   UNL     3      -9.002  16.812  69.307  1.00  0.00    -0.165 OA 
HETATM   28  O   UNL     3     -11.498  14.904  67.525  1.00  0.00    -0.336 OA 
HETATM   29  C   UNL     3     -10.632  15.046  68.588  1.00  0.00    -0.237 C  
HETATM   30  O   UNL     3     -10.076  17.901  66.648  1.00  0.00    -0.326 OA 
HETATM   31  H   UNL     3      -8.466  17.582  69.154  1.00  0.00     0.000 HD 
ENDBRANCH  20  23
ENDBRANCH   7  20
TORSDOF 4
ENDMDL
MODEL       78
REMARK 921   NORMALIZED FREE ENERGY PREDICTED BY IDOCK:   -5.70 KCAL/MOL
REMARK 922        TOTAL FREE ENERGY PREDICTED BY IDOCK:   -8.96 KCAL/MOL
REMARK 923 INTER-LIGAND FREE ENERGY PREDICTED BY IDOCK:   -7.96 KCAL/MOL
REMARK 924 INTRA-LIGAND FREE ENERGY PREDICTED BY IDOCK:   -1.01 KCAL/MOL
REMARK 927      BINDING AFFINITY PREDICTED BY RF-SCORE:    0.00 PKD
ROOT
HETATM    1 CA   UNL     1     -11.484  16.935  66.712  1.00  0.00    -0.086 Ca 
HETATM    2  O   UNL     2     -12.694  11.318  62.718  1.00  0.00    -0.876 OA 
HETATM    3  C   UNL     2     -12.491  12.637  63.235  1.00  0.00    -0.270 C  
HETATM    4  H   UNL     2     -12.829  11.398  61.781  1.00  0.00     0.000 HD 
HETATM    5  O   UNL     3      -6.863  14.089  67.197  1.00  0.00    -0.407 OA 
HETATM    6  H   UNL     3      -6.484  13.218  67.219  1.00  0.00     0.000 HD 
HETATM    7  C   UNL     3      -7.450  14.317  68.510  1.00  0.00    -0.121 C  
ENDROOT
BRANCH   3   8
HETATM    8  C   UNL     2     -12.276  12.508  64.725  1.00  0.00    -0.465 C  
HETATM    9  H   UNL     2     -12.801  13.534  66.316  1.00  0.00     0.000 HD 
HETATM   10  O   UNL     2     -12.936  13.615  65.379  1.00  0.00    -0.683 OA 
BRANCH   8  11
HETATM   11  C   UNL     2     -10.808  12.476  65.199  1.00  0.00    -0.288 C  
HETATM   12  C   UNL     2     -10.000  11.206  65.098  1.00  0.00    -0.272 C  
HETATM   13  O   UNL     2     -10.931  12.541  66.624  1.00  0.00    -0.251 OA 
HETATM   14  O   UNL     2     -11.849  10.907  67.977  1.00  0.00    -0.585 OA 
HETATM   15  H   UNL     2      -9.499   8.587  65.795  1.00  0.00     0.000 HD 
HETATM   16  O   UNL     2      -9.011  11.188  64.316  1.00  0.00    -0.100 OA 
HETATM   17  C   UNL     2     -11.236  11.262  66.995  1.00  0.00    -0.255 C  
HETATM   18  C   UNL     2     -10.463  10.387  66.071  1.00  0.00    -0.140 C  
HETATM   19  O   UNL     2      -9.992   9.145  66.384  1.00  0.00    -0.259 OA 
ENDBRANCH   8  11
ENDBRANCH   3   8
BRANCH   7  20
HETATM   20  C   UNL     3      -8.062  15.722  68.475  1.00  0.00    -0.153 C  
HETATM   21  O   UNL     3      -7.383  16.576  69.394  1.00  0.00    -0.230 OA 
HETATM   22  H   UNL     3      -7.762  17.446  69.371  1.00  0.00     0.000 HD 
BRANCH  20  23
HETATM   23  C   UNL     3      -9.601  15.940  68.477  1.00  0.00    -0.205 C  
HETATM   24  O   UNL     3     -11.953  13.767  69.797  1.00  0.00    -0.305 OA 
HETATM   25  C   UNL     3     -11.171  15.998  70.163  1.00  0.00    -0.373 C  
HETATM   26  C   UNL     3     -10.356  16.785  69.448  1.00  0.00    -0.276 C  
HETATM   27  O   UNL     3     -12.076  16.406  71.117  1.00  0.00    -0.566 OA 
HETATM   28  O   UNL     3     -10.326  14.700  68.457  1.00  0.00    -0.225 OA 
HETATM   29  C   UNL     3     -11.177  14.672  69.541  1.00  0.00    -0.269 C  
HETATM   30  O   UNL     3     -10.189  18.019  69.315  1.00  0.00    -0.297 OA 
HETATM   31  H   UNL     3     -12.072  17.266  71.519  1.00  0.00     0.000 HD 
ENDBRANCH  20  23
ENDBRANCH   7  20
TORSDOF 4
ENDMDL
MODEL       79
REMARK 921   NORMALIZED FREE ENERGY PREDICTED BY IDOCK:   -5.70 KCAL/MOL
REMARK 922        TOTAL FREE ENERGY PREDICTED BY IDOCK:   -8.96 KCAL/MOL
REMARK 923 INTER-LIGAND FREE ENERGY PREDICTED BY IDOCK:   -7.23 KCAL/MOL
REMARK 924 INTRA-LIGAND FREE ENERGY PREDICTED BY IDOCK:   -1.73 KCAL/MOL
REMARK 927      BINDING AFFINITY PREDICTED BY RF-SCORE:    0.00 PKD
ROOT
HETATM    1 CA   UNL     1      -7.417  14.590  70.691  1.00  0.00    -0.372 Ca 
HETATM    2  O   UNL     2     -14.407  14.843  70.890  1.00  0.00    -0.611 OA 
HETATM    3  C   UNL     2     -13.006  14.902  71.178  1.00  0.00    -0.367 C  
HETATM    4  H   UNL     2     -14.868  15.154  71.661  1.00  0.00     0.000 HD 
HETATM    5  O   UNL     3      -8.605  18.232  66.816  1.00  0.00    -0.246 OA 
HETATM    6  H   UNL     3      -9.236  18.484  66.153  1.00  0.00     0.000 HD 
HETATM    7  C   UNL     3      -7.829  17.137  66.252  1.00  0.00    -0.316 C  
ENDROOT
BRANCH   3   8
HETATM    8  C   UNL     2     -12.274  14.408  69.952  1.00  0.00    -0.340 C  
HETATM    9  H   UNL     2     -11.543  12.688  69.347  1.00  0.00     0.000 HD 
HETATM   10  O   UNL     2     -12.004  12.998  70.118  1.00  0.00    -0.336 OA 
BRANCH   8  11
HETATM   11  C   UNL     2     -10.942  15.117  69.625  1.00  0.00    -0.281 C  
HETATM   12  C   UNL     2     -10.892  16.204  68.580  1.00  0.00    -0.311 C  
HETATM   13  O   UNL     2     -10.208  14.109  68.923  1.00  0.00    -0.230 OA 
HETATM   14  O   UNL     2     -10.746  13.241  66.850  1.00  0.00    -0.269 OA 
HETATM   15  H   UNL     2     -11.134  17.082  65.978  1.00  0.00     0.000 HD 
HETATM   16  O   UNL     2     -10.612  17.377  68.951  1.00  0.00    -0.328 OA 
HETATM   17  C   UNL     2     -10.712  14.145  67.655  1.00  0.00    -0.257 C  
HETATM   18  C   UNL     2     -10.998  15.580  67.383  1.00  0.00    -0.306 C  
HETATM   19  O   UNL     2     -10.952  16.167  66.151  1.00  0.00    -0.191 OA 
ENDBRANCH   8  11
ENDBRANCH   3   8
BRANCH   7  20
HETATM   20  C   UNL     3      -6.810  16.729  67.323  1.00  0.00    -0.171 C  
HETATM   21  O   UNL     3      -7.405  15.813  68.241  1.00  0.00    -0.115 OA 
HETATM   22  H   UNL     3      -6.774  15.560  68.904  1.00  0.00     0.000 HD 
BRANCH  20  23
HETATM   23  C   UNL     3      -5.902  17.777  68.024  1.00  0.00    -0.156 C  
HETATM   24  O   UNL     3      -6.225  21.218  67.787  1.00  0.00    -0.347 OA 
HETATM   25  C   UNL     3      -6.347  19.518  69.467  1.00  0.00    -0.320 C  
HETATM   26  C   UNL     3      -6.023  18.219  69.444  1.00  0.00    -0.247 C  
HETATM   27  O   UNL     3      -6.489  20.309  70.585  1.00  0.00    -0.448 OA 
HETATM   28  O   UNL     3      -5.818  19.007  67.283  1.00  0.00    -0.170 OA 
HETATM   29  C   UNL     3      -6.209  20.040  68.106  1.00  0.00    -0.252 C  
HETATM   30  O   UNL     3      -5.679  17.364  70.293  1.00  0.00    -0.242 OA 
HETATM   31  H   UNL     3      -6.577  19.969  71.468  1.00  0.00     0.000 HD 
ENDBRANCH  20  23
ENDBRANCH   7  20
TORSDOF 4
ENDMDL
MODEL       80
REMARK 921   NORMALIZED FREE ENERGY PREDICTED BY IDOCK:   -5.68 KCAL/MOL
REMARK 922        TOTAL FREE ENERGY PREDICTED BY IDOCK:   -8.94 KCAL/MOL
REMARK 923 INTER-LIGAND FREE ENERGY PREDICTED BY IDOCK:   -7.67 KCAL/MOL
REMARK 924 INTRA-LIGAND FREE ENERGY PREDICTED BY IDOCK:   -1.27 KCAL/MOL
REMARK 927      BINDING AFFINITY PREDICTED BY RF-SCORE:    0.00 PKD
ROOT
HETATM    1 CA   UNL     1      -8.052  12.612  68.796  1.00  0.00    -0.120 Ca 
HETATM    2  O   UNL     2     -11.778  12.901  62.879  1.00  0.00    -0.776 OA 
HETATM    3  C   UNL     2     -10.748  12.816  63.870  1.00  0.00    -0.409 C  
HETATM    4  H   UNL     2     -11.362  12.818  62.029  1.00  0.00     0.000 HD 
HETATM    5  O   UNL     3     -11.277   8.237  69.183  1.00  0.00    -0.423 OA 
HETATM    6  H   UNL     3     -12.129   7.877  68.968  1.00  0.00     0.000 HD 
HETATM    7  C   UNL     3     -11.475   9.108  70.334  1.00  0.00    -0.194 C  
ENDROOT
BRANCH   3   8
HETATM    8  C   UNL     2     -11.411  12.949  65.221  1.00  0.00    -0.300 C  
HETATM    9  H   UNL     2     -13.097  12.343  66.027  1.00  0.00     0.000 HD 
HETATM   10  O   UNL     2     -12.680  12.259  65.177  1.00  0.00    -0.571 OA 
BRANCH   8  11
HETATM   11  C   UNL     2     -11.663  14.389  65.715  1.00  0.00    -0.362 C  
HETATM   12  C   UNL     2     -10.548  15.405  65.706  1.00  0.00    -0.348 C  
HETATM   13  O   UNL     2     -11.793  14.223  67.131  1.00  0.00    -0.390 OA 
HETATM   14  O   UNL     2     -10.112  13.568  68.575  1.00  0.00    -0.234 OA 
HETATM   15  H   UNL     2      -8.103  16.333  66.578  1.00  0.00     0.000 HD 
HETATM   16  O   UNL     2     -10.654  16.401  64.940  1.00  0.00    -0.677 OA 
HETATM   17  C   UNL     2     -10.506  14.133  67.580  1.00  0.00    -0.249 C  
HETATM   18  C   UNL     2      -9.723  15.067  66.725  1.00  0.00    -0.241 C  
HETATM   19  O   UNL     2      -8.603  15.737  67.123  1.00  0.00    -0.175 OA 
ENDBRANCH   8  11
ENDBRANCH   3   8
BRANCH   7  20
HETATM   20  C   UNL     3     -10.100   9.689  70.681  1.00  0.00    -0.256 C  
HETATM   21  O   UNL     3      -9.724  10.668  69.714  1.00  0.00    -0.426 OA 
HETATM   22  H   UNL     3      -8.872  11.029  69.929  1.00  0.00     0.000 HD 
BRANCH  20  23
HETATM   23  C   UNL     3      -8.915   8.779  71.106  1.00  0.00    -0.222 C  
HETATM   24  O   UNL     3      -8.339   7.561  74.297  1.00  0.00    -0.174 OA 
HETATM   25  C   UNL     3      -8.814   6.708  72.113  1.00  0.00    -0.134 C  
HETATM   26  C   UNL     3      -8.843   7.300  70.912  1.00  0.00    -0.149 C  
HETATM   27  O   UNL     3      -8.687   5.360  72.359  1.00  0.00    -0.124 OA 
HETATM   28  O   UNL     3      -8.550   8.967  72.483  1.00  0.00    -0.396 OA 
HETATM   29  C   UNL     3      -8.615   7.748  73.124  1.00  0.00    -0.177 C  
HETATM   30  O   UNL     3      -8.691   6.931  69.725  1.00  0.00    -0.140 OA 
HETATM   31  H   UNL     3      -8.816   4.685  71.702  1.00  0.00     0.000 HD 
ENDBRANCH  20  23
ENDBRANCH   7  20
TORSDOF 4
ENDMDL
MODEL       81
REMARK 921   NORMALIZED FREE ENERGY PREDICTED BY IDOCK:   -5.68 KCAL/MOL
REMARK 922        TOTAL FREE ENERGY PREDICTED BY IDOCK:   -8.93 KCAL/MOL
REMARK 923 INTER-LIGAND FREE ENERGY PREDICTED BY IDOCK:   -8.28 KCAL/MOL
REMARK 924 INTRA-LIGAND FREE ENERGY PREDICTED BY IDOCK:   -0.65 KCAL/MOL
REMARK 927      BINDING AFFINITY PREDICTED BY RF-SCORE:    0.00 PKD
ROOT
HETATM    1 CA   UNL     1      -6.007  17.214  65.193  1.00  0.00     0.042 Ca 
HETATM    2  O   UNL     2      -9.837  11.784  67.386  1.00  0.00    -0.177 OA 
HETATM    3  C   UNL     2      -8.788  12.699  67.048  1.00  0.00    -0.212 C  
HETATM    4  H   UNL     2      -9.433  11.032  67.805  1.00  0.00     0.000 HD 
HETATM    5  O   UNL     3      -9.138  19.428  69.063  1.00  0.00    -0.358 OA 
HETATM    6  H   UNL     3      -9.986  19.399  69.489  1.00  0.00     0.000 HD 
HETATM    7  C   UNL     3      -9.334  20.128  67.801  1.00  0.00    -0.336 C  
ENDROOT
BRANCH   3   8
HETATM    8  C   UNL     2      -9.431  13.893  66.382  1.00  0.00    -0.250 C  
HETATM    9  H   UNL     2      -9.215  15.844  66.480  1.00  0.00     0.000 HD 
HETATM   10  O   UNL     2      -8.811  15.092  66.898  1.00  0.00    -0.222 OA 
BRANCH   8  11
HETATM   11  C   UNL     2     -10.958  14.028  66.559  1.00  0.00    -0.306 C  
HETATM   12  C   UNL     2     -11.900  13.419  65.551  1.00  0.00    -0.363 C  
HETATM   13  O   UNL     2     -11.193  15.410  66.267  1.00  0.00    -0.282 OA 
HETATM   14  O   UNL     2     -10.912  16.423  64.209  1.00  0.00    -0.788 OA 
HETATM   15  H   UNL     2     -12.962  13.255  63.011  1.00  0.00     0.000 HD 
HETATM   16  O   UNL     2     -12.649  12.476  65.925  1.00  0.00    -0.514 OA 
HETATM   17  C   UNL     2     -11.193  15.471  64.903  1.00  0.00    -0.389 C  
HETATM   18  C   UNL     2     -11.832  14.205  64.450  1.00  0.00    -0.428 C  
HETATM   19  O   UNL     2     -12.554  14.063  63.300  1.00  0.00    -0.801 OA 
ENDBRANCH   8  11
ENDBRANCH   3   8
BRANCH   7  20
HETATM   20  C   UNL     3      -7.965  20.175  67.114  1.00  0.00    -0.326 C  
HETATM   21  O   UNL     3      -8.008  19.452  65.885  1.00  0.00    -0.399 OA 
HETATM   22  H   UNL     3      -7.160  19.482  65.459  1.00  0.00     0.000 HD 
BRANCH  20  23
HETATM   23  C   UNL     3      -6.648  19.938  67.904  1.00  0.00    -0.242 C  
HETATM   24  O   UNL     3      -6.203  20.453  71.301  1.00  0.00    -0.589 OA 
HETATM   25  C   UNL     3      -6.136  18.641  69.739  1.00  0.00    -0.234 C  
HETATM   26  C   UNL     3      -6.160  18.617  68.401  1.00  0.00    -0.212 C  
HETATM   27  O   UNL     3      -5.689  17.638  70.569  1.00  0.00    -0.223 OA 
HETATM   28  O   UNL     3      -6.535  20.802  69.047  1.00  0.00    -0.203 OA 
HETATM   29  C   UNL     3      -6.359  20.023  70.169  1.00  0.00    -0.333 C  
HETATM   30  O   UNL     3      -5.757  17.835  67.509  1.00  0.00    -0.136 OA 
HETATM   31  H   UNL     3      -5.544  16.742  70.289  1.00  0.00     0.000 HD 
ENDBRANCH  20  23
ENDBRANCH   7  20
TORSDOF 4
ENDMDL
MODEL       82
REMARK 921   NORMALIZED FREE ENERGY PREDICTED BY IDOCK:   -5.67 KCAL/MOL
REMARK 922        TOTAL FREE ENERGY PREDICTED BY IDOCK:   -8.93 KCAL/MOL
REMARK 923 INTER-LIGAND FREE ENERGY PREDICTED BY IDOCK:   -7.14 KCAL/MOL
REMARK 924 INTRA-LIGAND FREE ENERGY PREDICTED BY IDOCK:   -1.79 KCAL/MOL
REMARK 927      BINDING AFFINITY PREDICTED BY RF-SCORE:    0.00 PKD
ROOT
HETATM    1 CA   UNL     1     -13.003   9.588  70.430  1.00  0.00    -0.451 Ca 
HETATM    2  O   UNL     2     -10.731   3.933  73.869  1.00  0.00    -0.195 OA 
HETATM    3  C   UNL     2     -11.495   4.913  73.157  1.00  0.00    -0.278 C  
HETATM    4  H   UNL     2     -11.296   3.182  74.011  1.00  0.00     0.000 HD 
HETATM    5  O   UNL     3      -9.029   7.727  67.201  1.00  0.00    -0.122 OA 
HETATM    6  H   UNL     3      -8.191   7.281  67.177  1.00  0.00     0.000 HD 
HETATM    7  C   UNL     3      -8.753   9.102  67.591  1.00  0.00    -0.120 C  
ENDROOT
BRANCH   3   8
HETATM    8  C   UNL     2     -10.597   6.107  72.931  1.00  0.00    -0.232 C  
HETATM    9  H   UNL     2      -9.664   7.402  74.075  1.00  0.00     0.000 HD 
HETATM   10  O   UNL     2     -10.228   6.652  74.217  1.00  0.00    -0.349 OA 
BRANCH   8  11
HETATM   11  C   UNL     2     -11.187   7.248  72.076  1.00  0.00    -0.250 C  
HETATM   12  C   UNL     2     -11.961   6.939  70.819  1.00  0.00    -0.373 C  
HETATM   13  O   UNL     2     -10.025   7.832  71.477  1.00  0.00    -0.169 OA 
HETATM   14  O   UNL     2      -8.646   6.812  69.929  1.00  0.00    -0.138 OA 
HETATM   15  H   UNL     2     -12.125   5.941  68.254  1.00  0.00     0.000 HD 
HETATM   16  O   UNL     2     -13.188   7.228  70.786  1.00  0.00    -0.103 OA 
HETATM   17  C   UNL     2      -9.730   7.001  70.435  1.00  0.00    -0.176 C  
HETATM   18  C   UNL     2     -11.045   6.555  69.898  1.00  0.00    -0.371 C  
HETATM   19  O   UNL     2     -11.286   6.225  68.596  1.00  0.00    -0.337 OA 
ENDBRANCH   8  11
ENDBRANCH   3   8
BRANCH   7  20
HETATM   20  C   UNL     3     -10.106   9.822  67.630  1.00  0.00    -0.190 C  
HETATM   21  O   UNL     3     -11.152   8.918  67.280  1.00  0.00    -0.373 OA 
HETATM   22  H   UNL     3     -11.991   9.364  67.304  1.00  0.00     0.000 HD 
BRANCH  20  23
HETATM   23  C   UNL     3     -10.297  11.232  67.005  1.00  0.00    -0.227 C  
HETATM   24  O   UNL     3     -10.414  11.948  63.618  1.00  0.00    -0.362 OA 
HETATM   25  C   UNL     3     -11.844  12.095  65.531  1.00  0.00    -0.286 C  
HETATM   26  C   UNL     3     -11.601  11.939  66.838  1.00  0.00    -0.285 C  
HETATM   27  O   UNL     3     -12.914  12.753  64.969  1.00  0.00    -0.811 OA 
HETATM   28  O   UNL     3      -9.673  11.345  65.715  1.00  0.00    -0.216 OA 
HETATM   29  C   UNL     3     -10.626  11.736  64.801  1.00  0.00    -0.301 C  
HETATM   30  O   UNL     3     -12.118  12.349  67.903  1.00  0.00    -0.428 OA 
HETATM   31  H   UNL     3     -13.703  12.987  65.443  1.00  0.00     0.000 HD 
ENDBRANCH  20  23
ENDBRANCH   7  20
TORSDOF 4
ENDMDL
MODEL       83
REMARK 921   NORMALIZED FREE ENERGY PREDICTED BY IDOCK:   -5.67 KCAL/MOL
REMARK 922        TOTAL FREE ENERGY PREDICTED BY IDOCK:   -8.92 KCAL/MOL
REMARK 923 INTER-LIGAND FREE ENERGY PREDICTED BY IDOCK:   -7.18 KCAL/MOL
REMARK 924 INTRA-LIGAND FREE ENERGY PREDICTED BY IDOCK:   -1.74 KCAL/MOL
REMARK 927      BINDING AFFINITY PREDICTED BY RF-SCORE:    0.00 PKD
ROOT
HETATM    1 CA   UNL     1     -10.447  15.379  63.856  1.00  0.00    -0.552 Ca 
HETATM    2  O   UNL     2      -7.688  20.891  67.170  1.00  0.00    -0.510 OA 
HETATM    3  C   UNL     2      -8.474  20.001  66.368  1.00  0.00    -0.296 C  
HETATM    4  H   UNL     2      -8.076  21.755  67.097  1.00  0.00     0.000 HD 
HETATM    5  O   UNL     3     -11.032  14.050  69.108  1.00  0.00    -0.245 OA 
HETATM    6  H   UNL     3     -10.657  14.127  69.977  1.00  0.00     0.000 HD 
HETATM    7  C   UNL     3     -10.263  13.025  68.416  1.00  0.00    -0.245 C  
ENDROOT
BRANCH   3   8
HETATM    8  C   UNL     2      -7.857  18.627  66.485  1.00  0.00    -0.268 C  
HETATM    9  H   UNL     2      -6.178  17.784  65.910  1.00  0.00     0.000 HD 
HETATM   10  O   UNL     2      -6.566  18.649  65.837  1.00  0.00    -0.215 OA 
BRANCH   8  11
HETATM   11  C   UNL     2      -8.676  17.463  65.888  1.00  0.00     0.074 C  
HETATM   12  C   UNL     2     -10.164  17.379  66.118  1.00  0.00    -0.328 C  
HETATM   13  O   UNL     2      -8.270  16.345  66.685  1.00  0.00    -0.218 OA 
HETATM   14  O   UNL     2      -8.708  16.060  68.936  1.00  0.00    -0.208 OA 
HETATM   15  H   UNL     2     -12.351  17.079  67.771  1.00  0.00     0.000 HD 
HETATM   16  O   UNL     2     -10.930  17.497  65.124  1.00  0.00    -0.621 OA 
HETATM   17  C   UNL     2      -8.998  16.467  67.833  1.00  0.00    -0.205 C  
HETATM   18  C   UNL     2     -10.324  16.995  67.407  1.00  0.00    -0.319 C  
HETATM   19  O   UNL     2     -11.505  16.744  68.042  1.00  0.00    -0.121 OA 
ENDBRANCH   8  11
ENDBRANCH   3   8
BRANCH   7  20
HETATM   20  C   UNL     3     -10.869  12.900  67.013  1.00  0.00    -0.260 C  
HETATM   21  O   UNL     3     -11.934  13.836  66.854  1.00  0.00    -0.388 OA 
HETATM   22  H   UNL     3     -12.309  13.758  65.985  1.00  0.00     0.000 HD 
BRANCH  20  23
HETATM   23  C   UNL     3     -11.188  11.515  66.385  1.00  0.00    -0.243 C  
HETATM   24  O   UNL     3     -10.006  10.349  63.344  1.00  0.00    -0.267 OA 
HETATM   25  C   UNL     3      -9.855   9.779  65.663  1.00  0.00    -0.301 C  
HETATM   26  C   UNL     3     -10.519  10.228  66.736  1.00  0.00    -0.214 C  
HETATM   27  O   UNL     3      -9.162   8.594  65.564  1.00  0.00    -0.356 OA 
HETATM   28  O   UNL     3     -11.148  11.547  64.948  1.00  0.00    -0.284 OA 
HETATM   29  C   UNL     3     -10.251  10.595  64.514  1.00  0.00    -0.329 C  
HETATM   30  O   UNL     3     -10.810   9.774  67.866  1.00  0.00    -0.266 OA 
HETATM   31  H   UNL     3      -8.905   8.064  66.311  1.00  0.00     0.000 HD 
ENDBRANCH  20  23
ENDBRANCH   7  20
TORSDOF 4
ENDMDL
MODEL       84
REMARK 921   NORMALIZED FREE ENERGY PREDICTED BY IDOCK:   -5.67 KCAL/MOL
REMARK 922        TOTAL FREE ENERGY PREDICTED BY IDOCK:   -8.92 KCAL/MOL
REMARK 923 INTER-LIGAND FREE ENERGY PREDICTED BY IDOCK:   -7.97 KCAL/MOL
REMARK 924 INTRA-LIGAND FREE ENERGY PREDICTED BY IDOCK:   -0.95 KCAL/MOL
REMARK 927      BINDING AFFINITY PREDICTED BY RF-SCORE:    0.00 PKD
ROOT
HETATM    1 CA   UNL     1     -11.792  16.630  67.766  1.00  0.00    -0.192 Ca 
HETATM    2  O   UNL     2     -12.492  11.528  63.028  1.00  0.00    -0.982 OA 
HETATM    3  C   UNL     2     -12.460  12.772  63.736  1.00  0.00    -0.383 C  
HETATM    4  H   UNL     2     -12.757  11.717  62.135  1.00  0.00     0.000 HD 
HETATM    5  O   UNL     3      -6.718  14.696  67.314  1.00  0.00    -0.299 OA 
HETATM    6  H   UNL     3      -6.191  13.922  67.153  1.00  0.00     0.000 HD 
HETATM    7  C   UNL     3      -7.163  14.612  68.698  1.00  0.00    -0.122 C  
ENDROOT
BRANCH   3   8
HETATM    8  C   UNL     2     -12.038  12.471  65.156  1.00  0.00    -0.446 C  
HETATM    9  H   UNL     2     -12.148  13.400  66.883  1.00  0.00     0.000 HD 
HETATM   10  O   UNL     2     -12.414  13.589  65.991  1.00  0.00    -0.432 OA 
BRANCH   8  11
HETATM   11  C   UNL     2     -10.535  12.194  65.372  1.00  0.00    -0.270 C  
HETATM   12  C   UNL     2      -9.958  10.834  65.069  1.00  0.00    -0.300 C  
HETATM   13  O   UNL     2     -10.418  12.166  66.799  1.00  0.00    -0.215 OA 
HETATM   14  O   UNL     2     -11.348  10.581  68.200  1.00  0.00    -0.297 OA 
HETATM   15  H   UNL     2      -9.759   8.124  65.535  1.00  0.00     0.000 HD 
HETATM   16  O   UNL     2      -9.120  10.735  64.132  1.00  0.00    -0.199 OA 
HETATM   17  C   UNL     2     -10.853  10.920  67.148  1.00  0.00    -0.280 C  
HETATM   18  C   UNL     2     -10.380  10.017  66.063  1.00  0.00    -0.152 C  
HETATM   19  O   UNL     2     -10.061   8.700  66.227  1.00  0.00    -0.277 OA 
ENDBRANCH   8  11
ENDBRANCH   3   8
BRANCH   7  20
HETATM   20  C   UNL     3      -8.013  15.861  68.957  1.00  0.00    -0.222 C  
HETATM   21  O   UNL     3      -9.321  15.484  69.384  1.00  0.00    -0.254 OA 
HETATM   22  H   UNL     3      -9.847  16.258  69.545  1.00  0.00     0.000 HD 
BRANCH  20  23
HETATM   23  C   UNL     3      -8.026  17.058  67.966  1.00  0.00    -0.195 C  
HETATM   24  O   UNL     3     -10.524  17.759  65.670  1.00  0.00    -0.613 OA 
HETATM   25  C   UNL     3      -9.525  18.768  67.596  1.00  0.00    -0.300 C  
HETATM   26  C   UNL     3      -8.428  18.456  68.298  1.00  0.00    -0.303 C  
HETATM   27  O   UNL     3     -10.168  19.985  67.577  1.00  0.00    -0.403 OA 
HETATM   28  O   UNL     3      -8.758  16.761  66.765  1.00  0.00    -0.200 OA 
HETATM   29  C   UNL     3      -9.744  17.710  66.607  1.00  0.00    -0.301 C  
HETATM   30  O   UNL     3      -7.621  19.078  69.026  1.00  0.00    -0.330 OA 
HETATM   31  H   UNL     3     -10.025  20.672  68.219  1.00  0.00     0.000 HD 
ENDBRANCH  20  23
ENDBRANCH   7  20
TORSDOF 4
ENDMDL
MODEL       85
REMARK 921   NORMALIZED FREE ENERGY PREDICTED BY IDOCK:   -5.66 KCAL/MOL
REMARK 922        TOTAL FREE ENERGY PREDICTED BY IDOCK:   -8.91 KCAL/MOL
REMARK 923 INTER-LIGAND FREE ENERGY PREDICTED BY IDOCK:   -7.24 KCAL/MOL
REMARK 924 INTRA-LIGAND FREE ENERGY PREDICTED BY IDOCK:   -1.68 KCAL/MOL
REMARK 927      BINDING AFFINITY PREDICTED BY RF-SCORE:    0.00 PKD
ROOT
HETATM    1 CA   UNL     1     -11.155  10.658  63.946  1.00  0.00    -0.421 Ca 
HETATM    2  O   UNL     2      -7.978   5.668  67.685  1.00  0.00    -0.100 OA 
HETATM    3  C   UNL     2      -8.346   6.659  66.719  1.00  0.00    -0.115 C  
HETATM    4  H   UNL     2      -7.118   5.343  67.444  1.00  0.00     0.000 HD 
HETATM    5  O   UNL     3     -10.410  13.059  68.780  1.00  0.00    -0.355 OA 
HETATM    6  H   UNL     3     -10.364  12.922  69.719  1.00  0.00     0.000 HD 
HETATM    7  C   UNL     3     -11.824  13.064  68.433  1.00  0.00    -0.334 C  
ENDROOT
BRANCH   3   8
HETATM    8  C   UNL     2      -9.713   7.176  67.104  1.00  0.00    -0.164 C  
HETATM    9  H   UNL     2     -11.533   6.439  67.154  1.00  0.00     0.000 HD 
HETATM   10  O   UNL     2     -10.673   6.114  66.913  1.00  0.00    -0.287 OA 
BRANCH   8  11
HETATM   11  C   UNL     2     -10.209   8.418  66.333  1.00  0.00    -0.098 C  
HETATM   12  C   UNL     2      -9.242   9.501  65.926  1.00  0.00    -0.206 C  
HETATM   13  O   UNL     2     -10.938   9.142  67.331  1.00  0.00    -0.170 OA 
HETATM   14  O   UNL     2     -10.031  10.141  69.207  1.00  0.00    -0.195 OA 
HETATM   15  H   UNL     2      -7.460  11.516  66.530  1.00  0.00     0.000 HD 
HETATM   16  O   UNL     2      -9.041   9.691  64.695  1.00  0.00    -0.223 OA 
HETATM   17  C   UNL     2      -9.973   9.788  68.050  1.00  0.00    -0.158 C  
HETATM   18  C   UNL     2      -8.932  10.174  67.059  1.00  0.00    -0.135 C  
HETATM   19  O   UNL     2      -8.124  11.269  67.162  1.00  0.00    -0.137 OA 
ENDBRANCH   8  11
ENDBRANCH   3   8
BRANCH   7  20
HETATM   20  C   UNL     3     -11.898  13.287  66.918  1.00  0.00    -0.392 C  
HETATM   21  O   UNL     3     -12.132  12.047  66.251  1.00  0.00    -0.596 OA 
HETATM   22  H   UNL     3     -12.178  12.185  65.313  1.00  0.00     0.000 HD 
BRANCH  20  23
HETATM   23  C   UNL     3     -10.869  14.183  66.175  1.00  0.00    -0.296 C  
HETATM   24  O   UNL     3     -11.588  16.396  63.609  1.00  0.00    -0.926 OA 
HETATM   25  C   UNL     3     -10.729  16.459  65.841  1.00  0.00    -0.214 C  
HETATM   26  C   UNL     3     -10.334  15.486  66.671  1.00  0.00    -0.286 C  
HETATM   27  O   UNL     3     -10.391  17.791  65.920  1.00  0.00    -0.517 OA 
HETATM   28  O   UNL     3     -11.266  14.463  64.822  1.00  0.00    -0.366 OA 
HETATM   29  C   UNL     3     -11.311  15.830  64.654  1.00  0.00    -0.337 C  
HETATM   30  O   UNL     3      -9.547  15.397  67.641  1.00  0.00    -0.209 OA 
HETATM   31  H   UNL     3     -10.013  18.199  66.690  1.00  0.00     0.000 HD 
ENDBRANCH  20  23
ENDBRANCH   7  20
TORSDOF 4
ENDMDL
MODEL       86
REMARK 921   NORMALIZED FREE ENERGY PREDICTED BY IDOCK:   -5.66 KCAL/MOL
REMARK 922        TOTAL FREE ENERGY PREDICTED BY IDOCK:   -8.91 KCAL/MOL
REMARK 923 INTER-LIGAND FREE ENERGY PREDICTED BY IDOCK:   -6.70 KCAL/MOL
REMARK 924 INTRA-LIGAND FREE ENERGY PREDICTED BY IDOCK:   -2.21 KCAL/MOL
REMARK 927      BINDING AFFINITY PREDICTED BY RF-SCORE:    0.00 PKD
ROOT
HETATM    1 CA   UNL     1     -11.615   7.899  67.972  1.00  0.00    -0.434 Ca 
HETATM    2  O   UNL     2      -9.117  12.096  62.961  1.00  0.00    -0.569 OA 
HETATM    3  C   UNL     2      -9.915  11.429  63.946  1.00  0.00    -0.315 C  
HETATM    4  H   UNL     2      -9.638  12.809  62.609  1.00  0.00     0.000 HD 
HETATM    5  O   UNL     3      -7.412  10.346  70.429  1.00  0.00    -0.430 OA 
HETATM    6  H   UNL     3      -6.547  10.717  70.305  1.00  0.00     0.000 HD 
HETATM    7  C   UNL     3      -7.240   8.900  70.465  1.00  0.00    -0.071 C  
ENDROOT
BRANCH   3   8
HETATM    8  C   UNL     2      -9.087  10.296  64.504  1.00  0.00    -0.234 C  
HETATM    9  H   UNL     2      -8.434   8.568  63.835  1.00  0.00     0.000 HD 
HETATM   10  O   UNL     2      -8.955   9.281  63.484  1.00  0.00    -0.186 OA 
BRANCH   8  11
HETATM   11  C   UNL     2      -9.630   9.625  65.783  1.00  0.00    -0.263 C  
HETATM   12  C   UNL     2     -10.247  10.457  66.879  1.00  0.00    -0.227 C  
HETATM   13  O   UNL     2      -8.436   9.221  66.463  1.00  0.00    -0.123 OA 
HETATM   14  O   UNL     2      -6.852  10.639  67.368  1.00  0.00    -0.074 OA 
HETATM   15  H   UNL     2     -10.084  12.374  68.854  1.00  0.00     0.000 HD 
HETATM   16  O   UNL     2     -11.474  10.306  67.126  1.00  0.00    -0.181 OA 
HETATM   17  C   UNL     2      -7.992  10.361  67.069  1.00  0.00    -0.116 C  
HETATM   18  C   UNL     2      -9.219  11.087  67.496  1.00  0.00    -0.145 C  
HETATM   19  O   UNL     2      -9.301  11.911  68.581  1.00  0.00    -0.165 OA 
ENDBRANCH   8  11
ENDBRANCH   3   8
BRANCH   7  20
HETATM   20  C   UNL     3      -8.636   8.301  70.665  1.00  0.00    -0.136 C  
HETATM   21  O   UNL     3      -9.196   7.930  69.407  1.00  0.00    -0.146 OA 
HETATM   22  H   UNL     3     -10.061   7.558  69.531  1.00  0.00     0.000 HD 
BRANCH  20  23
HETATM   23  C   UNL     3      -9.676   8.959  71.614  1.00  0.00    -0.309 C  
HETATM   24  O   UNL     3     -12.727  10.294  70.662  1.00  0.00    -0.327 OA 
HETATM   25  C   UNL     3     -11.899   8.525  72.043  1.00  0.00    -0.362 C  
HETATM   26  C   UNL     3     -10.663   8.227  72.462  1.00  0.00    -0.341 C  
HETATM   27  O   UNL     3     -13.081   8.099  72.606  1.00  0.00    -0.571 OA 
HETATM   28  O   UNL     3     -10.465   9.958  70.947  1.00  0.00    -0.286 OA 
HETATM   29  C   UNL     3     -11.796   9.632  71.090  1.00  0.00    -0.367 C  
HETATM   30  O   UNL     3     -10.168   7.618  73.439  1.00  0.00    -0.323 OA 
HETATM   31  H   UNL     3     -13.146   7.381  73.224  1.00  0.00     0.000 HD 
ENDBRANCH  20  23
ENDBRANCH   7  20
TORSDOF 4
ENDMDL
MODEL       87
REMARK 921   NORMALIZED FREE ENERGY PREDICTED BY IDOCK:   -5.63 KCAL/MOL
REMARK 922        TOTAL FREE ENERGY PREDICTED BY IDOCK:   -8.88 KCAL/MOL
REMARK 923 INTER-LIGAND FREE ENERGY PREDICTED BY IDOCK:   -7.92 KCAL/MOL
REMARK 924 INTRA-LIGAND FREE ENERGY PREDICTED BY IDOCK:   -0.96 KCAL/MOL
REMARK 927      BINDING AFFINITY PREDICTED BY RF-SCORE:    0.00 PKD
ROOT
HETATM    1 CA   UNL     1     -11.577   8.409  67.318  1.00  0.00    -0.469 Ca 
HETATM    2  O   UNL     2     -10.077   7.353  74.071  1.00  0.00    -0.402 OA 
HETATM    3  C   UNL     2     -10.167   7.301  72.642  1.00  0.00    -0.212 C  
HETATM    4  H   UNL     2      -9.454   6.688  74.339  1.00  0.00     0.000 HD 
HETATM    5  O   UNL     3      -9.282  13.124  68.797  1.00  0.00    -0.388 OA 
HETATM    6  H   UNL     3      -9.160  13.740  69.509  1.00  0.00     0.000 HD 
HETATM    7  C   UNL     3     -10.618  13.362  68.270  1.00  0.00    -0.254 C  
ENDROOT
BRANCH   3   8
HETATM    8  C   UNL     2     -11.158   8.359  72.216  1.00  0.00    -0.368 C  
HETATM    9  H   UNL     2     -12.930   8.953  72.821  1.00  0.00     0.000 HD 
HETATM   10  O   UNL     2     -12.307   8.288  73.090  1.00  0.00    -0.097 OA 
BRANCH   8  11
HETATM   11  C   UNL     2     -11.657   8.272  70.757  1.00  0.00    -0.236 C  
HETATM   12  C   UNL     2     -10.943   7.398  69.757  1.00  0.00    -0.200 C  
HETATM   13  O   UNL     2     -11.300   9.551  70.221  1.00  0.00    -0.247 OA 
HETATM   14  O   UNL     2      -9.148  10.323  69.888  1.00  0.00    -0.143 OA 
HETATM   15  H   UNL     2      -8.729   6.745  68.249  1.00  0.00     0.000 HD 
HETATM   16  O   UNL     2     -11.559   6.405  69.284  1.00  0.00    -0.354 OA 
HETATM   17  C   UNL     2      -9.970   9.436  69.933  1.00  0.00    -0.212 C  
HETATM   18  C   UNL     2      -9.788   8.038  69.456  1.00  0.00    -0.181 C  
HETATM   19  O   UNL     2      -8.846   7.637  68.554  1.00  0.00    -0.131 OA 
ENDBRANCH   8  11
ENDBRANCH   3   8
BRANCH   7  20
HETATM   20  C   UNL     3     -10.816  12.368  67.120  1.00  0.00    -0.245 C  
HETATM   21  O   UNL     3      -9.964  11.237  67.299  1.00  0.00    -0.180 OA 
HETATM   22  H   UNL     3     -10.087  10.621  66.587  1.00  0.00     0.000 HD 
BRANCH  20  23
HETATM   23  C   UNL     3     -10.888  12.837  65.641  1.00  0.00    -0.273 C  
HETATM   24  O   UNL     3      -9.625  11.124  62.908  1.00  0.00    -0.330 OA 
HETATM   25  C   UNL     3     -11.744  11.870  63.732  1.00  0.00    -0.457 C  
HETATM   26  C   UNL     3     -12.069  12.689  64.740  1.00  0.00    -0.436 C  
HETATM   27  O   UNL     3     -12.539  11.532  62.661  1.00  0.00    -0.752 OA 
HETATM   28  O   UNL     3      -9.789  12.341  64.858  1.00  0.00    -0.219 OA 
HETATM   29  C   UNL     3     -10.297  11.648  63.781  1.00  0.00    -0.398 C  
HETATM   30  O   UNL     3     -13.038  13.433  65.016  1.00  0.00    -0.734 OA 
HETATM   31  H   UNL     3     -13.478  11.677  62.629  1.00  0.00     0.000 HD 
ENDBRANCH  20  23
ENDBRANCH   7  20
TORSDOF 4
ENDMDL
MODEL       88
REMARK 921   NORMALIZED FREE ENERGY PREDICTED BY IDOCK:   -5.63 KCAL/MOL
REMARK 922        TOTAL FREE ENERGY PREDICTED BY IDOCK:   -8.87 KCAL/MOL
REMARK 923 INTER-LIGAND FREE ENERGY PREDICTED BY IDOCK:   -6.88 KCAL/MOL
REMARK 924 INTRA-LIGAND FREE ENERGY PREDICTED BY IDOCK:   -1.99 KCAL/MOL
REMARK 927      BINDING AFFINITY PREDICTED BY RF-SCORE:    0.00 PKD
ROOT
HETATM    1 CA   UNL     1     -12.196   9.909  68.756  1.00  0.00    -0.492 Ca 
HETATM    2  O   UNL     2      -6.826   5.875  70.720  1.00  0.00    -0.054 OA 
HETATM    3  C   UNL     2      -8.031   6.409  70.162  1.00  0.00    -0.112 C  
HETATM    4  H   UNL     2      -6.755   4.973  70.431  1.00  0.00     0.000 HD 
HETATM    5  O   UNL     3      -7.915  12.415  66.502  1.00  0.00    -0.395 OA 
HETATM    6  H   UNL     3      -6.991  12.615  66.598  1.00  0.00     0.000 HD 
HETATM    7  C   UNL     3      -8.628  13.334  67.378  1.00  0.00    -0.204 C  
ENDROOT
BRANCH   3   8
HETATM    8  C   UNL     2      -8.143   7.844  70.622  1.00  0.00    -0.102 C  
HETATM    9  H   UNL     2      -8.456   8.752  72.335  1.00  0.00     0.000 HD 
HETATM   10  O   UNL     2      -8.385   7.850  72.046  1.00  0.00    -0.110 OA 
BRANCH   8  11
HETATM   11  C   UNL     2      -9.242   8.690  69.943  1.00  0.00    -0.155 C  
HETATM   12  C   UNL     2      -9.423   8.649  68.447  1.00  0.00    -0.138 C  
HETATM   13  O   UNL     2      -8.737  10.024  70.064  1.00  0.00    -0.191 OA 
HETATM   14  O   UNL     2      -6.854  10.856  69.015  1.00  0.00    -0.064 OA 
HETATM   15  H   UNL     2      -8.529   9.114  65.880  1.00  0.00     0.000 HD 
HETATM   16  O   UNL     2     -10.495   8.169  67.987  1.00  0.00    -0.216 OA 
HETATM   17  C   UNL     2      -7.822  10.131  69.056  1.00  0.00    -0.107 C  
HETATM   18  C   UNL     2      -8.388   9.347  67.923  1.00  0.00    -0.115 C  
HETATM   19  O   UNL     2      -8.169   9.613  66.603  1.00  0.00    -0.118 OA 
ENDBRANCH   8  11
ENDBRANCH   3   8
BRANCH   7  20
HETATM   20  C   UNL     3     -10.119  13.012  67.225  1.00  0.00    -0.235 C  
HETATM   21  O   UNL     3     -10.285  11.786  66.515  1.00  0.00    -0.202 OA 
HETATM   22  H   UNL     3     -11.209  11.586  66.420  1.00  0.00     0.000 HD 
BRANCH  20  23
HETATM   23  C   UNL     3     -11.146  14.097  66.798  1.00  0.00    -0.310 C  
HETATM   24  O   UNL     3     -10.381  17.190  65.440  1.00  0.00    -0.619 OA 
HETATM   25  C   UNL     3     -11.532  15.191  64.807  1.00  0.00    -0.383 C  
HETATM   26  C   UNL     3     -11.905  14.116  65.513  1.00  0.00    -0.364 C  
HETATM   27  O   UNL     3     -12.045  15.595  63.595  1.00  0.00    -0.998 OA 
HETATM   28  O   UNL     3     -10.611  15.426  66.906  1.00  0.00    -0.297 OA 
HETATM   29  C   UNL     3     -10.720  16.043  65.678  1.00  0.00    -0.329 C  
HETATM   30  O   UNL     3     -12.797  13.243  65.415  1.00  0.00    -0.569 OA 
HETATM   31  H   UNL     3     -12.572  15.042  63.030  1.00  0.00     0.000 HD 
ENDBRANCH  20  23
ENDBRANCH   7  20
TORSDOF 4
ENDMDL
MODEL       89
REMARK 921   NORMALIZED FREE ENERGY PREDICTED BY IDOCK:   -5.61 KCAL/MOL
REMARK 922        TOTAL FREE ENERGY PREDICTED BY IDOCK:   -8.84 KCAL/MOL
REMARK 923 INTER-LIGAND FREE ENERGY PREDICTED BY IDOCK:   -7.89 KCAL/MOL
REMARK 924 INTRA-LIGAND FREE ENERGY PREDICTED BY IDOCK:   -0.96 KCAL/MOL
REMARK 927      BINDING AFFINITY PREDICTED BY RF-SCORE:    0.00 PKD
ROOT
HETATM    1 CA   UNL     1      -7.495  14.673  70.283  1.00  0.00    -0.247 Ca 
HETATM    2  O   UNL     2     -13.201  15.947  74.128  1.00  0.00    -0.837 OA 
HETATM    3  C   UNL     2     -11.869  15.756  73.639  1.00  0.00    -0.229 C  
HETATM    4  H   UNL     2     -13.133  16.220  75.035  1.00  0.00     0.000 HD 
HETATM    5  O   UNL     3      -9.749  18.925  67.729  1.00  0.00    -0.305 OA 
HETATM    6  H   UNL     3     -10.566  19.354  67.503  1.00  0.00     0.000 HD 
HETATM    7  C   UNL     3      -9.601  17.809  66.805  1.00  0.00    -0.300 C  
ENDROOT
BRANCH   3   8
HETATM    8  C   UNL     2     -11.977  15.321  72.196  1.00  0.00    -0.420 C  
HETATM    9  H   UNL     2     -11.863  16.209  70.447  1.00  0.00     0.000 HD 
HETATM   10  O   UNL     2     -11.794  16.482  71.354  1.00  0.00    -0.308 OA 
BRANCH   8  11
HETATM   11  C   UNL     2     -13.300  14.637  71.791  1.00  0.00    -0.360 C  
HETATM   12  C   UNL     2     -13.488  13.155  71.998  1.00  0.00    -0.507 C  
HETATM   13  O   UNL     2     -13.240  14.649  70.360  1.00  0.00    -0.232 OA 
HETATM   14  O   UNL     2     -11.737  13.470  69.060  1.00  0.00    -0.282 OA 
HETATM   15  H   UNL     2     -12.837  10.529  71.469  1.00  0.00     0.000 HD 
HETATM   16  O   UNL     2     -14.362  12.773  72.823  1.00  0.00    -0.265 OA 
HETATM   17  C   UNL     2     -12.426  13.599  70.048  1.00  0.00    -0.204 C  
HETATM   18  C   UNL     2     -12.736  12.545  71.051  1.00  0.00    -0.225 C  
HETATM   19  O   UNL     2     -12.639  11.201  70.829  1.00  0.00    -0.347 OA 
ENDBRANCH   8  11
ENDBRANCH   3   8
BRANCH   7  20
HETATM   20  C   UNL     3      -8.282  17.117  67.168  1.00  0.00    -0.192 C  
HETATM   21  O   UNL     3      -8.532  16.011  68.035  1.00  0.00    -0.161 OA 
HETATM   22  H   UNL     3      -7.715  15.582  68.260  1.00  0.00     0.000 HD 
BRANCH  20  23
HETATM   23  C   UNL     3      -7.022  17.928  67.579  1.00  0.00    -0.193 C  
HETATM   24  O   UNL     3      -6.708  21.376  67.465  1.00  0.00    -0.546 OA 
HETATM   25  C   UNL     3      -6.681  19.628  69.098  1.00  0.00    -0.348 C  
HETATM   26  C   UNL     3      -6.642  18.295  68.975  1.00  0.00    -0.256 C  
HETATM   27  O   UNL     3      -6.338  20.359  70.212  1.00  0.00    -0.408 OA 
HETATM   28  O   UNL     3      -6.910  19.164  66.852  1.00  0.00    -0.197 OA 
HETATM   29  C   UNL     3      -6.837  20.199  67.758  1.00  0.00    -0.274 C  
HETATM   30  O   UNL     3      -6.248  17.339  69.681  1.00  0.00    -0.241 OA 
HETATM   31  H   UNL     3      -6.237  19.987  71.081  1.00  0.00     0.000 HD 
ENDBRANCH  20  23
ENDBRANCH   7  20
TORSDOF 4
ENDMDL
MODEL       90
REMARK 921   NORMALIZED FREE ENERGY PREDICTED BY IDOCK:   -5.58 KCAL/MOL
REMARK 922        TOTAL FREE ENERGY PREDICTED BY IDOCK:   -8.81 KCAL/MOL
REMARK 923 INTER-LIGAND FREE ENERGY PREDICTED BY IDOCK:   -7.68 KCAL/MOL
REMARK 924 INTRA-LIGAND FREE ENERGY PREDICTED BY IDOCK:   -1.13 KCAL/MOL
REMARK 927      BINDING AFFINITY PREDICTED BY RF-SCORE:    0.00 PKD
ROOT
HETATM    1 CA   UNL     1      -7.732  14.117  70.404  1.00  0.00    -0.354 Ca 
HETATM    2  O   UNL     2     -14.321  13.094  72.527  1.00  0.00    -0.613 OA 
HETATM    3  C   UNL     2     -12.954  13.495  72.381  1.00  0.00    -0.296 C  
HETATM    4  H   UNL     2     -14.660  13.518  73.306  1.00  0.00     0.000 HD 
HETATM    5  O   UNL     3     -10.659  16.214  66.314  1.00  0.00    -0.310 OA 
HETATM    6  H   UNL     3     -11.466  16.144  65.819  1.00  0.00     0.000 HD 
HETATM    7  C   UNL     3      -9.775  15.171  65.813  1.00  0.00    -0.344 C  
ENDROOT
BRANCH   3   8
HETATM    8  C   UNL     2     -12.416  12.820  71.141  1.00  0.00    -0.239 C  
HETATM    9  H   UNL     2     -12.284  13.277  69.235  1.00  0.00     0.000 HD 
HETATM   10  O   UNL     2     -12.622  13.702  70.015  1.00  0.00    -0.243 OA 
BRANCH   8  11
HETATM   11  C   UNL     2     -13.031  11.447  70.795  1.00  0.00    -0.049 C  
HETATM   12  C   UNL     2     -12.654  10.220  71.587  1.00  0.00    -0.432 C  
HETATM   13  O   UNL     2     -12.390  11.113  69.559  1.00  0.00    -0.301 OA 
HETATM   14  O   UNL     2     -10.143  10.653  69.284  1.00  0.00    -0.217 OA 
HETATM   15  H   UNL     2     -10.816   8.346  72.429  1.00  0.00     0.000 HD 
HETATM   16  O   UNL     2     -13.546   9.657  72.277  1.00  0.00    -0.438 OA 
HETATM   17  C   UNL     2     -11.165  10.639  69.932  1.00  0.00    -0.308 C  
HETATM   18  C   UNL     2     -11.398   9.895  71.200  1.00  0.00    -0.370 C  
HETATM   19  O   UNL     2     -10.668   8.821  71.620  1.00  0.00    -0.272 OA 
ENDBRANCH   8  11
ENDBRANCH   3   8
BRANCH   7  20
HETATM   20  C   UNL     3      -8.472  15.284  66.612  1.00  0.00    -0.229 C  
HETATM   21  O   UNL     3      -8.552  14.491  67.795  1.00  0.00    -0.159 OA 
HETATM   22  H   UNL     3      -7.744  14.561  68.290  1.00  0.00     0.000 HD 
BRANCH  20  23
HETATM   23  C   UNL     3      -7.781  16.655  66.853  1.00  0.00    -0.228 C  
HETATM   24  O   UNL     3      -8.965  19.734  65.794  1.00  0.00    -0.371 OA 
HETATM   25  C   UNL     3      -8.486  18.609  67.851  1.00  0.00    -0.276 C  
HETATM   26  C   UNL     3      -7.857  17.456  68.110  1.00  0.00    -0.234 C  
HETATM   27  O   UNL     3      -8.700  19.643  68.734  1.00  0.00    -0.333 OA 
HETATM   28  O   UNL     3      -8.081  17.605  65.817  1.00  0.00    -0.550 OA 
HETATM   29  C   UNL     3      -8.627  18.729  66.399  1.00  0.00    -0.284 C  
HETATM   30  O   UNL     3      -7.225  16.975  69.079  1.00  0.00    -0.227 OA 
HETATM   31  H   UNL     3      -8.608  19.564  69.677  1.00  0.00     0.000 HD 
ENDBRANCH  20  23
ENDBRANCH   7  20
TORSDOF 4
ENDMDL
MODEL       91
REMARK 921   NORMALIZED FREE ENERGY PREDICTED BY IDOCK:   -5.57 KCAL/MOL
REMARK 922        TOTAL FREE ENERGY PREDICTED BY IDOCK:   -8.80 KCAL/MOL
REMARK 923 INTER-LIGAND FREE ENERGY PREDICTED BY IDOCK:   -7.96 KCAL/MOL
REMARK 924 INTRA-LIGAND FREE ENERGY PREDICTED BY IDOCK:   -0.84 KCAL/MOL
REMARK 927      BINDING AFFINITY PREDICTED BY RF-SCORE:    0.00 PKD
ROOT
HETATM    1 CA   UNL     1     -11.383  16.528  66.607  1.00  0.00    -0.220 Ca 
HETATM    2  O   UNL     2     -10.217  10.791  62.774  1.00  0.00    -0.727 OA 
HETATM    3  C   UNL     2     -10.557  12.097  63.253  1.00  0.00    -0.319 C  
HETATM    4  H   UNL     2     -10.352  10.790  61.833  1.00  0.00     0.000 HD 
HETATM    5  O   UNL     3      -6.030  15.727  67.229  1.00  0.00    -0.303 OA 
HETATM    6  H   UNL     3      -5.342  15.075  67.282  1.00  0.00     0.000 HD 
HETATM    7  C   UNL     3      -6.687  15.739  68.528  1.00  0.00    -0.119 C  
ENDROOT
BRANCH   3   8
HETATM    8  C   UNL     2     -10.341  12.098  64.749  1.00  0.00    -0.288 C  
HETATM    9  H   UNL     2      -9.550  10.865  66.057  1.00  0.00     0.000 HD 
HETATM   10  O   UNL     2      -9.685  10.865  65.116  1.00  0.00    -0.226 OA 
BRANCH   8  11
HETATM   11  C   UNL     2     -11.609  12.245  65.616  1.00  0.00    -0.380 C  
HETATM   12  C   UNL     2     -11.811  13.469  66.474  1.00  0.00    -0.399 C  
HETATM   13  O   UNL     2     -11.397  11.284  66.657  1.00  0.00    -0.338 OA 
HETATM   14  O   UNL     2      -9.756  11.393  68.281  1.00  0.00    -0.187 OA 
HETATM   15  H   UNL     2     -11.093  15.107  68.572  1.00  0.00     0.000 HD 
HETATM   16  O   UNL     2     -12.766  14.243  66.195  1.00  0.00    -0.401 OA 
HETATM   17  C   UNL     2     -10.548  11.910  67.524  1.00  0.00    -0.219 C  
HETATM   18  C   UNL     2     -10.959  13.341  67.519  1.00  0.00    -0.263 C  
HETATM   19  O   UNL     2     -10.831  14.194  68.576  1.00  0.00    -0.237 OA 
ENDBRANCH   8  11
ENDBRANCH   3   8
BRANCH   7  20
HETATM   20  C   UNL     3      -7.799  16.792  68.443  1.00  0.00    -0.214 C  
HETATM   21  O   UNL     3      -9.060  16.198  68.743  1.00  0.00    -0.206 OA 
HETATM   22  H   UNL     3      -9.749  16.851  68.691  1.00  0.00     0.000 HD 
BRANCH  20  23
HETATM   23  C   UNL     3      -7.875  17.801  67.264  1.00  0.00    -0.211 C  
HETATM   24  O   UNL     3     -10.706  18.537  65.407  1.00  0.00    -0.585 OA 
HETATM   25  C   UNL     3      -9.184  19.658  66.875  1.00  0.00    -0.350 C  
HETATM   26  C   UNL     3      -8.010  19.282  67.396  1.00  0.00    -0.264 C  
HETATM   27  O   UNL     3      -9.652  20.946  66.750  1.00  0.00    -0.665 OA 
HETATM   28  O   UNL     3      -8.887  17.444  66.307  1.00  0.00    -0.360 OA 
HETATM   29  C   UNL     3      -9.751  18.508  66.167  1.00  0.00    -0.232 C  
HETATM   30  O   UNL     3      -6.987  19.868  67.821  1.00  0.00    -0.247 OA 
HETATM   31  H   UNL     3      -9.283  21.692  67.209  1.00  0.00     0.000 HD 
ENDBRANCH  20  23
ENDBRANCH   7  20
TORSDOF 4
ENDMDL
MODEL       92
REMARK 921   NORMALIZED FREE ENERGY PREDICTED BY IDOCK:   -5.56 KCAL/MOL
REMARK 922        TOTAL FREE ENERGY PREDICTED BY IDOCK:   -8.79 KCAL/MOL
REMARK 923 INTER-LIGAND FREE ENERGY PREDICTED BY IDOCK:   -7.59 KCAL/MOL
REMARK 924 INTRA-LIGAND FREE ENERGY PREDICTED BY IDOCK:   -1.20 KCAL/MOL
REMARK 927      BINDING AFFINITY PREDICTED BY RF-SCORE:    0.00 PKD
ROOT
HETATM    1 CA   UNL     1      -7.418  11.892  67.377  1.00  0.00    -0.093 Ca 
HETATM    2  O   UNL     2     -12.686  13.192  62.957  1.00  0.00    -0.523 OA 
HETATM    3  C   UNL     2     -11.455  12.802  63.576  1.00  0.00    -0.459 C  
HETATM    4  H   UNL     2     -12.637  12.939  62.043  1.00  0.00     0.000 HD 
HETATM    5  O   UNL     3     -11.479   8.890  69.421  1.00  0.00    -0.413 OA 
HETATM    6  H   UNL     3     -12.420   8.832  69.542  1.00  0.00     0.000 HD 
HETATM    7  C   UNL     3     -10.990   9.821  70.428  1.00  0.00    -0.312 C  
ENDROOT
BRANCH   3   8
HETATM    8  C   UNL     2     -11.534  13.205  65.030  1.00  0.00    -0.308 C  
HETATM    9  H   UNL     2     -12.533  12.595  66.607  1.00  0.00     0.000 HD 
HETATM   10  O   UNL     2     -12.483  12.341  65.693  1.00  0.00    -0.591 OA 
BRANCH   8  11
HETATM   11  C   UNL     2     -11.941  14.668  65.307  1.00  0.00    -0.302 C  
HETATM   12  C   UNL     2     -11.078  15.806  64.822  1.00  0.00    -0.400 C  
HETATM   13  O   UNL     2     -11.707  14.803  66.713  1.00  0.00    -0.366 OA 
HETATM   14  O   UNL     2      -9.644  14.732  67.753  1.00  0.00    -0.205 OA 
HETATM   15  H   UNL     2      -8.726  17.245  64.835  1.00  0.00     0.000 HD 
HETATM   16  O   UNL     2     -11.548  16.582  63.946  1.00  0.00    -1.175 OA 
HETATM   17  C   UNL     2     -10.359  15.001  66.813  1.00  0.00    -0.270 C  
HETATM   18  C   UNL     2      -9.990  15.824  65.629  1.00  0.00    -0.345 C  
HETATM   19  O   UNL     2      -8.961  16.719  65.590  1.00  0.00    -0.475 OA 
ENDBRANCH   8  11
ENDBRANCH   3   8
BRANCH   7  20
HETATM   20  C   UNL     3      -9.473   9.915  70.233  1.00  0.00    -0.105 C  
HETATM   21  O   UNL     3      -9.170  10.821  69.174  1.00  0.00    -0.290 OA 
HETATM   22  H   UNL     3      -8.230  10.880  69.053  1.00  0.00     0.000 HD 
BRANCH  20  23
HETATM   23  C   UNL     3      -8.575   8.647  70.212  1.00  0.00    -0.141 C  
HETATM   24  O   UNL     3      -9.656   5.406  69.637  1.00  0.00    -0.141 OA 
HETATM   25  C   UNL     3      -8.203   7.017  68.626  1.00  0.00    -0.122 C  
HETATM   26  C   UNL     3      -7.738   8.194  69.062  1.00  0.00    -0.099 C  
HETATM   27  O   UNL     3      -7.666   6.243  67.622  1.00  0.00    -0.095 OA 
HETATM   28  O   UNL     3      -9.292   7.465  70.607  1.00  0.00    -0.160 OA 
HETATM   29  C   UNL     3      -9.182   6.530  69.601  1.00  0.00    -0.143 C  
HETATM   30  O   UNL     3      -6.731   8.902  68.833  1.00  0.00    -0.052 OA 
HETATM   31  H   UNL     3      -7.031   6.559  66.990  1.00  0.00     0.000 HD 
ENDBRANCH  20  23
ENDBRANCH   7  20
TORSDOF 4
ENDMDL
MODEL       93
REMARK 921   NORMALIZED FREE ENERGY PREDICTED BY IDOCK:   -5.56 KCAL/MOL
REMARK 922        TOTAL FREE ENERGY PREDICTED BY IDOCK:   -8.78 KCAL/MOL
REMARK 923 INTER-LIGAND FREE ENERGY PREDICTED BY IDOCK:   -7.46 KCAL/MOL
REMARK 924 INTRA-LIGAND FREE ENERGY PREDICTED BY IDOCK:   -1.32 KCAL/MOL
REMARK 927      BINDING AFFINITY PREDICTED BY RF-SCORE:    0.00 PKD
ROOT
HETATM    1 CA   UNL     1      -6.008  15.511  67.831  1.00  0.00    -0.085 Ca 
HETATM    2  O   UNL     2      -6.634  21.297  63.945  1.00  0.00    -0.504 OA 
HETATM    3  C   UNL     2      -6.333  19.996  64.463  1.00  0.00    -0.226 C  
HETATM    4  H   UNL     2      -6.295  21.334  63.058  1.00  0.00     0.000 HD 
HETATM    5  O   UNL     3     -11.404  16.007  67.264  1.00  0.00    -0.130 OA 
HETATM    6  H   UNL     3     -12.124  16.620  67.175  1.00  0.00     0.000 HD 
HETATM    7  C   UNL     3     -11.049  15.988  68.676  1.00  0.00    -0.349 C  
ENDROOT
BRANCH   3   8
HETATM    8  C   UNL     2      -6.872  19.936  65.873  1.00  0.00    -0.270 C  
HETATM    9  H   UNL     2      -6.095  19.902  67.676  1.00  0.00     0.000 HD 
HETATM   10  O   UNL     2      -5.756  19.940  66.790  1.00  0.00    -0.172 OA 
BRANCH   8  11
HETATM   11  C   UNL     2      -7.765  18.722  66.207  1.00  0.00    -0.272 C  
HETATM   12  C   UNL     2      -9.227  18.913  66.522  1.00  0.00    -0.331 C  
HETATM   13  O   UNL     2      -7.311  18.342  67.510  1.00  0.00    -0.207 OA 
HETATM   14  O   UNL     2      -7.550  19.588  69.441  1.00  0.00    -0.296 OA 
HETATM   15  H   UNL     2     -11.262  19.896  68.102  1.00  0.00     0.000 HD 
HETATM   16  O   UNL     2     -10.078  18.428  65.727  1.00  0.00    -0.553 OA 
HETATM   17  C   UNL     2      -7.930  19.220  68.353  1.00  0.00    -0.341 C  
HETATM   18  C   UNL     2      -9.278  19.451  67.764  1.00  0.00    -0.318 C  
HETATM   19  O   UNL     2     -10.402  19.749  68.478  1.00  0.00    -0.444 OA 
ENDBRANCH   8  11
ENDBRANCH   3   8
BRANCH   7  20
HETATM   20  C   UNL     3      -9.887  14.999  68.820  1.00  0.00    -0.233 C  
HETATM   21  O   UNL     3      -8.644  15.674  68.635  1.00  0.00    -0.167 OA 
HETATM   22  H   UNL     3      -7.924  15.061  68.725  1.00  0.00     0.000 HD 
BRANCH  20  23
HETATM   23  C   UNL     3      -9.919  13.602  68.141  1.00  0.00    -0.246 C  
HETATM   24  O   UNL     3     -12.398  12.435  66.021  1.00  0.00    -0.627 OA 
HETATM   25  C   UNL     3     -10.059  12.935  65.939  1.00  0.00    -0.289 C  
HETATM   26  C   UNL     3      -9.175  13.221  66.903  1.00  0.00    -0.241 C  
HETATM   27  O   UNL     3      -9.771  12.483  64.671  1.00  0.00    -0.488 OA 
HETATM   28  O   UNL     3     -11.260  13.146  67.894  1.00  0.00    -0.246 OA 
HETATM   29  C   UNL     3     -11.388  12.869  66.551  1.00  0.00    -0.318 C  
HETATM   30  O   UNL     3      -7.935  13.117  67.045  1.00  0.00    -0.111 OA 
HETATM   31  H   UNL     3      -8.909  12.526  64.275  1.00  0.00     0.000 HD 
ENDBRANCH  20  23
ENDBRANCH   7  20
TORSDOF 4
ENDMDL
MODEL       94
REMARK 921   NORMALIZED FREE ENERGY PREDICTED BY IDOCK:   -5.54 KCAL/MOL
REMARK 922        TOTAL FREE ENERGY PREDICTED BY IDOCK:   -8.76 KCAL/MOL
REMARK 923 INTER-LIGAND FREE ENERGY PREDICTED BY IDOCK:   -6.92 KCAL/MOL
REMARK 924 INTRA-LIGAND FREE ENERGY PREDICTED BY IDOCK:   -1.84 KCAL/MOL
REMARK 927      BINDING AFFINITY PREDICTED BY RF-SCORE:    0.00 PKD
ROOT
HETATM    1 CA   UNL     1     -10.391   7.628  66.286  1.00  0.00    -0.259 Ca 
HETATM    2  O   UNL     2      -8.782   5.782  72.842  1.00  0.00    -0.125 OA 
HETATM    3  C   UNL     2      -8.797   6.028  71.431  1.00  0.00    -0.136 C  
HETATM    4  H   UNL     2      -7.937   5.402  73.054  1.00  0.00     0.000 HD 
HETATM    5  O   UNL     3     -10.461  12.389  68.933  1.00  0.00    -0.360 OA 
HETATM    6  H   UNL     3     -10.646  12.817  69.761  1.00  0.00     0.000 HD 
HETATM    7  C   UNL     3     -11.749  12.153  68.296  1.00  0.00    -0.342 C  
ENDROOT
BRANCH   3   8
HETATM    8  C   UNL     2     -10.140   6.632  71.094  1.00  0.00    -0.182 C  
HETATM    9  H   UNL     2     -12.002   6.007  71.085  1.00  0.00     0.000 HD 
HETATM   10  O   UNL     2     -11.158   5.627  71.297  1.00  0.00    -0.229 OA 
BRANCH   8  11
HETATM   11  C   UNL     2     -10.293   7.189  69.662  1.00  0.00    -0.215 C  
HETATM   12  C   UNL     2      -9.177   7.978  69.026  1.00  0.00    -0.148 C  
HETATM   13  O   UNL     2     -11.239   8.251  69.833  1.00  0.00    -0.171 OA 
HETATM   14  O   UNL     2     -10.878  10.205  71.012  1.00  0.00    -0.240 OA 
HETATM   15  H   UNL     2      -7.528  10.185  68.904  1.00  0.00     0.000 HD 
HETATM   16  O   UNL     2      -8.599   7.490  68.017  1.00  0.00    -0.123 OA 
HETATM   17  C   UNL     2     -10.496   9.289  70.319  1.00  0.00    -0.228 C  
HETATM   18  C   UNL     2      -9.179   9.190  69.632  1.00  0.00    -0.168 C  
HETATM   19  O   UNL     2      -8.368  10.248  69.343  1.00  0.00    -0.151 OA 
ENDBRANCH   8  11
ENDBRANCH   3   8
BRANCH   7  20
HETATM   20  C   UNL     3     -11.452  11.463  66.959  1.00  0.00    -0.156 C  
HETATM   21  O   UNL     3     -10.821  10.204  67.187  1.00  0.00    -0.251 OA 
HETATM   22  H   UNL     3     -10.637   9.777  66.360  1.00  0.00     0.000 HD 
BRANCH  20  23
HETATM   23  C   UNL     3     -10.832  12.237  65.763  1.00  0.00    -0.278 C  
HETATM   24  O   UNL     3     -12.593  13.673  63.148  1.00  0.00    -0.792 OA 
HETATM   25  C   UNL     3     -11.160  14.363  64.936  1.00  0.00    -0.398 C  
HETATM   26  C   UNL     3     -10.397  13.665  65.786  1.00  0.00    -0.298 C  
HETATM   27  O   UNL     3     -11.033  15.698  64.627  1.00  0.00    -0.611 OA 
HETATM   28  O   UNL     3     -11.635  12.138  64.575  1.00  0.00    -0.330 OA 
HETATM   29  C   UNL     3     -11.945  13.410  64.148  1.00  0.00    -0.450 C  
HETATM   30  O   UNL     3      -9.364  13.890  66.458  1.00  0.00    -0.277 OA 
HETATM   31  H   UNL     3     -10.524  16.317  65.138  1.00  0.00     0.000 HD 
ENDBRANCH  20  23
ENDBRANCH   7  20
TORSDOF 4
ENDMDL
MODEL       95
REMARK 921   NORMALIZED FREE ENERGY PREDICTED BY IDOCK:   -5.53 KCAL/MOL
REMARK 922        TOTAL FREE ENERGY PREDICTED BY IDOCK:   -8.75 KCAL/MOL
REMARK 923 INTER-LIGAND FREE ENERGY PREDICTED BY IDOCK:   -7.07 KCAL/MOL
REMARK 924 INTRA-LIGAND FREE ENERGY PREDICTED BY IDOCK:   -1.68 KCAL/MOL
REMARK 927      BINDING AFFINITY PREDICTED BY RF-SCORE:    0.00 PKD
ROOT
HETATM    1 CA   UNL     1     -10.913   7.748  66.218  1.00  0.00    -0.415 Ca 
HETATM    2  O   UNL     2      -7.918   5.157  71.988  1.00  0.00    -0.107 OA 
HETATM    3  C   UNL     2      -8.236   5.581  70.657  1.00  0.00    -0.116 C  
HETATM    4  H   UNL     2      -7.040   4.794  71.967  1.00  0.00     0.000 HD 
HETATM    5  O   UNL     3     -10.516  12.122  69.442  1.00  0.00    -0.429 OA 
HETATM    6  H   UNL     3     -10.530  12.431  70.340  1.00  0.00     0.000 HD 
HETATM    7  C   UNL     3     -11.905  11.908  69.058  1.00  0.00    -0.308 C  
ENDROOT
BRANCH   3   8
HETATM    8  C   UNL     2      -9.632   6.158  70.690  1.00  0.00    -0.173 C  
HETATM    9  H   UNL     2     -11.451   5.434  70.844  1.00  0.00     0.000 HD 
HETATM   10  O   UNL     2     -10.573   5.071  70.824  1.00  0.00    -0.193 OA 
BRANCH   8  11
HETATM   11  C   UNL     2     -10.044   7.005  69.467  1.00  0.00    -0.173 C  
HETATM   12  C   UNL     2      -9.096   8.026  68.890  1.00  0.00    -0.144 C  
HETATM   13  O   UNL     2     -11.020   7.900  70.014  1.00  0.00    -0.249 OA 
HETATM   14  O   UNL     2     -10.608   9.564  71.563  1.00  0.00    -0.323 OA 
HETATM   15  H   UNL     2      -7.638  10.359  69.071  1.00  0.00     0.000 HD 
HETATM   16  O   UNL     2      -8.653   7.838  67.724  1.00  0.00    -0.121 OA 
HETATM   17  C   UNL     2     -10.281   8.871  70.626  1.00  0.00    -0.217 C  
HETATM   18  C   UNL     2      -9.084   9.063  69.761  1.00  0.00    -0.159 C  
HETATM   19  O   UNL     2      -8.400  10.236  69.622  1.00  0.00    -0.169 OA 
ENDBRANCH   8  11
ENDBRANCH   3   8
BRANCH   7  20
HETATM   20  C   UNL     3     -11.884  11.410  67.609  1.00  0.00    -0.078 C  
HETATM   21  O   UNL     3     -11.334  10.095  67.551  1.00  0.00    -0.464 OA 
HETATM   22  H   UNL     3     -11.321   9.786  66.653  1.00  0.00     0.000 HD 
BRANCH  20  23
HETATM   23  C   UNL     3     -11.398  12.316  66.444  1.00  0.00    -0.354 C  
HETATM   24  O   UNL     3     -10.185  11.215  63.391  1.00  0.00    -0.341 OA 
HETATM   25  C   UNL     3     -12.024  12.494  64.233  1.00  0.00    -0.408 C  
HETATM   26  C   UNL     3     -12.278  12.996  65.448  1.00  0.00    -0.471 C  
HETATM   27  O   UNL     3     -12.584  12.901  63.044  1.00  0.00    -0.643 OA 
HETATM   28  O   UNL     3     -10.392  11.677  65.640  1.00  0.00    -0.242 OA 
HETATM   29  C   UNL     3     -10.822  11.663  64.331  1.00  0.00    -0.339 C  
HETATM   30  O   UNL     3     -12.947  13.952  65.902  1.00  0.00    -0.436 OA 
HETATM   31  H   UNL     3     -13.364  13.440  62.980  1.00  0.00     0.000 HD 
ENDBRANCH  20  23
ENDBRANCH   7  20
TORSDOF 4
ENDMDL
MODEL       96
REMARK 921   NORMALIZED FREE ENERGY PREDICTED BY IDOCK:   -5.52 KCAL/MOL
REMARK 922        TOTAL FREE ENERGY PREDICTED BY IDOCK:   -8.73 KCAL/MOL
REMARK 923 INTER-LIGAND FREE ENERGY PREDICTED BY IDOCK:   -7.46 KCAL/MOL
REMARK 924 INTRA-LIGAND FREE ENERGY PREDICTED BY IDOCK:   -1.27 KCAL/MOL
REMARK 927      BINDING AFFINITY PREDICTED BY RF-SCORE:    0.00 PKD
ROOT
HETATM    1 CA   UNL     1      -7.059  14.859  69.309  1.00  0.00    -0.098 Ca 
HETATM    2  O   UNL     2      -6.844  20.927  65.831  1.00  0.00    -0.462 OA 
HETATM    3  C   UNL     2      -6.629  19.601  66.327  1.00  0.00    -0.197 C  
HETATM    4  H   UNL     2      -6.248  21.058  65.102  1.00  0.00     0.000 HD 
HETATM    5  O   UNL     3     -12.026  15.156  67.090  1.00  0.00    -0.249 OA 
HETATM    6  H   UNL     3     -12.723  15.741  66.819  1.00  0.00     0.000 HD 
HETATM    7  C   UNL     3     -12.132  15.031  68.537  1.00  0.00    -0.142 C  
ENDROOT
BRANCH   3   8
HETATM    8  C   UNL     2      -7.577  19.394  67.485  1.00  0.00    -0.250 C  
HETATM    9  H   UNL     2      -7.488  19.620  69.434  1.00  0.00     0.000 HD 
HETATM   10  O   UNL     2      -6.892  19.750  68.706  1.00  0.00    -0.305 OA 
BRANCH   8  11
HETATM   11  C   UNL     2      -8.145  17.969  67.650  1.00  0.00    -0.232 C  
HETATM   12  C   UNL     2      -8.665  17.211  66.454  1.00  0.00    -0.256 C  
HETATM   13  O   UNL     2      -9.391  18.197  68.318  1.00  0.00    -0.284 OA 
HETATM   14  O   UNL     2     -11.224  19.284  67.425  1.00  0.00    -0.344 OA 
HETATM   15  H   UNL     2     -10.452  16.875  64.381  1.00  0.00     0.000 HD 
HETATM   16  O   UNL     2      -8.054  16.166  66.097  1.00  0.00    -0.262 OA 
HETATM   17  C   UNL     2     -10.242  18.584  67.323  1.00  0.00    -0.372 C  
HETATM   18  C   UNL     2      -9.850  17.781  66.132  1.00  0.00    -0.244 C  
HETATM   19  O   UNL     2     -10.701  17.388  65.140  1.00  0.00    -0.684 OA 
ENDBRANCH   8  11
ENDBRANCH   3   8
BRANCH   7  20
HETATM   20  C   UNL     3     -11.006  14.087  68.975  1.00  0.00    -0.259 C  
HETATM   21  O   UNL     3      -9.946  14.832  69.572  1.00  0.00    -0.392 OA 
HETATM   22  H   UNL     3      -9.249  14.247  69.843  1.00  0.00     0.000 HD 
BRANCH  20  23
HETATM   23  C   UNL     3     -10.493  12.948  68.051  1.00  0.00    -0.230 C  
HETATM   24  O   UNL     3      -8.739  10.142  69.076  1.00  0.00    -0.140 OA 
HETATM   25  C   UNL     3     -10.831  10.668  68.040  1.00  0.00    -0.261 C  
HETATM   26  C   UNL     3     -11.312  11.811  67.536  1.00  0.00    -0.310 C  
HETATM   27  O   UNL     3     -11.274   9.396  67.757  1.00  0.00    -0.492 OA 
HETATM   28  O   UNL     3      -9.310  12.317  68.570  1.00  0.00    -0.183 OA 
HETATM   29  C   UNL     3      -9.552  10.965  68.689  1.00  0.00    -0.190 C  
HETATM   30  O   UNL     3     -12.160  12.124  66.669  1.00  0.00    -0.622 OA 
HETATM   31  H   UNL     3     -12.104   9.204  67.335  1.00  0.00     0.000 HD 
ENDBRANCH  20  23
ENDBRANCH   7  20
TORSDOF 4
ENDMDL
MODEL       97
REMARK 921   NORMALIZED FREE ENERGY PREDICTED BY IDOCK:   -5.51 KCAL/MOL
REMARK 922        TOTAL FREE ENERGY PREDICTED BY IDOCK:   -8.73 KCAL/MOL
REMARK 923 INTER-LIGAND FREE ENERGY PREDICTED BY IDOCK:   -6.62 KCAL/MOL
REMARK 924 INTRA-LIGAND FREE ENERGY PREDICTED BY IDOCK:   -2.11 KCAL/MOL
REMARK 927      BINDING AFFINITY PREDICTED BY RF-SCORE:    0.00 PKD
ROOT
HETATM    1 CA   UNL     1      -7.660  11.349  68.512  1.00  0.00    -0.082 Ca 
HETATM    2  O   UNL     2     -13.224  13.866  65.095  1.00  0.00    -0.768 OA 
HETATM    3  C   UNL     2     -11.972  13.281  65.473  1.00  0.00    -0.405 C  
HETATM    4  H   UNL     2     -13.289  13.809  64.148  1.00  0.00     0.000 HD 
HETATM    5  O   UNL     3     -11.727   8.231  70.362  1.00  0.00    -0.464 OA 
HETATM    6  H   UNL     3     -12.651   8.205  70.577  1.00  0.00     0.000 HD 
HETATM    7  C   UNL     3     -11.063   8.897  71.473  1.00  0.00    -0.326 C  
ENDROOT
BRANCH   3   8
HETATM    8  C   UNL     2     -11.869  13.372  66.977  1.00  0.00    -0.394 C  
HETATM    9  H   UNL     2     -11.856  14.823  68.302  1.00  0.00     0.000 HD 
HETATM   10  O   UNL     2     -11.922  14.766  67.356  1.00  0.00    -0.357 OA 
BRANCH   8  11
HETATM   11  C   UNL     2     -10.607  12.749  67.610  1.00  0.00    -0.219 C  
HETATM   12  C   UNL     2     -10.112  11.399  67.156  1.00  0.00    -0.198 C  
HETATM   13  O   UNL     2     -11.053  12.386  68.921  1.00  0.00    -0.241 OA 
HETATM   14  O   UNL     2     -12.620  10.761  69.414  1.00  0.00    -0.314 OA 
HETATM   15  H   UNL     2     -10.409   8.671  66.882  1.00  0.00     0.000 HD 
HETATM   16  O   UNL     2      -8.994  11.336  66.575  1.00  0.00    -0.172 OA 
HETATM   17  C   UNL     2     -11.723  11.211  68.736  1.00  0.00    -0.326 C  
HETATM   18  C   UNL     2     -10.972  10.490  67.673  1.00  0.00    -0.314 C  
HETATM   19  O   UNL     2     -10.888   9.132  67.560  1.00  0.00    -0.242 OA 
ENDBRANCH   8  11
ENDBRANCH   3   8
BRANCH   7  20
HETATM   20  C   UNL     3      -9.570   8.939  71.126  1.00  0.00    -0.272 C  
HETATM   21  O   UNL     3      -9.294  10.060  70.288  1.00  0.00    -0.377 OA 
HETATM   22  H   UNL     3      -8.369  10.086  70.072  1.00  0.00     0.000 HD 
BRANCH  20  23
HETATM   23  C   UNL     3      -8.799   7.661  70.693  1.00  0.00    -0.145 C  
HETATM   24  O   UNL     3     -10.193   4.535  70.162  1.00  0.00    -0.210 OA 
HETATM   25  C   UNL     3      -9.036   6.216  68.913  1.00  0.00    -0.124 C  
HETATM   26  C   UNL     3      -8.390   7.324  69.298  1.00  0.00    -0.132 C  
HETATM   27  O   UNL     3      -8.884   5.552  67.718  1.00  0.00    -0.108 OA 
HETATM   28  O   UNL     3      -9.425   6.459  71.172  1.00  0.00    -0.166 OA 
HETATM   29  C   UNL     3      -9.689   5.644  70.092  1.00  0.00    -0.174 C  
HETATM   30  O   UNL     3      -7.465   8.031  68.835  1.00  0.00    -0.089 OA 
HETATM   31  H   UNL     3      -8.460   5.924  66.953  1.00  0.00     0.000 HD 
ENDBRANCH  20  23
ENDBRANCH   7  20
TORSDOF 4
ENDMDL
MODEL       98
REMARK 921   NORMALIZED FREE ENERGY PREDICTED BY IDOCK:   -5.51 KCAL/MOL
REMARK 922        TOTAL FREE ENERGY PREDICTED BY IDOCK:   -8.73 KCAL/MOL
REMARK 923 INTER-LIGAND FREE ENERGY PREDICTED BY IDOCK:   -7.64 KCAL/MOL
REMARK 924 INTRA-LIGAND FREE ENERGY PREDICTED BY IDOCK:   -1.09 KCAL/MOL
REMARK 927      BINDING AFFINITY PREDICTED BY RF-SCORE:    0.00 PKD
ROOT
HETATM    1 CA   UNL     1     -12.635  10.648  67.707  1.00  0.00    -0.068 Ca 
HETATM    2  O   UNL     2      -9.947   4.916  70.690  1.00  0.00    -0.204 OA 
HETATM    3  C   UNL     2     -10.793   5.906  70.093  1.00  0.00    -0.332 C  
HETATM    4  H   UNL     2     -10.483   4.149  70.855  1.00  0.00     0.000 HD 
HETATM    5  O   UNL     3      -8.952   8.995  64.047  1.00  0.00    -0.425 OA 
HETATM    6  H   UNL     3      -8.112   8.568  63.927  1.00  0.00     0.000 HD 
HETATM    7  C   UNL     3      -8.665  10.360  64.463  1.00  0.00    -0.194 C  
ENDROOT
BRANCH   3   8
HETATM    8  C   UNL     2      -9.941   7.126  69.830  1.00  0.00    -0.182 C  
HETATM    9  H   UNL     2      -8.167   7.464  69.056  1.00  0.00     0.000 HD 
HETATM   10  O   UNL     2      -8.703   6.697  69.221  1.00  0.00    -0.130 OA 
BRANCH   8  11
HETATM   11  C   UNL     2      -9.596   7.990  71.062  1.00  0.00    -0.160 C  
HETATM   12  C   UNL     2     -10.672   8.392  72.038  1.00  0.00    -0.317 C  
HETATM   13  O   UNL     2      -9.335   9.276  70.487  1.00  0.00    -0.225 OA 
HETATM   14  O   UNL     2     -10.889  10.628  69.441  1.00  0.00    -0.215 OA 
HETATM   15  H   UNL     2     -12.991   9.742  72.675  1.00  0.00     0.000 HD 
HETATM   16  O   UNL     2     -10.609   7.944  73.216  1.00  0.00    -0.341 OA 
HETATM   17  C   UNL     2     -10.574   9.807  70.272  1.00  0.00    -0.292 C  
HETATM   18  C   UNL     2     -11.406   9.347  71.418  1.00  0.00    -0.381 C  
HETATM   19  O   UNL     2     -12.460  10.035  71.945  1.00  0.00    -0.385 OA 
ENDBRANCH   8  11
ENDBRANCH   3   8
BRANCH   7  20
HETATM   20  C   UNL     3     -10.021  11.049  64.658  1.00  0.00    -0.301 C  
HETATM   21  O   UNL     3     -10.886  10.745  63.565  1.00  0.00    -0.508 OA 
HETATM   22  H   UNL     3     -11.726  11.172  63.686  1.00  0.00     0.000 HD 
BRANCH  20  23
HETATM   23  C   UNL     3     -10.123  12.532  65.111  1.00  0.00    -0.246 C  
HETATM   24  O   UNL     3     -12.856  14.609  64.644  1.00  0.00    -0.559 OA 
HETATM   25  C   UNL     3     -11.617  13.658  66.457  1.00  0.00    -0.366 C  
HETATM   26  C   UNL     3     -10.453  12.998  66.490  1.00  0.00    -0.277 C  
HETATM   27  O   UNL     3     -12.230  14.293  67.513  1.00  0.00    -0.571 OA 
HETATM   28  O   UNL     3     -10.997  13.300  64.267  1.00  0.00    -0.378 OA 
HETATM   29  C   UNL     3     -11.973  13.872  65.053  1.00  0.00    -0.390 C  
HETATM   30  O   UNL     3      -9.552  12.807  67.339  1.00  0.00    -0.191 OA 
HETATM   31  H   UNL     3     -11.998  14.154  68.424  1.00  0.00     0.000 HD 
ENDBRANCH  20  23
ENDBRANCH   7  20
TORSDOF 4
ENDMDL
MODEL       99
REMARK 921   NORMALIZED FREE ENERGY PREDICTED BY IDOCK:   -5.51 KCAL/MOL
REMARK 922        TOTAL FREE ENERGY PREDICTED BY IDOCK:   -8.72 KCAL/MOL
REMARK 923 INTER-LIGAND FREE ENERGY PREDICTED BY IDOCK:   -8.21 KCAL/MOL
REMARK 924 INTRA-LIGAND FREE ENERGY PREDICTED BY IDOCK:   -0.51 KCAL/MOL
REMARK 927      BINDING AFFINITY PREDICTED BY RF-SCORE:    0.00 PKD
ROOT
HETATM    1 CA   UNL     1      -7.971  13.003  69.668  1.00  0.00    -0.316 Ca 
HETATM    2  O   UNL     2      -9.885   6.947  72.605  1.00  0.00    -0.162 OA 
HETATM    3  C   UNL     2      -9.588   8.317  72.312  1.00  0.00    -0.285 C  
HETATM    4  H   UNL     2     -10.252   6.918  73.481  1.00  0.00     0.000 HD 
HETATM    5  O   UNL     3     -12.012  11.313  66.428  1.00  0.00    -0.076 OA 
HETATM    6  H   UNL     3     -12.448  10.554  66.058  1.00  0.00     0.000 HD 
HETATM    7  C   UNL     3     -10.798  11.512  65.649  1.00  0.00    -0.252 C  
ENDROOT
BRANCH   3   8
HETATM    8  C   UNL     2      -9.005   8.363  70.918  1.00  0.00    -0.160 C  
HETATM    9  H   UNL     2      -7.868   9.607  69.909  1.00  0.00     0.000 HD 
HETATM   10  O   UNL     2      -8.234   9.578  70.786  1.00  0.00    -0.251 OA 
BRANCH   8  11
HETATM   11  C   UNL     2     -10.020   8.308  69.757  1.00  0.00    -0.191 C  
HETATM   12  C   UNL     2     -10.303   9.538  68.931  1.00  0.00    -0.208 C  
HETATM   13  O   UNL     2     -11.277   8.210  70.436  1.00  0.00    -0.264 OA 
HETATM   14  O   UNL     2     -12.231   9.848  71.756  1.00  0.00    -0.389 OA 
HETATM   15  H   UNL     2     -11.261  12.108  68.655  1.00  0.00     0.000 HD 
HETATM   16  O   UNL     2      -9.976   9.528  67.713  1.00  0.00    -0.158 OA 
HETATM   17  C   UNL     2     -11.555   9.491  70.818  1.00  0.00    -0.308 C  
HETATM   18  C   UNL     2     -11.052  10.352  69.713  1.00  0.00    -0.295 C  
HETATM   19  O   UNL     2     -11.581  11.559  69.360  1.00  0.00    -0.265 OA 
ENDBRANCH   8  11
ENDBRANCH   3   8
BRANCH   7  20
HETATM   20  C   UNL     3     -10.095  12.737  66.246  1.00  0.00    -0.259 C  
HETATM   21  O   UNL     3      -9.401  12.371  67.438  1.00  0.00    -0.173 OA 
HETATM   22  H   UNL     3      -8.966  13.130  67.807  1.00  0.00     0.000 HD 
BRANCH  20  23
HETATM   23  C   UNL     3     -10.813  14.109  66.366  1.00  0.00    -0.304 C  
HETATM   24  O   UNL     3      -9.392  17.203  65.726  1.00  0.00    -0.523 OA 
HETATM   25  C   UNL     3     -11.158  15.832  64.874  1.00  0.00    -0.399 C  
HETATM   26  C   UNL     3     -11.718  14.709  65.341  1.00  0.00    -0.330 C  
HETATM   27  O   UNL     3     -11.707  16.704  63.962  1.00  0.00    -1.394 OA 
HETATM   28  O   UNL     3      -9.903  15.174  66.692  1.00  0.00    -0.236 OA 
HETATM   29  C   UNL     3     -10.011  16.152  65.727  1.00  0.00    -0.340 C  
HETATM   30  O   UNL     3     -12.830  14.144  65.226  1.00  0.00    -0.670 OA 
HETATM   31  H   UNL     3     -12.452  16.496  63.409  1.00  0.00     0.000 HD 
ENDBRANCH  20  23
ENDBRANCH   7  20
TORSDOF 4
ENDMDL
MODEL      100
REMARK 921   NORMALIZED FREE ENERGY PREDICTED BY IDOCK:   -5.50 KCAL/MOL
REMARK 922        TOTAL FREE ENERGY PREDICTED BY IDOCK:   -8.72 KCAL/MOL
REMARK 923 INTER-LIGAND FREE ENERGY PREDICTED BY IDOCK:   -6.66 KCAL/MOL
REMARK 924 INTRA-LIGAND FREE ENERGY PREDICTED BY IDOCK:   -2.05 KCAL/MOL
REMARK 927      BINDING AFFINITY PREDICTED BY RF-SCORE:    0.00 PKD
ROOT
HETATM    1 CA   UNL     1      -7.315  13.327  69.630  1.00  0.00    -0.247 Ca 
HETATM    2  O   UNL     2     -10.047  18.626  65.965  1.00  0.00    -0.475 OA 
HETATM    3  C   UNL     2      -9.220  17.585  66.497  1.00  0.00    -0.267 C  
HETATM    4  H   UNL     2      -9.587  19.001  65.222  1.00  0.00     0.000 HD 
HETATM    5  O   UNL     3     -11.815  11.123  67.490  1.00  0.00    -0.591 OA 
HETATM    6  H   UNL     3     -12.708  11.291  67.213  1.00  0.00     0.000 HD 
HETATM    7  C   UNL     3     -11.847  11.014  68.941  1.00  0.00    -0.308 C  
ENDROOT
BRANCH   3   8
HETATM    8  C   UNL     2      -9.952  16.989  67.677  1.00  0.00    -0.280 C  
HETATM    9  H   UNL     2     -10.360  17.557  69.513  1.00  0.00     0.000 HD 
HETATM   10  O   UNL     2      -9.900  17.932  68.771  1.00  0.00    -0.344 OA 
BRANCH   8  11
HETATM   11  C   UNL     2      -9.423  15.631  68.187  1.00  0.00    -0.195 C  
HETATM   12  C   UNL     2      -8.938  14.586  67.214  1.00  0.00    -0.210 C  
HETATM   13  O   UNL     2     -10.614  14.974  68.636  1.00  0.00    -0.225 OA 
HETATM   14  O   UNL     2     -12.358  14.272  67.292  1.00  0.00    -0.337 OA 
HETATM   15  H   UNL     2      -9.366  12.799  65.159  1.00  0.00     0.000 HD 
HETATM   16  O   UNL     2      -7.717  14.271  67.235  1.00  0.00    -0.185 OA 
HETATM   17  C   UNL     2     -11.184  14.493  67.492  1.00  0.00    -0.321 C  
HETATM   18  C   UNL     2     -10.047  14.076  66.627  1.00  0.00    -0.276 C  
HETATM   19  O   UNL     2     -10.092  13.065  65.711  1.00  0.00    -0.286 OA 
ENDBRANCH   8  11
ENDBRANCH   3   8
BRANCH   7  20
HETATM   20  C   UNL     3     -10.406  10.743  69.388  1.00  0.00    -0.179 C  
HETATM   21  O   UNL     3      -9.588  11.882  69.124  1.00  0.00    -0.397 OA 
HETATM   22  H   UNL     3      -8.696  11.714  69.401  1.00  0.00     0.000 HD 
BRANCH  20  23
HETATM   23  C   UNL     3      -9.691   9.402  69.062  1.00  0.00    -0.166 C  
HETATM   24  O   UNL     3     -11.227   6.507  67.940  1.00  0.00    -0.292 OA 
HETATM   25  C   UNL     3      -9.609   8.092  67.168  1.00  0.00    -0.175 C  
HETATM   26  C   UNL     3      -8.970   9.088  67.793  1.00  0.00    -0.127 C  
HETATM   27  O   UNL     3      -9.223   7.475  65.999  1.00  0.00    -0.314 OA 
HETATM   28  O   UNL     3     -10.546   8.265  69.266  1.00  0.00    -0.223 OA 
HETATM   29  C   UNL     3     -10.606   7.546  68.092  1.00  0.00    -0.145 C  
HETATM   30  O   UNL     3      -7.886   9.696  67.639  1.00  0.00    -0.095 OA 
HETATM   31  H   UNL     3      -8.576   7.830  65.400  1.00  0.00     0.000 HD 
ENDBRANCH  20  23
ENDBRANCH   7  20
TORSDOF 4
ENDMDL
MODEL      101
REMARK 921   NORMALIZED FREE ENERGY PREDICTED BY IDOCK:   -5.49 KCAL/MOL
REMARK 922        TOTAL FREE ENERGY PREDICTED BY IDOCK:   -8.70 KCAL/MOL
REMARK 923 INTER-LIGAND FREE ENERGY PREDICTED BY IDOCK:   -6.31 KCAL/MOL
REMARK 924 INTRA-LIGAND FREE ENERGY PREDICTED BY IDOCK:   -2.39 KCAL/MOL
REMARK 927      BINDING AFFINITY PREDICTED BY RF-SCORE:    0.00 PKD
ROOT
HETATM    1 CA   UNL     1     -11.397  10.997  64.014  1.00  0.00    -0.355 Ca 
HETATM    2  O   UNL     2      -5.862   7.175  65.946  1.00  0.00    -0.034 OA 
HETATM    3  C   UNL     2      -6.784   8.053  65.291  1.00  0.00    -0.055 C  
HETATM    4  H   UNL     2      -5.043   7.215  65.466  1.00  0.00     0.000 HD 
HETATM    5  O   UNL     3     -10.202  13.003  68.937  1.00  0.00    -0.414 OA 
HETATM    6  H   UNL     3      -9.860  12.798  69.799  1.00  0.00     0.000 HD 
HETATM    7  C   UNL     3     -11.576  12.522  68.913  1.00  0.00    -0.318 C  
ENDROOT
BRANCH   3   8
HETATM    8  C   UNL     2      -8.086   7.990  66.056  1.00  0.00    -0.110 C  
HETATM    9  H   UNL     2      -9.440   6.613  66.418  1.00  0.00     0.000 HD 
HETATM   10  O   UNL     2      -8.621   6.653  65.937  1.00  0.00    -0.143 OA 
BRANCH   8  11
HETATM   11  C   UNL     2      -9.180   8.986  65.616  1.00  0.00    -0.225 C  
HETATM   12  C   UNL     2      -8.831  10.424  65.324  1.00  0.00    -0.186 C  
HETATM   13  O   UNL     2      -9.931   9.186  66.818  1.00  0.00    -0.210 OA 
HETATM   14  O   UNL     2      -9.161  10.220  68.736  1.00  0.00    -0.150 OA 
HETATM   15  H   UNL     2      -7.933  12.911  66.106  1.00  0.00     0.000 HD 
HETATM   16  O   UNL     2      -8.965  10.843  64.142  1.00  0.00    -0.174 OA 
HETATM   17  C   UNL     2      -9.190  10.083  67.534  1.00  0.00    -0.137 C  
HETATM   18  C   UNL     2      -8.606  11.008  66.525  1.00  0.00    -0.165 C  
HETATM   19  O   UNL     2      -8.305  12.320  66.750  1.00  0.00    -0.168 OA 
ENDBRANCH   8  11
ENDBRANCH   3   8
BRANCH   7  20
HETATM   20  C   UNL     3     -12.129  12.854  67.522  1.00  0.00    -0.192 C  
HETATM   21  O   UNL     3     -11.836  11.794  66.614  1.00  0.00    -0.569 OA 
HETATM   22  H   UNL     3     -12.178  11.999  65.752  1.00  0.00     0.000 HD 
BRANCH  20  23
HETATM   23  C   UNL     3     -11.942  14.259  66.886  1.00  0.00    -0.438 C  
HETATM   24  O   UNL     3     -10.191  16.900  68.284  1.00  0.00    -0.283 OA 
HETATM   25  C   UNL     3     -10.075  15.499  66.348  1.00  0.00    -0.288 C  
HETATM   26  C   UNL     3     -10.938  14.611  65.838  1.00  0.00    -0.332 C  
HETATM   27  O   UNL     3      -9.041  16.114  65.680  1.00  0.00    -0.394 OA 
HETATM   28  O   UNL     3     -11.787  15.289  67.876  1.00  0.00    -0.303 OA 
HETATM   29  C   UNL     3     -10.603  15.952  67.637  1.00  0.00    -0.307 C  
HETATM   30  O   UNL     3     -11.172  14.136  64.704  1.00  0.00    -0.363 OA 
HETATM   31  H   UNL     3      -8.699  15.820  64.844  1.00  0.00     0.000 HD 
ENDBRANCH  20  23
ENDBRANCH   7  20
TORSDOF 4
ENDMDL
MODEL      102
REMARK 921   NORMALIZED FREE ENERGY PREDICTED BY IDOCK:   -5.49 KCAL/MOL
REMARK 922        TOTAL FREE ENERGY PREDICTED BY IDOCK:   -8.70 KCAL/MOL
REMARK 923 INTER-LIGAND FREE ENERGY PREDICTED BY IDOCK:   -8.06 KCAL/MOL
REMARK 924 INTRA-LIGAND FREE ENERGY PREDICTED BY IDOCK:   -0.64 KCAL/MOL
REMARK 927      BINDING AFFINITY PREDICTED BY RF-SCORE:    0.00 PKD
ROOT
HETATM    1 CA   UNL     1     -10.189  17.830  65.157  1.00  0.00    -0.174 Ca 
HETATM    2  O   UNL     2     -12.658  11.600  63.142  1.00  0.00    -0.926 OA 
HETATM    3  C   UNL     2     -12.135  12.931  63.212  1.00  0.00    -0.440 C  
HETATM    4  H   UNL     2     -12.719  11.367  62.223  1.00  0.00     0.000 HD 
HETATM    5  O   UNL     3      -6.530  14.357  67.214  1.00  0.00    -0.347 OA 
HETATM    6  H   UNL     3      -6.399  13.490  67.580  1.00  0.00     0.000 HD 
HETATM    7  C   UNL     3      -7.099  15.172  68.279  1.00  0.00    -0.112 C  
ENDROOT
BRANCH   3   8
HETATM    8  C   UNL     2     -12.038  13.300  64.674  1.00  0.00    -0.408 C  
HETATM    9  H   UNL     2     -12.007  14.973  65.704  1.00  0.00     0.000 HD 
HETATM   10  O   UNL     2     -12.069  14.741  64.784  1.00  0.00    -0.414 OA 
BRANCH   8  11
HETATM   11  C   UNL     2     -10.788  12.787  65.421  1.00  0.00    -0.286 C  
HETATM   12  C   UNL     2     -10.838  11.493  66.194  1.00  0.00    -0.278 C  
HETATM   13  O   UNL     2     -10.682  13.694  66.524  1.00  0.00    -0.282 OA 
HETATM   14  O   UNL     2     -12.180  13.874  68.275  1.00  0.00    -0.332 OA 
HETATM   15  H   UNL     2     -11.791   9.935  68.259  1.00  0.00     0.000 HD 
HETATM   16  O   UNL     2     -10.127  10.531  65.795  1.00  0.00    -0.247 OA 
HETATM   17  C   UNL     2     -11.597  13.235  67.428  1.00  0.00    -0.353 C  
HETATM   18  C   UNL     2     -11.556  11.751  67.313  1.00  0.00    -0.269 C  
HETATM   19  O   UNL     2     -11.818  10.881  68.332  1.00  0.00    -0.498 OA 
ENDBRANCH   8  11
ENDBRANCH   3   8
BRANCH   7  20
HETATM   20  C   UNL     3      -7.309  16.571  67.689  1.00  0.00    -0.138 C  
HETATM   21  O   UNL     3      -6.054  17.145  67.328  1.00  0.00    -0.126 OA 
HETATM   22  H   UNL     3      -6.185  18.012  66.962  1.00  0.00     0.000 HD 
BRANCH  20  23
HETATM   23  C   UNL     3      -8.270  17.597  68.351  1.00  0.00    -0.289 C  
HETATM   24  O   UNL     3      -8.654  20.910  67.414  1.00  0.00    -0.244 OA 
HETATM   25  C   UNL     3      -9.969  18.914  67.519  1.00  0.00    -0.345 C  
HETATM   26  C   UNL     3      -9.733  17.720  68.076  1.00  0.00    -0.304 C  
HETATM   27  O   UNL     3     -11.198  19.429  67.175  1.00  0.00    -0.351 OA 
HETATM   28  O   UNL     3      -7.783  18.945  68.247  1.00  0.00    -0.279 OA 
HETATM   29  C   UNL     3      -8.747  19.713  67.629  1.00  0.00    -0.321 C  
HETATM   30  O   UNL     3     -10.433  16.784  68.526  1.00  0.00    -0.293 OA 
HETATM   31  H   UNL     3     -11.991  18.910  67.104  1.00  0.00     0.000 HD 
ENDBRANCH  20  23
ENDBRANCH   7  20
TORSDOF 4
ENDMDL
MODEL      103
REMARK 921   NORMALIZED FREE ENERGY PREDICTED BY IDOCK:   -5.48 KCAL/MOL
REMARK 922        TOTAL FREE ENERGY PREDICTED BY IDOCK:   -8.69 KCAL/MOL
REMARK 923 INTER-LIGAND FREE ENERGY PREDICTED BY IDOCK:   -7.56 KCAL/MOL
REMARK 924 INTRA-LIGAND FREE ENERGY PREDICTED BY IDOCK:   -1.13 KCAL/MOL
REMARK 927      BINDING AFFINITY PREDICTED BY RF-SCORE:    0.00 PKD
ROOT
HETATM    1 CA   UNL     1     -11.628   7.822  67.080  1.00  0.00    -0.491 Ca 
HETATM    2  O   UNL     2     -12.547  14.100  64.128  1.00  0.00    -0.684 OA 
HETATM    3  C   UNL     2     -12.592  12.716  64.494  1.00  0.00    -0.412 C  
HETATM    4  H   UNL     2     -13.176  14.228  63.427  1.00  0.00     0.000 HD 
HETATM    5  O   UNL     3     -13.528  10.831  71.206  1.00  0.00    -0.179 OA 
HETATM    6  H   UNL     3     -13.551  11.700  71.589  1.00  0.00     0.000 HD 
HETATM    7  C   UNL     3     -12.236  10.260  71.558  1.00  0.00    -0.353 C  
ENDROOT
BRANCH   3   8
HETATM    8  C   UNL     2     -11.592  12.512  65.608  1.00  0.00    -0.389 C  
HETATM    9  H   UNL     2     -10.858  13.614  67.059  1.00  0.00     0.000 HD 
HETATM   10  O   UNL     2     -11.488  13.742  66.359  1.00  0.00    -0.316 OA 
BRANCH   8  11
HETATM   11  C   UNL     2     -10.171  12.092  65.175  1.00  0.00    -0.276 C  
HETATM   12  C   UNL     2      -9.898  10.681  64.719  1.00  0.00    -0.310 C  
HETATM   13  O   UNL     2      -9.456  12.060  66.415  1.00  0.00    -0.221 OA 
HETATM   14  O   UNL     2      -9.827  10.580  68.151  1.00  0.00    -0.149 OA 
HETATM   15  H   UNL     2      -9.752   7.966  65.179  1.00  0.00     0.000 HD 
HETATM   16  O   UNL     2      -9.556  10.496  63.519  1.00  0.00    -0.280 OA 
HETATM   17  C   UNL     2      -9.804  10.863  66.974  1.00  0.00    -0.183 C  
HETATM   18  C   UNL     2      -9.921   9.913  65.834  1.00  0.00    -0.277 C  
HETATM   19  O   UNL     2      -9.677   8.572  65.906  1.00  0.00    -0.182 OA 
ENDBRANCH   8  11
ENDBRANCH   3   8
BRANCH   7  20
HETATM   20  C   UNL     3     -12.198   8.857  70.939  1.00  0.00    -0.137 C  
HETATM   21  O   UNL     3     -13.491   8.259  71.001  1.00  0.00    -0.531 OA 
HETATM   22  H   UNL     3     -13.468   7.391  70.618  1.00  0.00     0.000 HD 
BRANCH  20  23
HETATM   23  C   UNL     3     -11.056   7.855  71.264  1.00  0.00    -0.250 C  
HETATM   24  O   UNL     3      -8.137   8.594  72.976  1.00  0.00    -0.394 OA 
HETATM   25  C   UNL     3     -10.064   7.199  73.238  1.00  0.00    -0.276 C  
HETATM   26  C   UNL     3     -11.053   6.880  72.395  1.00  0.00    -0.260 C  
HETATM   27  O   UNL     3      -9.695   6.507  74.369  1.00  0.00    -0.246 OA 
HETATM   28  O   UNL     3      -9.775   8.500  71.358  1.00  0.00    -0.180 OA 
HETATM   29  C   UNL     3      -9.232   8.218  72.592  1.00  0.00    -0.274 C  
HETATM   30  O   UNL     3     -11.849   5.921  72.265  1.00  0.00    -0.303 OA 
HETATM   31  H   UNL     3     -10.234   5.846  74.788  1.00  0.00     0.000 HD 
ENDBRANCH  20  23
ENDBRANCH   7  20
TORSDOF 4
ENDMDL
MODEL      104
REMARK 921   NORMALIZED FREE ENERGY PREDICTED BY IDOCK:   -5.48 KCAL/MOL
REMARK 922        TOTAL FREE ENERGY PREDICTED BY IDOCK:   -8.68 KCAL/MOL
REMARK 923 INTER-LIGAND FREE ENERGY PREDICTED BY IDOCK:   -7.57 KCAL/MOL
REMARK 924 INTRA-LIGAND FREE ENERGY PREDICTED BY IDOCK:   -1.11 KCAL/MOL
REMARK 927      BINDING AFFINITY PREDICTED BY RF-SCORE:    0.00 PKD
ROOT
HETATM    1 CA   UNL     1     -11.600  16.439  69.269  1.00  0.00    -0.274 Ca 
HETATM    2  O   UNL     2     -12.586  12.013  63.939  1.00  0.00    -0.476 OA 
HETATM    3  C   UNL     2     -12.656  13.083  64.889  1.00  0.00    -0.428 C  
HETATM    4  H   UNL     2     -13.258  12.170  63.285  1.00  0.00     0.000 HD 
HETATM    5  O   UNL     3      -6.904  16.784  66.527  1.00  0.00    -0.220 OA 
HETATM    6  H   UNL     3      -6.280  16.311  65.990  1.00  0.00     0.000 HD 
HETATM    7  C   UNL     3      -6.651  16.384  67.904  1.00  0.00    -0.133 C  
ENDROOT
BRANCH   3   8
HETATM    8  C   UNL     2     -11.588  12.833  65.928  1.00  0.00    -0.382 C  
HETATM    9  H   UNL     2     -11.471  11.829  67.612  1.00  0.00     0.000 HD 
HETATM   10  O   UNL     2     -12.142  11.985  66.958  1.00  0.00    -0.603 OA 
BRANCH   8  11
HETATM   11  C   UNL     2     -10.994  14.087  66.604  1.00  0.00    -0.300 C  
HETATM   12  C   UNL     2      -9.555  14.473  66.367  1.00  0.00    -0.303 C  
HETATM   13  O   UNL     2     -10.888  13.689  67.976  1.00  0.00    -0.237 OA 
HETATM   14  O   UNL     2      -9.481  12.053  68.803  1.00  0.00    -0.102 OA 
HETATM   15  H   UNL     2      -6.848  13.995  66.576  1.00  0.00     0.000 HD 
HETATM   16  O   UNL     2      -9.319  15.553  65.760  1.00  0.00    -0.332 OA 
HETATM   17  C   UNL     2      -9.748  12.938  68.022  1.00  0.00    -0.224 C  
HETATM   18  C   UNL     2      -8.808  13.587  67.067  1.00  0.00    -0.211 C  
HETATM   19  O   UNL     2      -7.448  13.581  67.185  1.00  0.00    -0.094 OA 
ENDBRANCH   8  11
ENDBRANCH   3   8
BRANCH   7  20
HETATM   20  C   UNL     3      -7.658  17.148  68.771  1.00  0.00    -0.259 C  
HETATM   21  O   UNL     3      -8.921  16.485  68.754  1.00  0.00    -0.232 OA 
HETATM   22  H   UNL     3      -9.545  16.958  69.291  1.00  0.00     0.000 HD 
BRANCH  20  23
HETATM   23  C   UNL     3      -7.790  18.694  68.695  1.00  0.00    -0.321 C  
HETATM   24  O   UNL     3      -6.805  20.683  66.036  1.00  0.00    -0.232 OA 
HETATM   25  C   UNL     3      -8.819  20.105  67.192  1.00  0.00    -0.353 C  
HETATM   26  C   UNL     3      -9.030  19.443  68.336  1.00  0.00    -0.354 C  
HETATM   27  O   UNL     3      -9.697  20.958  66.564  1.00  0.00    -0.593 OA 
HETATM   28  O   UNL     3      -6.774  19.287  67.870  1.00  0.00    -0.223 OA 
HETATM   29  C   UNL     3      -7.389  20.030  66.885  1.00  0.00    -0.250 C  
HETATM   30  O   UNL     3      -9.932  19.416  69.204  1.00  0.00    -0.435 OA 
HETATM   31  H   UNL     3     -10.625  21.007  66.763  1.00  0.00     0.000 HD 
ENDBRANCH  20  23
ENDBRANCH   7  20
TORSDOF 4
ENDMDL
MODEL      105
REMARK 921   NORMALIZED FREE ENERGY PREDICTED BY IDOCK:   -5.46 KCAL/MOL
REMARK 922        TOTAL FREE ENERGY PREDICTED BY IDOCK:   -8.67 KCAL/MOL
REMARK 923 INTER-LIGAND FREE ENERGY PREDICTED BY IDOCK:   -7.68 KCAL/MOL
REMARK 924 INTRA-LIGAND FREE ENERGY PREDICTED BY IDOCK:   -0.98 KCAL/MOL
REMARK 927      BINDING AFFINITY PREDICTED BY RF-SCORE:    0.00 PKD
ROOT
HETATM    1 CA   UNL     1      -7.642  11.667  67.844  1.00  0.00    -0.088 Ca 
HETATM    2  O   UNL     2      -9.871   7.846  73.267  1.00  0.00    -0.293 OA 
HETATM    3  C   UNL     2      -9.102   8.561  72.292  1.00  0.00    -0.248 C  
HETATM    4  H   UNL     2      -9.263   7.505  73.912  1.00  0.00     0.000 HD 
HETATM    5  O   UNL     3     -10.751  15.187  70.606  1.00  0.00    -0.495 OA 
HETATM    6  H   UNL     3     -11.519  15.281  71.157  1.00  0.00     0.000 HD 
HETATM    7  C   UNL     3     -11.238  15.055  69.240  1.00  0.00    -0.286 C  
ENDROOT
BRANCH   3   8
HETATM    8  C   UNL     2     -10.069   9.104  71.266  1.00  0.00    -0.318 C  
HETATM    9  H   UNL     2     -11.976   9.571  71.239  1.00  0.00     0.000 HD 
HETATM   10  O   UNL     2     -11.368   9.231  71.885  1.00  0.00    -0.374 OA 
BRANCH   8  11
HETATM   11  C   UNL     2     -10.229   8.269  69.977  1.00  0.00    -0.202 C  
HETATM   12  C   UNL     2      -9.312   8.496  68.802  1.00  0.00    -0.143 C  
HETATM   13  O   UNL     2     -11.438   8.786  69.411  1.00  0.00     0.203 OA 
HETATM   14  O   UNL     2     -11.735  10.920  68.575  1.00  0.00    -0.382 OA 
HETATM   15  H   UNL     2      -8.318  10.069  66.767  1.00  0.00     0.000 HD 
HETATM   16  O   UNL     2      -8.529   7.566  68.466  1.00  0.00    -0.128 OA 
HETATM   17  C   UNL     2     -11.055   9.943  68.795  1.00  0.00    -0.135 C  
HETATM   18  C   UNL     2      -9.700   9.667  68.242  1.00  0.00    -0.146 C  
HETATM   19  O   UNL     2      -9.182  10.245  67.120  1.00  0.00    -0.144 OA 
ENDBRANCH   8  11
ENDBRANCH   3   8
BRANCH   7  20
HETATM   20  C   UNL     3     -10.000  14.903  68.349  1.00  0.00    -0.222 C  
HETATM   21  O   UNL     3      -9.094  15.980  68.583  1.00  0.00    -0.194 OA 
HETATM   22  H   UNL     3      -8.326  15.886  68.031  1.00  0.00     0.000 HD 
BRANCH  20  23
HETATM   23  C   UNL     3     -10.119  14.534  66.845  1.00  0.00    -0.257 C  
HETATM   24  O   UNL     3     -13.074  13.993  65.119  1.00  0.00    -0.776 OA 
HETATM   25  C   UNL     3     -11.226  15.513  65.076  1.00  0.00    -0.358 C  
HETATM   26  C   UNL     3     -10.045  15.497  65.706  1.00  0.00    -0.360 C  
HETATM   27  O   UNL     3     -11.541  16.225  63.941  1.00  0.00    -1.489 OA 
HETATM   28  O   UNL     3     -11.296  13.757  66.566  1.00  0.00    -0.309 OA 
HETATM   29  C   UNL     3     -12.031  14.406  65.598  1.00  0.00    -0.354 C  
HETATM   30  O   UNL     3      -8.906  15.973  65.492  1.00  0.00    -0.187 OA 
HETATM   31  H   UNL     3     -11.018  16.943  63.602  1.00  0.00     0.000 HD 
ENDBRANCH  20  23
ENDBRANCH   7  20
TORSDOF 4
ENDMDL
MODEL      106
REMARK 921   NORMALIZED FREE ENERGY PREDICTED BY IDOCK:   -5.45 KCAL/MOL
REMARK 922        TOTAL FREE ENERGY PREDICTED BY IDOCK:   -8.66 KCAL/MOL
REMARK 923 INTER-LIGAND FREE ENERGY PREDICTED BY IDOCK:   -7.05 KCAL/MOL
REMARK 924 INTRA-LIGAND FREE ENERGY PREDICTED BY IDOCK:   -1.60 KCAL/MOL
REMARK 927      BINDING AFFINITY PREDICTED BY RF-SCORE:    0.00 PKD
ROOT
HETATM    1 CA   UNL     1     -11.350   9.867  71.480  1.00  0.00    -0.275 Ca 
HETATM    2  O   UNL     2      -8.117  13.783  66.665  1.00  0.00    -0.355 OA 
HETATM    3  C   UNL     2      -8.553  13.135  67.865  1.00  0.00    -0.185 C  
HETATM    4  H   UNL     2      -7.379  14.336  66.894  1.00  0.00     0.000 HD 
HETATM    5  O   UNL     3      -9.275   6.142  68.087  1.00  0.00    -0.119 OA 
HETATM    6  H   UNL     3      -9.047   5.953  67.185  1.00  0.00     0.000 HD 
HETATM    7  C   UNL     3     -10.718   5.975  68.190  1.00  0.00    -0.278 C  
ENDROOT
BRANCH   3   8
HETATM    8  C   UNL     2      -9.726  12.255  67.501  1.00  0.00    -0.190 C  
HETATM    9  H   UNL     2     -10.242  11.171  65.946  1.00  0.00     0.000 HD 
HETATM   10  O   UNL     2      -9.504  11.724  66.176  1.00  0.00    -0.218 OA 
BRANCH   8  11
HETATM   11  C   UNL     2     -11.114  12.930  67.524  1.00  0.00    -0.269 C  
HETATM   12  C   UNL     2     -11.561  13.716  68.730  1.00  0.00    -0.324 C  
HETATM   13  O   UNL     2     -12.007  11.818  67.646  1.00  0.00    -0.599 OA 
HETATM   14  O   UNL     2     -12.184  10.423  69.480  1.00  0.00    -0.155 OA 
HETATM   15  H   UNL     2     -12.264  13.888  71.391  1.00  0.00     0.000 HD 
HETATM   16  O   UNL     2     -11.740  14.958  68.602  1.00  0.00    -0.318 OA 
HETATM   17  C   UNL     2     -11.972  11.502  68.975  1.00  0.00    -0.311 C  
HETATM   18  C   UNL     2     -11.851  12.803  69.688  1.00  0.00    -0.317 C  
HETATM   19  O   UNL     2     -12.341  13.059  70.936  1.00  0.00    -0.366 OA 
ENDBRANCH   8  11
ENDBRANCH   3   8
BRANCH   7  20
HETATM   20  C   UNL     3     -11.088   6.280  69.646  1.00  0.00    -0.412 C  
HETATM   21  O   UNL     3     -11.786   7.522  69.725  1.00  0.00    -0.471 OA 
HETATM   22  H   UNL     3     -12.015   7.711  70.627  1.00  0.00     0.000 HD 
BRANCH  20  23
HETATM   23  C   UNL     3     -10.067   6.092  70.802  1.00  0.00    -0.197 C  
HETATM   24  O   UNL     3      -8.423   8.632  72.489  1.00  0.00    -0.364 OA 
HETATM   25  C   UNL     3      -9.986   6.884  72.965  1.00  0.00    -0.187 C  
HETATM   26  C   UNL     3     -10.411   5.846  72.234  1.00  0.00    -0.205 C  
HETATM   27  O   UNL     3     -10.060   7.008  74.334  1.00  0.00    -0.458 OA 
HETATM   28  O   UNL     3      -9.101   7.155  70.855  1.00  0.00    -0.151 OA 
HETATM   29  C   UNL     3      -9.140   7.720  72.111  1.00  0.00    -0.144 C  
HETATM   30  O   UNL     3     -10.883   4.711  72.474  1.00  0.00    -0.186 OA 
HETATM   31  H   UNL     3     -10.609   6.464  74.888  1.00  0.00     0.000 HD 
ENDBRANCH  20  23
ENDBRANCH   7  20
TORSDOF 4
ENDMDL
MODEL      107
REMARK 921   NORMALIZED FREE ENERGY PREDICTED BY IDOCK:   -5.42 KCAL/MOL
REMARK 922        TOTAL FREE ENERGY PREDICTED BY IDOCK:   -8.61 KCAL/MOL
REMARK 923 INTER-LIGAND FREE ENERGY PREDICTED BY IDOCK:   -8.07 KCAL/MOL
REMARK 924 INTRA-LIGAND FREE ENERGY PREDICTED BY IDOCK:   -0.55 KCAL/MOL
REMARK 927      BINDING AFFINITY PREDICTED BY RF-SCORE:    0.00 PKD
ROOT
HETATM    1 CA   UNL     1     -12.620   9.877  69.093  1.00  0.00    -0.492 Ca 
HETATM    2  O   UNL     2      -6.705   6.977  71.455  1.00  0.00    -0.051 OA 
HETATM    3  C   UNL     2      -7.979   7.248  70.860  1.00  0.00    -0.098 C  
HETATM    4  H   UNL     2      -6.505   6.063  71.292  1.00  0.00     0.000 HD 
HETATM    5  O   UNL     3      -8.766  12.629  66.399  1.00  0.00    -0.415 OA 
HETATM    6  H   UNL     3      -7.881  12.971  66.441  1.00  0.00     0.000 HD 
HETATM    7  C   UNL     3      -9.600  13.550  67.157  1.00  0.00    -0.241 C  
ENDROOT
BRANCH   3   8
HETATM    8  C   UNL     2      -8.297   8.702  71.118  1.00  0.00    -0.164 C  
HETATM    9  H   UNL     2      -7.665  10.080  72.367  1.00  0.00     0.000 HD 
HETATM   10  O   UNL     2      -7.465   9.166  72.204  1.00  0.00    -0.330 OA 
BRANCH   8  11
HETATM   11  C   UNL     2      -9.766   9.024  71.467  1.00  0.00    -0.295 C  
HETATM   12  C   UNL     2     -10.800   7.927  71.502  1.00  0.00    -0.229 C  
HETATM   13  O   UNL     2     -10.226   9.717  70.301  1.00  0.00    -0.261 OA 
HETATM   14  O   UNL     2     -10.480   8.799  68.196  1.00  0.00    -0.216 OA 
HETATM   15  H   UNL     2     -12.304   5.968  70.275  1.00  0.00     0.000 HD 
HETATM   16  O   UNL     2     -11.337   7.647  72.608  1.00  0.00    -0.332 OA 
HETATM   17  C   UNL     2     -10.498   8.724  69.404  1.00  0.00    -0.222 C  
HETATM   18  C   UNL     2     -11.047   7.601  70.211  1.00  0.00    -0.244 C  
HETATM   19  O   UNL     2     -11.953   6.685  69.760  1.00  0.00    -0.245 OA 
ENDBRANCH   8  11
ENDBRANCH   3   8
BRANCH   7  20
HETATM   20  C   UNL     3     -11.029  12.999  67.090  1.00  0.00    -0.269 C  
HETATM   21  O   UNL     3     -11.002  11.573  67.059  1.00  0.00    -0.264 OA 
HETATM   22  H   UNL     3     -11.888  11.231  67.018  1.00  0.00     0.000 HD 
BRANCH  20  23
HETATM   23  C   UNL     3     -12.089  13.600  66.127  1.00  0.00    -0.436 C  
HETATM   24  O   UNL     3     -11.590  16.269  63.975  1.00  0.00    -0.953 OA 
HETATM   25  C   UNL     3     -12.121  13.939  63.848  1.00  0.00    -0.345 C  
HETATM   26  C   UNL     3     -12.459  13.050  64.790  1.00  0.00    -0.427 C  
HETATM   27  O   UNL     3     -12.353  13.830  62.495  1.00  0.00    -0.589 OA 
HETATM   28  O   UNL     3     -11.868  14.999  65.878  1.00  0.00    -0.193 OA 
HETATM   29  C   UNL     3     -11.755  15.188  64.518  1.00  0.00    -0.328 C  
HETATM   30  O   UNL     3     -13.107  11.978  64.822  1.00  0.00    -0.430 OA 
HETATM   31  H   UNL     3     -12.592  13.019  62.061  1.00  0.00     0.000 HD 
ENDBRANCH  20  23
ENDBRANCH   7  20
TORSDOF 4
ENDMDL
MODEL      108
REMARK 921   NORMALIZED FREE ENERGY PREDICTED BY IDOCK:   -5.41 KCAL/MOL
REMARK 922        TOTAL FREE ENERGY PREDICTED BY IDOCK:   -8.60 KCAL/MOL
REMARK 923 INTER-LIGAND FREE ENERGY PREDICTED BY IDOCK:   -6.87 KCAL/MOL
REMARK 924 INTRA-LIGAND FREE ENERGY PREDICTED BY IDOCK:   -1.73 KCAL/MOL
REMARK 927      BINDING AFFINITY PREDICTED BY RF-SCORE:    0.00 PKD
ROOT
HETATM    1 CA   UNL     1      -9.257  12.870  65.406  1.00  0.00    -0.396 Ca 
HETATM    2  O   UNL     2      -7.412   7.868  69.940  1.00  0.00    -0.076 OA 
HETATM    3  C   UNL     2      -7.455   8.873  68.920  1.00  0.00    -0.082 C  
HETATM    4  H   UNL     2      -6.513   7.569  70.005  1.00  0.00     0.000 HD 
HETATM    5  O   UNL     3     -10.297  15.171  70.234  1.00  0.00    -0.481 OA 
HETATM    6  H   UNL     3     -10.573  15.012  71.129  1.00  0.00     0.000 HD 
HETATM    7  C   UNL     3     -11.504  15.151  69.420  1.00  0.00    -0.306 C  
ENDROOT
BRANCH   3   8
HETATM    8  C   UNL     2      -8.886   9.348  68.817  1.00  0.00    -0.132 C  
HETATM    9  H   UNL     2     -10.418   9.474  70.039  1.00  0.00     0.000 HD 
HETATM   10  O   UNL     2      -9.519   9.176  70.104  1.00  0.00    -0.179 OA 
BRANCH   8  11
HETATM   11  C   UNL     2      -9.758   8.647  67.754  1.00  0.00    -0.165 C  
HETATM   12  C   UNL     2      -9.369   8.690  66.297  1.00  0.00    -0.220 C  
HETATM   13  O   UNL     2     -10.919   9.483  67.692  1.00  0.00    -0.248 OA 
HETATM   14  O   UNL     2     -10.977  11.660  66.920  1.00  0.00    -0.263 OA 
HETATM   15  H   UNL     2      -8.919  10.056  63.944  1.00  0.00     0.000 HD 
HETATM   16  O   UNL     2      -9.052   7.609  65.731  1.00  0.00    -0.112 OA 
HETATM   17  C   UNL     2     -10.538  10.532  66.906  1.00  0.00    -0.243 C  
HETATM   18  C   UNL     2      -9.641   9.947  65.872  1.00  0.00    -0.239 C  
HETATM   19  O   UNL     2      -9.491  10.429  64.604  1.00  0.00    -0.229 OA 
ENDBRANCH   8  11
ENDBRANCH   3   8
BRANCH   7  20
HETATM   20  C   UNL     3     -11.058  15.408  67.976  1.00  0.00    -0.312 C  
HETATM   21  O   UNL     3     -10.105  14.425  67.575  1.00  0.00    -0.230 OA 
HETATM   22  H   UNL     3      -9.829  14.584  66.680  1.00  0.00     0.000 HD 
BRANCH  20  23
HETATM   23  C   UNL     3     -10.696  16.834  67.477  1.00  0.00    -0.275 C  
HETATM   24  O   UNL     3      -7.991  18.724  68.533  1.00  0.00    -0.324 OA 
HETATM   25  C   UNL     3      -8.799  17.722  66.516  1.00  0.00    -0.262 C  
HETATM   26  C   UNL     3      -9.972  17.154  66.211  1.00  0.00    -0.304 C  
HETATM   27  O   UNL     3      -7.871  18.215  65.627  1.00  0.00    -0.520 OA 
HETATM   28  O   UNL     3     -10.003  17.601  68.476  1.00  0.00    -0.326 OA 
HETATM   29  C   UNL     3      -8.804  18.026  67.948  1.00  0.00    -0.268 C  
HETATM   30  O   UNL     3     -10.633  16.963  65.164  1.00  0.00    -0.679 OA 
HETATM   31  H   UNL     3      -7.868  18.017  64.697  1.00  0.00     0.000 HD 
ENDBRANCH  20  23
ENDBRANCH   7  20
TORSDOF 4
ENDMDL
MODEL      109
REMARK 921   NORMALIZED FREE ENERGY PREDICTED BY IDOCK:   -5.40 KCAL/MOL
REMARK 922        TOTAL FREE ENERGY PREDICTED BY IDOCK:   -8.59 KCAL/MOL
REMARK 923 INTER-LIGAND FREE ENERGY PREDICTED BY IDOCK:   -9.02 KCAL/MOL
REMARK 924 INTRA-LIGAND FREE ENERGY PREDICTED BY IDOCK:    0.43 KCAL/MOL
REMARK 927      BINDING AFFINITY PREDICTED BY RF-SCORE:    0.00 PKD
ROOT
HETATM    1 CA   UNL     1      -8.483  13.870  69.435  1.00  0.00    -0.308 Ca 
HETATM    2  O   UNL     2      -5.423  20.126  68.750  1.00  0.00    -0.210 OA 
HETATM    3  C   UNL     2      -5.721  18.733  68.899  1.00  0.00    -0.206 C  
HETATM    4  H   UNL     2      -4.479  20.210  68.694  1.00  0.00     0.000 HD 
HETATM    5  O   UNL     3     -10.303  15.581  64.593  1.00  0.00    -0.553 OA 
HETATM    6  H   UNL     3     -10.551  16.341  64.079  1.00  0.00     0.000 HD 
HETATM    7  C   UNL     3     -11.425  15.297  65.476  1.00  0.00    -0.152 C  
ENDROOT
BRANCH   3   8
HETATM    8  C   UNL     2      -7.223  18.601  68.987  1.00  0.00    -0.256 C  
HETATM    9  H   UNL     2      -8.553  17.266  68.430  1.00  0.00     0.000 HD 
HETATM   10  O   UNL     2      -7.608  17.349  68.375  1.00  0.00    -0.233 OA 
BRANCH   8  11
HETATM   11  C   UNL     2      -8.044  19.730  68.329  1.00  0.00    -0.287 C  
HETATM   12  C   UNL     2      -9.430  19.460  67.802  1.00  0.00    -0.326 C  
HETATM   13  O   UNL     2      -7.372  19.925  67.079  1.00  0.00    -0.226 OA 
HETATM   14  O   UNL     2      -7.278  18.403  65.344  1.00  0.00    -0.534 OA 
HETATM   15  H   UNL     2     -11.165  18.207  66.064  1.00  0.00     0.000 HD 
HETATM   16  O   UNL     2     -10.404  20.037  68.359  1.00  0.00    -0.433 OA 
HETATM   17  C   UNL     2      -7.839  18.918  66.285  1.00  0.00    -0.279 C  
HETATM   18  C   UNL     2      -9.268  18.745  66.664  1.00  0.00    -0.329 C  
HETATM   19  O   UNL     2     -10.254  18.317  65.822  1.00  0.00    -0.576 OA 
ENDBRANCH   8  11
ENDBRANCH   3   8
BRANCH   7  20
HETATM   20  C   UNL     3     -11.025  14.072  66.306  1.00  0.00    -0.300 C  
HETATM   21  O   UNL     3      -9.699  14.231  66.808  1.00  0.00    -0.256 OA 
HETATM   22  H   UNL     3      -9.451  13.472  67.322  1.00  0.00     0.000 HD 
BRANCH  20  23
HETATM   23  C   UNL     3     -11.311  12.626  65.814  1.00  0.00    -0.333 C  
HETATM   24  O   UNL     3     -13.242  11.765  63.070  1.00  0.00    -0.474 OA 
HETATM   25  C   UNL     3     -10.972  11.564  63.797  1.00  0.00    -0.409 C  
HETATM   26  C   UNL     3     -10.392  11.795  64.981  1.00  0.00    -0.281 C  
HETATM   27  O   UNL     3     -10.471  10.787  62.776  1.00  0.00    -0.763 OA 
HETATM   28  O   UNL     3     -12.578  12.520  65.144  1.00  0.00    -0.631 OA 
HETATM   29  C   UNL     3     -12.365  12.005  63.884  1.00  0.00    -0.450 C  
HETATM   30  O   UNL     3      -9.370  11.383  65.577  1.00  0.00    -0.221 OA 
HETATM   31  H   UNL     3      -9.567  10.501  62.721  1.00  0.00     0.000 HD 
ENDBRANCH  20  23
ENDBRANCH   7  20
TORSDOF 4
ENDMDL
MODEL      110
REMARK 921   NORMALIZED FREE ENERGY PREDICTED BY IDOCK:   -5.40 KCAL/MOL
REMARK 922        TOTAL FREE ENERGY PREDICTED BY IDOCK:   -8.59 KCAL/MOL
REMARK 923 INTER-LIGAND FREE ENERGY PREDICTED BY IDOCK:   -8.08 KCAL/MOL
REMARK 924 INTRA-LIGAND FREE ENERGY PREDICTED BY IDOCK:   -0.51 KCAL/MOL
REMARK 927      BINDING AFFINITY PREDICTED BY RF-SCORE:    0.00 PKD
ROOT
HETATM    1 CA   UNL     1     -11.740   8.758  67.600  1.00  0.00    -0.471 Ca 
HETATM    2  O   UNL     2     -12.153  15.713  68.244  1.00  0.00    -0.447 OA 
HETATM    3  C   UNL     2     -12.121  14.297  68.456  1.00  0.00    -0.260 C  
HETATM    4  H   UNL     2     -12.261  16.125  69.094  1.00  0.00     0.000 HD 
HETATM    5  O   UNL     3      -6.848  10.423  65.874  1.00  0.00    -0.117 OA 
HETATM    6  H   UNL     3      -6.374  11.117  65.431  1.00  0.00     0.000 HD 
HETATM    7  C   UNL     3      -7.506   9.645  64.834  1.00  0.00    -0.118 C  
ENDROOT
BRANCH   3   8
HETATM    8  C   UNL     2     -11.950  13.644  67.104  1.00  0.00    -0.393 C  
HETATM    9  H   UNL     2     -11.878  11.800  66.432  1.00  0.00     0.000 HD 
HETATM   10  O   UNL     2     -11.986  12.211  67.282  1.00  0.00    -0.573 OA 
BRANCH   8  11
HETATM   11  C   UNL     2     -10.659  14.001  66.337  1.00  0.00    -0.280 C  
HETATM   12  C   UNL     2     -10.423  15.409  65.852  1.00  0.00    -0.340 C  
HETATM   13  O   UNL     2     -10.855  13.365  65.069  1.00  0.00    -0.298 OA 
HETATM   14  O   UNL     2     -12.453  13.942  63.502  1.00  0.00    -0.810 OA 
HETATM   15  H   UNL     2     -11.070  17.571  64.267  1.00  0.00     0.000 HD 
HETATM   16  O   UNL     2      -9.467  16.062  66.352  1.00  0.00    -0.248 OA 
HETATM   17  C   UNL     2     -11.676  14.219  64.388  1.00  0.00    -0.389 C  
HETATM   18  C   UNL     2     -11.250  15.586  64.794  1.00  0.00    -0.390 C  
HETATM   19  O   UNL     2     -11.342  16.698  64.009  1.00  0.00    -1.120 OA 
ENDBRANCH   8  11
ENDBRANCH   3   8
BRANCH   7  20
HETATM   20  C   UNL     3      -8.272   8.525  65.549  1.00  0.00    -0.137 C  
HETATM   21  O   UNL     3      -8.856   7.643  64.592  1.00  0.00    -0.348 OA 
HETATM   22  H   UNL     3      -9.330   6.949  65.035  1.00  0.00     0.000 HD 
BRANCH  20  23
HETATM   23  C   UNL     3      -9.216   8.821  66.748  1.00  0.00    -0.169 C  
HETATM   24  O   UNL     3      -9.267   7.107  69.757  1.00  0.00    -0.145 OA 
HETATM   25  C   UNL     3      -8.823   9.320  68.963  1.00  0.00    -0.136 C  
HETATM   26  C   UNL     3      -9.014   9.892  67.768  1.00  0.00    -0.131 C  
HETATM   27  O   UNL     3      -8.663   9.969  70.166  1.00  0.00    -0.329 OA 
HETATM   28  O   UNL     3      -9.490   7.645  67.528  1.00  0.00    -0.136 OA 
HETATM   29  C   UNL     3      -9.134   7.895  68.835  1.00  0.00    -0.141 C  
HETATM   30  O   UNL     3      -9.192  11.059  67.348  1.00  0.00    -0.151 OA 
HETATM   31  H   UNL     3      -8.462  10.894  70.249  1.00  0.00     0.000 HD 
ENDBRANCH  20  23
ENDBRANCH   7  20
TORSDOF 4
ENDMDL
MODEL      111
REMARK 921   NORMALIZED FREE ENERGY PREDICTED BY IDOCK:   -5.40 KCAL/MOL
REMARK 922        TOTAL FREE ENERGY PREDICTED BY IDOCK:   -8.59 KCAL/MOL
REMARK 923 INTER-LIGAND FREE ENERGY PREDICTED BY IDOCK:   -6.84 KCAL/MOL
REMARK 924 INTRA-LIGAND FREE ENERGY PREDICTED BY IDOCK:   -1.75 KCAL/MOL
REMARK 927      BINDING AFFINITY PREDICTED BY RF-SCORE:    0.00 PKD
ROOT
HETATM    1 CA   UNL     1      -7.811  13.190  69.436  1.00  0.00    -0.282 Ca 
HETATM    2  O   UNL     2     -10.961  17.129  64.585  1.00  0.00    -1.005 OA 
HETATM    3  C   UNL     2     -10.067  16.300  65.337  1.00  0.00    -0.145 C  
HETATM    4  H   UNL     2     -10.569  17.266  63.731  1.00  0.00     0.000 HD 
HETATM    5  O   UNL     3     -12.393  10.422  68.421  1.00  0.00    -0.514 OA 
HETATM    6  H   UNL     3     -13.309  10.495  68.179  1.00  0.00     0.000 HD 
HETATM    7  C   UNL     3     -12.312  10.753  69.837  1.00  0.00    -0.271 C  
ENDROOT
BRANCH   3   8
HETATM    8  C   UNL     2     -10.690  16.082  66.696  1.00  0.00    -0.247 C  
HETATM    9  H   UNL     2     -11.034  17.191  68.280  1.00  0.00     0.000 HD 
HETATM   10  O   UNL     2     -10.642  17.328  67.426  1.00  0.00    -0.344 OA 
BRANCH   8  11
HETATM   11  C   UNL     2     -10.044  14.987  67.570  1.00  0.00    -0.228 C  
HETATM   12  C   UNL     2      -9.178  13.923  66.945  1.00  0.00    -0.259 C  
HETATM   13  O   UNL     2     -11.162  14.169  67.934  1.00  0.00    -0.260 OA 
HETATM   14  O   UNL     2     -12.416  12.874  66.488  1.00  0.00    -0.396 OA 
HETATM   15  H   UNL     2      -8.817  11.755  65.280  1.00  0.00     0.000 HD 
HETATM   16  O   UNL     2      -7.953  13.896  67.247  1.00  0.00    -0.176 OA 
HETATM   17  C   UNL     2     -11.374  13.381  66.839  1.00  0.00    -0.323 C  
HETATM   18  C   UNL     2     -10.020  13.084  66.297  1.00  0.00    -0.283 C  
HETATM   19  O   UNL     2      -9.680  11.945  65.626  1.00  0.00    -0.232 OA 
ENDBRANCH   8  11
ENDBRANCH   3   8
BRANCH   7  20
HETATM   20  C   UNL     3     -10.835  10.636  70.227  1.00  0.00    -0.087 C  
HETATM   21  O   UNL     3     -10.058  11.585  69.497  1.00  0.00    -0.406 OA 
HETATM   22  H   UNL     3      -9.143  11.513  69.739  1.00  0.00     0.000 HD 
BRANCH  20  23
HETATM   23  C   UNL     3     -10.133   9.256  70.352  1.00  0.00    -0.236 C  
HETATM   24  O   UNL     3      -9.130   7.246  67.715  1.00  0.00    -0.126 OA 
HETATM   25  C   UNL     3      -8.138   8.434  69.540  1.00  0.00    -0.113 C  
HETATM   26  C   UNL     3      -8.677   9.042  70.604  1.00  0.00    -0.213 C  
HETATM   27  O   UNL     3      -6.835   8.011  69.409  1.00  0.00    -0.045 OA 
HETATM   28  O   UNL     3     -10.423   8.394  69.239  1.00  0.00    -0.220 OA 
HETATM   29  C   UNL     3      -9.232   8.003  68.666  1.00  0.00    -0.143 C  
HETATM   30  O   UNL     3      -8.294   9.334  71.761  1.00  0.00    -0.284 OA 
HETATM   31  H   UNL     3      -6.126   8.291  69.977  1.00  0.00     0.000 HD 
ENDBRANCH  20  23
ENDBRANCH   7  20
TORSDOF 4
ENDMDL
MODEL      112
REMARK 921   NORMALIZED FREE ENERGY PREDICTED BY IDOCK:   -5.39 KCAL/MOL
REMARK 922        TOTAL FREE ENERGY PREDICTED BY IDOCK:   -8.58 KCAL/MOL
REMARK 923 INTER-LIGAND FREE ENERGY PREDICTED BY IDOCK:   -7.39 KCAL/MOL
REMARK 924 INTRA-LIGAND FREE ENERGY PREDICTED BY IDOCK:   -1.19 KCAL/MOL
REMARK 927      BINDING AFFINITY PREDICTED BY RF-SCORE:    0.00 PKD
ROOT
HETATM    1 CA   UNL     1      -9.585  15.228  65.063  1.00  0.00    -0.275 Ca 
HETATM    2  O   UNL     2      -6.125  21.306  65.304  1.00  0.00    -0.341 OA 
HETATM    3  C   UNL     2      -6.989  20.210  64.981  1.00  0.00    -0.159 C  
HETATM    4  H   UNL     2      -6.323  22.011  64.698  1.00  0.00     0.000 HD 
HETATM    5  O   UNL     3     -10.940  17.197  69.959  1.00  0.00    -0.324 OA 
HETATM    6  H   UNL     3     -10.645  17.714  70.699  1.00  0.00     0.000 HD 
HETATM    7  C   UNL     3     -10.326  15.885  70.101  1.00  0.00    -0.175 C  
ENDROOT
BRANCH   3   8
HETATM    8  C   UNL     2      -6.673  19.090  65.944  1.00  0.00    -0.249 C  
HETATM    9  H   UNL     2      -5.426  17.572  65.977  1.00  0.00     0.000 HD 
HETATM   10  O   UNL     2      -5.624  18.277  65.372  1.00  0.00    -0.173 OA 
BRANCH   8  11
HETATM   11  C   UNL     2      -7.850  18.164  66.317  1.00  0.00    -0.245 C  
HETATM   12  C   UNL     2      -9.124  18.738  66.884  1.00  0.00    -0.300 C  
HETATM   13  O   UNL     2      -7.372  17.497  67.490  1.00  0.00    -0.172 OA 
HETATM   14  O   UNL     2      -6.953  18.492  69.533  1.00  0.00    -0.171 OA 
HETATM   15  H   UNL     2     -10.522  20.064  68.856  1.00  0.00     0.000 HD 
HETATM   16  O   UNL     2     -10.180  18.637  66.202  1.00  0.00    -0.404 OA 
HETATM   17  C   UNL     2      -7.569  18.401  68.495  1.00  0.00    -0.301 C  
HETATM   18  C   UNL     2      -8.840  19.097  68.158  1.00  0.00    -0.319 C  
HETATM   19  O   UNL     2      -9.710  19.620  69.070  1.00  0.00    -0.406 OA 
ENDBRANCH   8  11
ENDBRANCH   3   8
BRANCH   7  20
HETATM   20  C   UNL     3     -10.803  15.050  68.906  1.00  0.00    -0.243 C  
HETATM   21  O   UNL     3     -10.956  15.882  67.758  1.00  0.00    -0.321 OA 
HETATM   22  H   UNL     3     -11.251  15.365  67.018  1.00  0.00     0.000 HD 
BRANCH  20  23
HETATM   23  C   UNL     3     -11.944  14.005  69.048  1.00  0.00    -0.357 C  
HETATM   24  O   UNL     3     -11.904  10.780  67.782  1.00  0.00    -0.538 OA 
HETATM   25  C   UNL     3     -12.011  11.869  69.910  1.00  0.00    -0.325 C  
HETATM   26  C   UNL     3     -12.196  13.152  70.246  1.00  0.00    -0.306 C  
HETATM   27  O   UNL     3     -12.207  10.773  70.720  1.00  0.00    -0.316 OA 
HETATM   28  O   UNL     3     -11.972  13.078  67.949  1.00  0.00    -0.347 OA 
HETATM   29  C   UNL     3     -11.880  11.799  68.454  1.00  0.00    -0.282 C  
HETATM   30  O   UNL     3     -12.643  13.764  71.243  1.00  0.00    -0.342 OA 
HETATM   31  H   UNL     3     -12.292  10.819  71.665  1.00  0.00     0.000 HD 
ENDBRANCH  20  23
ENDBRANCH   7  20
TORSDOF 4
ENDMDL
MODEL      113
REMARK 921   NORMALIZED FREE ENERGY PREDICTED BY IDOCK:   -5.38 KCAL/MOL
REMARK 922        TOTAL FREE ENERGY PREDICTED BY IDOCK:   -8.56 KCAL/MOL
REMARK 923 INTER-LIGAND FREE ENERGY PREDICTED BY IDOCK:   -7.26 KCAL/MOL
REMARK 924 INTRA-LIGAND FREE ENERGY PREDICTED BY IDOCK:   -1.31 KCAL/MOL
REMARK 927      BINDING AFFINITY PREDICTED BY RF-SCORE:    0.00 PKD
ROOT
HETATM    1 CA   UNL     1      -7.081  11.934  66.027  1.00  0.00    -0.332 Ca 
HETATM    2  O   UNL     2      -6.225   5.660  69.006  1.00  0.00    -0.026 OA 
HETATM    3  C   UNL     2      -6.075   6.994  68.508  1.00  0.00    -0.030 C  
HETATM    4  H   UNL     2      -5.425   5.439  69.470  1.00  0.00     0.000 HD 
HETATM    5  O   UNL     3     -10.956  11.876  69.857  1.00  0.00    -0.458 OA 
HETATM    6  H   UNL     3     -11.565  11.330  70.340  1.00  0.00     0.000 HD 
HETATM    7  C   UNL     3     -11.552  12.099  68.548  1.00  0.00    -0.315 C  
ENDROOT
BRANCH   3   8
HETATM    8  C   UNL     2      -7.346   7.345  67.771  1.00  0.00    -0.092 C  
HETATM    9  H   UNL     2      -7.957   7.272  65.905  1.00  0.00     0.000 HD 
HETATM   10  O   UNL     2      -7.157   7.051  66.369  1.00  0.00    -0.070 OA 
BRANCH   8  11
HETATM   11  C   UNL     2      -7.821   8.808  67.896  1.00  0.00    -0.102 C  
HETATM   12  C   UNL     2      -8.663   9.241  69.070  1.00  0.00    -0.135 C  
HETATM   13  O   UNL     2      -8.813   8.910  66.869  1.00  0.00    -0.123 OA 
HETATM   14  O   UNL     2     -10.843   7.807  66.837  1.00  0.00    -0.311 OA 
HETATM   15  H   UNL     2     -10.982   9.148  70.558  1.00  0.00     0.000 HD 
HETATM   16  O   UNL     2      -8.173  10.071  69.883  1.00  0.00    -0.176 OA 
HETATM   17  C   UNL     2      -9.927   8.343  67.418  1.00  0.00    -0.212 C  
HETATM   18  C   UNL     2      -9.898   8.727  68.857  1.00  0.00    -0.178 C  
HETATM   19  O   UNL     2     -11.001   8.903  69.641  1.00  0.00    -0.216 OA 
ENDBRANCH   8  11
ENDBRANCH   3   8
BRANCH   7  20
HETATM   20  C   UNL     3     -10.569  12.981  67.768  1.00  0.00    -0.226 C  
HETATM   21  O   UNL     3     -10.491  14.274  68.365  1.00  0.00    -0.235 OA 
HETATM   22  H   UNL     3      -9.882  14.820  67.882  1.00  0.00     0.000 HD 
BRANCH  20  23
HETATM   23  C   UNL     3     -10.579  13.036  66.215  1.00  0.00    -0.271 C  
HETATM   24  O   UNL     3     -13.219  12.107  64.173  1.00  0.00    -0.740 OA 
HETATM   25  C   UNL     3     -11.964  14.076  64.695  1.00  0.00    -0.430 C  
HETATM   26  C   UNL     3     -10.834  14.254  65.391  1.00  0.00    -0.342 C  
HETATM   27  O   UNL     3     -12.505  14.945  63.775  1.00  0.00    -1.048 OA 
HETATM   28  O   UNL     3     -11.444  12.041  65.641  1.00  0.00    -0.344 OA 
HETATM   29  C   UNL     3     -12.361  12.673  64.830  1.00  0.00    -0.498 C  
HETATM   30  O   UNL     3      -9.914  15.103  65.408  1.00  0.00    -0.344 OA 
HETATM   31  H   UNL     3     -12.247  15.855  63.687  1.00  0.00     0.000 HD 
ENDBRANCH  20  23
ENDBRANCH   7  20
TORSDOF 4
ENDMDL
MODEL      114
REMARK 921   NORMALIZED FREE ENERGY PREDICTED BY IDOCK:   -5.36 KCAL/MOL
REMARK 922        TOTAL FREE ENERGY PREDICTED BY IDOCK:   -8.54 KCAL/MOL
REMARK 923 INTER-LIGAND FREE ENERGY PREDICTED BY IDOCK:   -7.15 KCAL/MOL
REMARK 924 INTRA-LIGAND FREE ENERGY PREDICTED BY IDOCK:   -1.39 KCAL/MOL
REMARK 927      BINDING AFFINITY PREDICTED BY RF-SCORE:    0.00 PKD
ROOT
HETATM    1 CA   UNL     1     -11.879  14.299  69.227  1.00  0.00    -0.224 Ca 
HETATM    2  O   UNL     2      -6.292  18.117  67.441  1.00  0.00    -0.169 OA 
HETATM    3  C   UNL     2      -7.329  17.409  68.129  1.00  0.00    -0.205 C  
HETATM    4  H   UNL     2      -5.706  18.472  68.100  1.00  0.00     0.000 HD 
HETATM    5  O   UNL     3      -8.827  10.747  66.442  1.00  0.00    -0.155 OA 
HETATM    6  H   UNL     3      -8.207  10.644  65.730  1.00  0.00     0.000 HD 
HETATM    7  C   UNL     3     -10.143  10.862  65.830  1.00  0.00    -0.252 C  
ENDROOT
BRANCH   3   8
HETATM    8  C   UNL     2      -8.261  16.844  67.082  1.00  0.00    -0.190 C  
HETATM    9  H   UNL     2      -8.313  16.807  65.118  1.00  0.00     0.000 HD 
HETATM   10  O   UNL     2      -7.727  17.162  65.777  1.00  0.00    -0.421 OA 
BRANCH   8  11
HETATM   11  C   UNL     2      -9.722  17.337  67.137  1.00  0.00    -0.259 C  
HETATM   12  C   UNL     2     -10.799  16.469  67.736  1.00  0.00    -0.304 C  
HETATM   13  O   UNL     2     -10.131  17.275  65.766  1.00  0.00    -0.533 OA 
HETATM   14  O   UNL     2     -10.381  15.347  64.517  1.00  0.00    -0.171 OA 
HETATM   15  H   UNL     2     -12.355  14.192  67.747  1.00  0.00     0.000 HD 
HETATM   16  O   UNL     2     -11.368  16.863  68.790  1.00  0.00    -0.167 OA 
HETATM   17  C   UNL     2     -10.425  15.957  65.561  1.00  0.00    -0.404 C  
HETATM   18  C   UNL     2     -11.034  15.485  66.835  1.00  0.00    -0.268 C  
HETATM   19  O   UNL     2     -11.966  14.494  66.935  1.00  0.00    -0.403 OA 
ENDBRANCH   8  11
ENDBRANCH   3   8
BRANCH   7  20
HETATM   20  C   UNL     3     -11.144  11.029  66.979  1.00  0.00    -0.244 C  
HETATM   21  O   UNL     3     -12.186  11.924  66.596  1.00  0.00    -0.493 OA 
HETATM   22  H   UNL     3     -12.806  12.027  67.308  1.00  0.00     0.000 HD 
BRANCH  20  23
HETATM   23  C   UNL     3     -10.673  11.247  68.444  1.00  0.00    -0.203 C  
HETATM   24  O   UNL     3     -12.729  11.872  71.161  1.00  0.00    -0.371 OA 
HETATM   25  C   UNL     3     -11.189  10.193  70.428  1.00  0.00    -0.330 C  
HETATM   26  C   UNL     3     -10.317  10.167  69.412  1.00  0.00    -0.232 C  
HETATM   27  O   UNL     3     -11.163   9.398  71.551  1.00  0.00    -0.355 OA 
HETATM   28  O   UNL     3     -11.568  12.095  69.183  1.00  0.00    -0.273 OA 
HETATM   29  C   UNL     3     -11.984  11.418  70.308  1.00  0.00    -0.373 C  
HETATM   30  O   UNL     3      -9.245   9.570  69.163  1.00  0.00    -0.151 OA 
HETATM   31  H   UNL     3     -10.647   8.604  71.628  1.00  0.00     0.000 HD 
ENDBRANCH  20  23
ENDBRANCH   7  20
TORSDOF 4
ENDMDL
MODEL      115
REMARK 921   NORMALIZED FREE ENERGY PREDICTED BY IDOCK:   -5.36 KCAL/MOL
REMARK 922        TOTAL FREE ENERGY PREDICTED BY IDOCK:   -8.53 KCAL/MOL
REMARK 923 INTER-LIGAND FREE ENERGY PREDICTED BY IDOCK:   -6.69 KCAL/MOL
REMARK 924 INTRA-LIGAND FREE ENERGY PREDICTED BY IDOCK:   -1.84 KCAL/MOL
REMARK 927      BINDING AFFINITY PREDICTED BY RF-SCORE:    0.00 PKD
ROOT
HETATM    1 CA   UNL     1      -8.950  12.864  69.400  1.00  0.00    -0.352 Ca 
HETATM    2  O   UNL     2     -10.289   6.968  72.922  1.00  0.00    -0.203 OA 
HETATM    3  C   UNL     2     -10.270   8.302  72.401  1.00  0.00    -0.327 C  
HETATM    4  H   UNL     2     -10.989   6.924  73.564  1.00  0.00     0.000 HD 
HETATM    5  O   UNL     3     -10.480   9.425  65.461  1.00  0.00    -0.079 OA 
HETATM    6  H   UNL     3     -10.481   8.519  65.176  1.00  0.00     0.000 HD 
HETATM    7  C   UNL     3      -9.147   9.942  65.183  1.00  0.00    -0.211 C  
ENDROOT
BRANCH   3   8
HETATM    8  C   UNL     2      -9.157   8.370  71.381  1.00  0.00    -0.186 C  
HETATM    9  H   UNL     2      -7.241   8.798  71.416  1.00  0.00     0.000 HD 
HETATM   10  O   UNL     2      -7.940   8.755  72.058  1.00  0.00    -0.311 OA 
BRANCH   8  11
HETATM   11  C   UNL     2      -9.378   9.339  70.200  1.00  0.00    -0.228 C  
HETATM   12  C   UNL     2     -10.579   9.186  69.301  1.00  0.00    -0.216 C  
HETATM   13  O   UNL     2      -8.361   8.947  69.271  1.00  0.00    -0.115 OA 
HETATM   14  O   UNL     2      -8.261   6.929  68.151  1.00  0.00    -0.117 OA 
HETATM   15  H   UNL     2     -12.062   7.780  67.450  1.00  0.00     0.000 HD 
HETATM   16  O   UNL     2     -11.445  10.104  69.298  1.00  0.00    -0.197 OA 
HETATM   17  C   UNL     2      -8.875   7.841  68.656  1.00  0.00    -0.131 C  
HETATM   18  C   UNL     2     -10.335   8.101  68.528  1.00  0.00    -0.198 C  
HETATM   19  O   UNL     2     -11.131   7.614  67.532  1.00  0.00    -0.087 OA 
ENDBRANCH   8  11
ENDBRANCH   3   8
BRANCH   7  20
HETATM   20  C   UNL     3      -9.145  11.405  65.642  1.00  0.00    -0.161 C  
HETATM   21  O   UNL     3      -9.284  11.473  67.060  1.00  0.00    -0.170 OA 
HETATM   22  H   UNL     3      -9.282  12.379  67.345  1.00  0.00     0.000 HD 
BRANCH  20  23
HETATM   23  C   UNL     3      -9.975  12.491  64.904  1.00  0.00    -0.167 C  
HETATM   24  O   UNL     3     -12.963  11.969  63.231  1.00  0.00    -0.736 OA 
HETATM   25  C   UNL     3     -12.156  13.205  65.114  1.00  0.00    -0.421 C  
HETATM   26  C   UNL     3     -10.916  13.453  65.551  1.00  0.00    -0.283 C  
HETATM   27  O   UNL     3     -13.294  13.914  65.428  1.00  0.00    -0.710 OA 
HETATM   28  O   UNL     3     -10.732  11.948  63.810  1.00  0.00    -0.336 OA 
HETATM   29  C   UNL     3     -12.061  12.261  63.998  1.00  0.00    -0.471 C  
HETATM   30  O   UNL     3     -10.366  14.347  66.235  1.00  0.00    -0.281 OA 
HETATM   31  H   UNL     3     -13.355  14.527  66.152  1.00  0.00     0.000 HD 
ENDBRANCH  20  23
ENDBRANCH   7  20
TORSDOF 4
ENDMDL
MODEL      116
REMARK 921   NORMALIZED FREE ENERGY PREDICTED BY IDOCK:   -5.34 KCAL/MOL
REMARK 922        TOTAL FREE ENERGY PREDICTED BY IDOCK:   -8.51 KCAL/MOL
REMARK 923 INTER-LIGAND FREE ENERGY PREDICTED BY IDOCK:   -6.57 KCAL/MOL
REMARK 924 INTRA-LIGAND FREE ENERGY PREDICTED BY IDOCK:   -1.94 KCAL/MOL
REMARK 927      BINDING AFFINITY PREDICTED BY RF-SCORE:    0.00 PKD
ROOT
HETATM    1 CA   UNL     1     -11.726  16.281  68.890  1.00  0.00    -0.290 Ca 
HETATM    2  O   UNL     2     -10.292  10.245  65.653  1.00  0.00    -0.243 OA 
HETATM    3  C   UNL     2     -10.831  11.505  66.070  1.00  0.00    -0.276 C  
HETATM    4  H   UNL     2     -10.763   9.981  64.871  1.00  0.00     0.000 HD 
HETATM    5  O   UNL     3      -6.589  16.996  67.221  1.00  0.00    -0.137 OA 
HETATM    6  H   UNL     3      -5.760  16.566  67.049  1.00  0.00     0.000 HD 
HETATM    7  C   UNL     3      -6.673  17.165  68.665  1.00  0.00    -0.189 C  
ENDROOT
BRANCH   3   8
HETATM    8  C   UNL     2     -10.080  11.926  67.312  1.00  0.00    -0.196 C  
HETATM    9  H   UNL     2      -9.828  11.196  69.119  1.00  0.00     0.000 HD 
HETATM   10  O   UNL     2     -10.299  10.931  68.337  1.00  0.00    -0.164 OA 
BRANCH   8  11
HETATM   11  C   UNL     2     -10.453  13.306  67.895  1.00  0.00    -0.240 C  
HETATM   12  C   UNL     2     -10.713  14.476  66.979  1.00  0.00    -0.291 C  
HETATM   13  O   UNL     2      -9.220  13.752  68.471  1.00  0.00    -0.195 OA 
HETATM   14  O   UNL     2      -7.299  14.287  67.304  1.00  0.00    -0.170 OA 
HETATM   15  H   UNL     2      -9.886  16.323  65.106  1.00  0.00     0.000 HD 
HETATM   16  O   UNL     2     -11.876  14.961  66.946  1.00  0.00    -0.315 OA 
HETATM   17  C   UNL     2      -8.503  14.225  67.409  1.00  0.00    -0.203 C  
HETATM   18  C   UNL     2      -9.503  14.861  66.508  1.00  0.00    -0.283 C  
HETATM   19  O   UNL     2      -9.249  15.916  65.681  1.00  0.00    -0.333 OA 
ENDBRANCH   8  11
ENDBRANCH   3   8
BRANCH   7  20
HETATM   20  C   UNL     3      -8.012  17.859  68.944  1.00  0.00    -0.168 C  
HETATM   21  O   UNL     3      -9.078  16.915  68.868  1.00  0.00    -0.263 OA 
HETATM   22  H   UNL     3      -9.907  17.345  69.041  1.00  0.00     0.000 HD 
BRANCH  20  23
HETATM   23  C   UNL     3      -8.371  19.225  68.296  1.00  0.00    -0.338 C  
HETATM   24  O   UNL     3      -7.167  20.413  65.273  1.00  0.00    -0.254 OA 
HETATM   25  C   UNL     3      -9.263  19.800  66.250  1.00  0.00    -0.388 C  
HETATM   26  C   UNL     3      -9.608  19.515  67.512  1.00  0.00    -0.327 C  
HETATM   27  O   UNL     3     -10.111  20.181  65.234  1.00  0.00    -0.332 OA 
HETATM   28  O   UNL     3      -7.310  19.732  67.470  1.00  0.00    -0.248 OA 
HETATM   29  C   UNL     3      -7.808  19.956  66.205  1.00  0.00    -0.326 C  
HETATM   30  O   UNL     3     -10.660  19.567  68.189  1.00  0.00    -0.405 OA 
HETATM   31  H   UNL     3     -11.055  20.081  65.264  1.00  0.00     0.000 HD 
ENDBRANCH  20  23
ENDBRANCH   7  20
TORSDOF 4
ENDMDL
MODEL      117
REMARK 921   NORMALIZED FREE ENERGY PREDICTED BY IDOCK:   -5.29 KCAL/MOL
REMARK 922        TOTAL FREE ENERGY PREDICTED BY IDOCK:   -8.45 KCAL/MOL
REMARK 923 INTER-LIGAND FREE ENERGY PREDICTED BY IDOCK:   -6.75 KCAL/MOL
REMARK 924 INTRA-LIGAND FREE ENERGY PREDICTED BY IDOCK:   -1.69 KCAL/MOL
REMARK 927      BINDING AFFINITY PREDICTED BY RF-SCORE:    0.00 PKD
ROOT
HETATM    1 CA   UNL     1     -13.129  11.054  68.913  1.00  0.00    -0.158 Ca 
HETATM    2  O   UNL     2     -10.060   4.981  70.548  1.00  0.00    -0.224 OA 
HETATM    3  C   UNL     2     -10.914   6.017  70.049  1.00  0.00    -0.380 C  
HETATM    4  H   UNL     2     -10.397   4.154  70.222  1.00  0.00     0.000 HD 
HETATM    5  O   UNL     3      -8.207  11.533  66.626  1.00  0.00    -0.165 OA 
HETATM    6  H   UNL     3      -7.289  11.302  66.700  1.00  0.00     0.000 HD 
HETATM    7  C   UNL     3      -8.433  12.627  67.560  1.00  0.00    -0.176 C  
ENDROOT
BRANCH   3   8
HETATM    8  C   UNL     2     -10.378   7.331  70.568  1.00  0.00    -0.206 C  
HETATM    9  H   UNL     2     -10.711   8.465  72.137  1.00  0.00     0.000 HD 
HETATM   10  O   UNL     2     -11.048   7.638  71.811  1.00  0.00    -0.235 OA 
BRANCH   8  11
HETATM   11  C   UNL     2     -10.529   8.544  69.626  1.00  0.00    -0.221 C  
HETATM   12  C   UNL     2      -9.702   8.644  68.370  1.00  0.00    -0.162 C  
HETATM   13  O   UNL     2      -9.919   9.604  70.372  1.00  0.00    -0.252 OA 
HETATM   14  O   UNL     2      -7.678   9.761  70.910  1.00  0.00    -0.312 OA 
HETATM   15  H   UNL     2      -7.282   8.885  67.070  1.00  0.00     0.000 HD 
HETATM   16  O   UNL     2     -10.295   8.600  67.258  1.00  0.00    -0.251 OA 
HETATM   17  C   UNL     2      -8.580   9.427  70.175  1.00  0.00    -0.212 C  
HETATM   18  C   UNL     2      -8.445   8.952  68.770  1.00  0.00    -0.131 C  
HETATM   19  O   UNL     2      -7.368   9.188  67.966  1.00  0.00    -0.082 OA 
ENDBRANCH   8  11
ENDBRANCH   3   8
BRANCH   7  20
HETATM   20  C   UNL     3      -9.915  13.001  67.441  1.00  0.00    -0.228 C  
HETATM   21  O   UNL     3     -10.722  12.010  68.074  1.00  0.00    -0.199 OA 
HETATM   22  H   UNL     3     -11.640  12.241  68.000  1.00  0.00     0.000 HD 
BRANCH  20  23
HETATM   23  C   UNL     3     -10.522  13.505  66.102  1.00  0.00    -0.296 C  
HETATM   24  O   UNL     3     -10.368  11.859  63.059  1.00  0.00    -0.347 OA 
HETATM   25  C   UNL     3     -12.028  12.584  64.621  1.00  0.00    -0.404 C  
HETATM   26  C   UNL     3     -11.953  13.378  65.696  1.00  0.00    -0.401 C  
HETATM   27  O   UNL     3     -13.165  12.271  63.911  1.00  0.00    -0.766 OA 
HETATM   28  O   UNL     3      -9.793  13.029  64.959  1.00  0.00    -0.168 OA 
HETATM   29  C   UNL     3     -10.667  12.361  64.130  1.00  0.00    -0.379 C  
HETATM   30  O   UNL     3     -12.747  14.115  66.326  1.00  0.00    -0.401 OA 
HETATM   31  H   UNL     3     -14.048  12.416  64.230  1.00  0.00     0.000 HD 
ENDBRANCH  20  23
ENDBRANCH   7  20
TORSDOF 4
ENDMDL
MODEL      118
REMARK 921   NORMALIZED FREE ENERGY PREDICTED BY IDOCK:   -5.26 KCAL/MOL
REMARK 922        TOTAL FREE ENERGY PREDICTED BY IDOCK:   -8.41 KCAL/MOL
REMARK 923 INTER-LIGAND FREE ENERGY PREDICTED BY IDOCK:   -7.55 KCAL/MOL
REMARK 924 INTRA-LIGAND FREE ENERGY PREDICTED BY IDOCK:   -0.86 KCAL/MOL
REMARK 927      BINDING AFFINITY PREDICTED BY RF-SCORE:    0.00 PKD
ROOT
HETATM    1 CA   UNL     1     -11.634   7.581  66.955  1.00  0.00    -0.481 Ca 
HETATM    2  O   UNL     2     -11.706  13.397  63.064  1.00  0.00    -0.674 OA 
HETATM    3  C   UNL     2     -11.943  12.108  63.642  1.00  0.00    -0.534 C  
HETATM    4  H   UNL     2     -12.329  13.509  62.356  1.00  0.00     0.000 HD 
HETATM    5  O   UNL     3     -12.957  11.436  70.570  1.00  0.00    -0.112 OA 
HETATM    6  H   UNL     3     -12.842  12.347  70.814  1.00  0.00     0.000 HD 
HETATM    7  C   UNL     3     -11.753  10.739  71.001  1.00  0.00    -0.144 C  
ENDROOT
BRANCH   3   8
HETATM    8  C   UNL     2     -10.953  11.931  64.770  1.00  0.00    -0.312 C  
HETATM    9  H   UNL     2      -9.893  10.443  65.490  1.00  0.00     0.000 HD 
HETATM   10  O   UNL     2     -10.515  10.554  64.781  1.00  0.00    -0.304 OA 
BRANCH   8  11
HETATM   11  C   UNL     2     -11.462  12.286  66.182  1.00  0.00    -0.374 C  
HETATM   12  C   UNL     2     -11.700  13.724  66.569  1.00  0.00    -0.385 C  
HETATM   13  O   UNL     2     -10.321  12.027  67.008  1.00  0.00    -0.208 OA 
HETATM   14  O   UNL     2      -8.330  13.198  66.968  1.00  0.00    -0.166 OA 
HETATM   15  H   UNL     2     -10.805  16.285  67.063  1.00  0.00     0.000 HD 
HETATM   16  O   UNL     2     -12.882  14.089  66.819  1.00  0.00    -0.037 OA 
HETATM   17  C   UNL     2      -9.533  13.130  66.850  1.00  0.00    -0.244 C  
HETATM   18  C   UNL     2     -10.475  14.277  66.736  1.00  0.00    -0.273 C  
HETATM   19  O   UNL     2     -10.204  15.554  67.136  1.00  0.00    -0.251 OA 
ENDBRANCH   8  11
ENDBRANCH   3   8
BRANCH   7  20
HETATM   20  C   UNL     3     -11.938   9.269  70.608  1.00  0.00    -0.152 C  
HETATM   21  O   UNL     3     -13.313   8.903  70.713  1.00  0.00    -0.473 OA 
HETATM   22  H   UNL     3     -13.428   7.992  70.469  1.00  0.00     0.000 HD 
BRANCH  20  23
HETATM   23  C   UNL     3     -10.980   8.161  71.127  1.00  0.00    -0.237 C  
HETATM   24  O   UNL     3      -8.098   8.678  72.976  1.00  0.00    -0.394 OA 
HETATM   25  C   UNL     3     -10.222   7.607  73.231  1.00  0.00    -0.339 C  
HETATM   26  C   UNL     3     -11.193   7.333  72.351  1.00  0.00    -0.281 C  
HETATM   27  O   UNL     3     -10.032   7.006  74.455  1.00  0.00    -0.449 OA 
HETATM   28  O   UNL     3      -9.626   8.627  71.253  1.00  0.00    -0.182 OA 
HETATM   29  C   UNL     3      -9.210   8.417  72.549  1.00  0.00    -0.268 C  
HETATM   30  O   UNL     3     -12.112   6.487  72.261  1.00  0.00    -0.278 OA 
HETATM   31  H   UNL     3     -10.688   6.480  74.897  1.00  0.00     0.000 HD 
ENDBRANCH  20  23
ENDBRANCH   7  20
TORSDOF 4
ENDMDL
MODEL      119
REMARK 921   NORMALIZED FREE ENERGY PREDICTED BY IDOCK:   -5.24 KCAL/MOL
REMARK 922        TOTAL FREE ENERGY PREDICTED BY IDOCK:   -8.39 KCAL/MOL
REMARK 923 INTER-LIGAND FREE ENERGY PREDICTED BY IDOCK:   -7.55 KCAL/MOL
REMARK 924 INTRA-LIGAND FREE ENERGY PREDICTED BY IDOCK:   -0.84 KCAL/MOL
REMARK 927      BINDING AFFINITY PREDICTED BY RF-SCORE:    0.00 PKD
ROOT
HETATM    1 CA   UNL     1      -8.775  14.666  69.918  1.00  0.00    -0.341 Ca 
HETATM    2  O   UNL     2      -5.552  20.509  67.810  1.00  0.00    -0.189 OA 
HETATM    3  C   UNL     2      -5.890  19.220  68.333  1.00  0.00    -0.210 C  
HETATM    4  H   UNL     2      -4.608  20.602  67.873  1.00  0.00     0.000 HD 
HETATM    5  O   UNL     3      -9.808  14.753  64.569  1.00  0.00    -0.454 OA 
HETATM    6  H   UNL     3      -9.963  15.310  63.815  1.00  0.00     0.000 HD 
HETATM    7  C   UNL     3     -11.056  14.717  65.318  1.00  0.00    -0.360 C  
ENDROOT
BRANCH   3   8
HETATM    8  C   UNL     2      -7.390  19.072  68.232  1.00  0.00    -0.284 C  
HETATM    9  H   UNL     2      -8.927  19.504  69.375  1.00  0.00     0.000 HD 
HETATM   10  O   UNL     2      -7.984  19.598  69.439  1.00  0.00    -0.208 OA 
BRANCH   8  11
HETATM   11  C   UNL     2      -7.917  17.636  68.022  1.00  0.00    -0.241 C  
HETATM   12  C   UNL     2      -8.354  17.174  66.655  1.00  0.00    -0.251 C  
HETATM   13  O   UNL     2      -9.200  17.672  68.658  1.00  0.00    -0.282 OA 
HETATM   14  O   UNL     2     -11.024  18.901  67.951  1.00  0.00    -0.286 OA 
HETATM   15  H   UNL     2     -10.028  17.306  64.468  1.00  0.00     0.000 HD 
HETATM   16  O   UNL     2      -7.692  16.258  66.094  1.00  0.00    -0.157 OA 
HETATM   17  C   UNL     2     -10.015  18.267  67.738  1.00  0.00    -0.332 C  
HETATM   18  C   UNL     2      -9.541  17.780  66.414  1.00  0.00    -0.283 C  
HETATM   19  O   UNL     2     -10.330  17.617  65.313  1.00  0.00    -0.554 OA 
ENDBRANCH   8  11
ENDBRANCH   3   8
BRANCH   7  20
HETATM   20  C   UNL     3     -10.806  13.818  66.535  1.00  0.00    -0.287 C  
HETATM   21  O   UNL     3     -10.131  12.627  66.134  1.00  0.00    -0.247 OA 
HETATM   22  H   UNL     3      -9.976  12.071  66.888  1.00  0.00     0.000 HD 
BRANCH  20  23
HETATM   23  C   UNL     3     -11.913  13.554  67.592  1.00  0.00    -0.336 C  
HETATM   24  O   UNL     3     -12.048  10.847  69.750  1.00  0.00    -0.309 OA 
HETATM   25  C   UNL     3     -11.854  13.229  69.873  1.00  0.00    -0.310 C  
HETATM   26  C   UNL     3     -11.991  14.183  68.944  1.00  0.00    -0.341 C  
HETATM   27  O   UNL     3     -11.930  13.396  71.237  1.00  0.00    -0.358 OA 
HETATM   28  O   UNL     3     -12.096  12.151  67.851  1.00  0.00    -0.502 OA 
HETATM   29  C   UNL     3     -11.931  11.930  69.201  1.00  0.00    -0.276 C  
HETATM   30  O   UNL     3     -12.293  15.398  68.942  1.00  0.00    -0.152 OA 
HETATM   31  H   UNL     3     -11.880  14.239  71.673  1.00  0.00     0.000 HD 
ENDBRANCH  20  23
ENDBRANCH   7  20
TORSDOF 4
ENDMDL
MODEL      120
REMARK 921   NORMALIZED FREE ENERGY PREDICTED BY IDOCK:   -5.23 KCAL/MOL
REMARK 922        TOTAL FREE ENERGY PREDICTED BY IDOCK:   -8.38 KCAL/MOL
REMARK 923 INTER-LIGAND FREE ENERGY PREDICTED BY IDOCK:   -7.69 KCAL/MOL
REMARK 924 INTRA-LIGAND FREE ENERGY PREDICTED BY IDOCK:   -0.70 KCAL/MOL
REMARK 927      BINDING AFFINITY PREDICTED BY RF-SCORE:    0.00 PKD
ROOT
HETATM    1 CA   UNL     1      -9.842  12.488  64.985  1.00  0.00    -0.248 Ca 
HETATM    2  O   UNL     2      -8.674   6.757  68.827  1.00  0.00    -0.125 OA 
HETATM    3  C   UNL     2      -8.690   7.777  67.822  1.00  0.00    -0.123 C  
HETATM    4  H   UNL     2      -8.056   6.092  68.546  1.00  0.00     0.000 HD 
HETATM    5  O   UNL     3      -7.693  14.519  69.561  1.00  0.00    -0.343 OA 
HETATM    6  H   UNL     3      -7.616  14.407  70.501  1.00  0.00     0.000 HD 
HETATM    7  C   UNL     3      -9.003  15.106  69.322  1.00  0.00    -0.202 C  
ENDROOT
BRANCH   3   8
HETATM    8  C   UNL     2      -9.673   8.834  68.269  1.00  0.00    -0.158 C  
HETATM    9  H   UNL     2     -10.541  10.389  67.441  1.00  0.00     0.000 HD 
HETATM   10  O   UNL     2      -9.923   9.724  67.159  1.00  0.00    -0.177 OA 
BRANCH   8  11
HETATM   11  C   UNL     2      -9.246   9.686  69.483  1.00  0.00    -0.203 C  
HETATM   12  C   UNL     2      -9.581   9.241  70.885  1.00  0.00    -0.269 C  
HETATM   13  O   UNL     2     -10.120  10.818  69.401  1.00  0.00    -0.212 OA 
HETATM   14  O   UNL     2     -12.412  10.780  69.694  1.00  0.00    -0.289 OA 
HETATM   15  H   UNL     2     -11.395   8.661  72.879  1.00  0.00     0.000 HD 
HETATM   16  O   UNL     2      -8.633   8.937  71.658  1.00  0.00    -0.280 OA 
HETATM   17  C   UNL     2     -11.297  10.375  69.934  1.00  0.00    -0.302 C  
HETATM   18  C   UNL     2     -10.909   9.458  71.041  1.00  0.00    -0.336 C  
HETATM   19  O   UNL     2     -11.642   9.246  72.172  1.00  0.00    -0.312 OA 
ENDBRANCH   8  11
ENDBRANCH   3   8
BRANCH   7  20
HETATM   20  C   UNL     3      -9.128  15.286  67.804  1.00  0.00    -0.182 C  
HETATM   21  O   UNL     3      -7.927  15.848  67.278  1.00  0.00    -0.150 OA 
HETATM   22  H   UNL     3      -8.004  15.960  66.338  1.00  0.00     0.000 HD 
BRANCH  20  23
HETATM   23  C   UNL     3     -10.406  15.888  67.158  1.00  0.00    -0.300 C  
HETATM   24  O   UNL     3     -10.569  18.847  65.364  1.00  0.00    -0.531 OA 
HETATM   25  C   UNL     3     -10.926  16.509  65.001  1.00  0.00    -0.210 C  
HETATM   26  C   UNL     3     -10.994  15.476  65.849  1.00  0.00    -0.264 C  
HETATM   27  O   UNL     3     -11.418  16.549  63.716  1.00  0.00    -1.615 OA 
HETATM   28  O   UNL     3     -10.353  17.322  67.079  1.00  0.00    -0.318 OA 
HETATM   29  C   UNL     3     -10.533  17.695  65.765  1.00  0.00    -0.205 C  
HETATM   30  O   UNL     3     -11.534  14.346  65.847  1.00  0.00    -0.331 OA 
HETATM   31  H   UNL     3     -11.673  15.779  63.220  1.00  0.00     0.000 HD 
ENDBRANCH  20  23
ENDBRANCH   7  20
TORSDOF 4
ENDMDL
MODEL      121
REMARK 921   NORMALIZED FREE ENERGY PREDICTED BY IDOCK:   -5.23 KCAL/MOL
REMARK 922        TOTAL FREE ENERGY PREDICTED BY IDOCK:   -8.37 KCAL/MOL
REMARK 923 INTER-LIGAND FREE ENERGY PREDICTED BY IDOCK:   -6.99 KCAL/MOL
REMARK 924 INTRA-LIGAND FREE ENERGY PREDICTED BY IDOCK:   -1.39 KCAL/MOL
REMARK 927      BINDING AFFINITY PREDICTED BY RF-SCORE:    0.00 PKD
ROOT
HETATM    1 CA   UNL     1     -11.734  15.307  71.133  1.00  0.00    -0.240 Ca 
HETATM    2  O   UNL     2      -7.057  17.904  66.621  1.00  0.00    -0.189 OA 
HETATM    3  C   UNL     2      -7.807  17.521  67.780  1.00  0.00    -0.207 C  
HETATM    4  H   UNL     2      -6.285  18.368  66.924  1.00  0.00     0.000 HD 
HETATM    5  O   UNL     3      -9.791  10.836  68.700  1.00  0.00    -0.169 OA 
HETATM    6  H   UNL     3      -9.444  10.479  67.891  1.00  0.00     0.000 HD 
HETATM    7  C   UNL     3     -11.235  10.908  68.533  1.00  0.00    -0.274 C  
ENDROOT
BRANCH   3   8
HETATM    8  C   UNL     2      -9.034  16.784  67.299  1.00  0.00    -0.212 C  
HETATM    9  H   UNL     2     -10.909  17.253  66.946  1.00  0.00     0.000 HD 
HETATM   10  O   UNL     2     -10.137  17.717  67.248  1.00  0.00    -0.311 OA 
BRANCH   8  11
HETATM   11  C   UNL     2      -9.471  15.569  68.145  1.00  0.00    -0.198 C  
HETATM   12  C   UNL     2      -9.038  14.177  67.763  1.00  0.00    -0.190 C  
HETATM   13  O   UNL     2     -10.866  15.454  67.841  1.00  0.00    -0.281 OA 
HETATM   14  O   UNL     2     -11.757  14.883  65.787  1.00  0.00    -0.296 OA 
HETATM   15  H   UNL     2      -9.030  12.025  66.038  1.00  0.00     0.000 HD 
HETATM   16  O   UNL     2      -8.270  13.553  68.545  1.00  0.00    -0.152 OA 
HETATM   17  C   UNL     2     -10.895  14.815  66.634  1.00  0.00    -0.319 C  
HETATM   18  C   UNL     2      -9.771  13.840  66.674  1.00  0.00    -0.289 C  
HETATM   19  O   UNL     2      -9.747  12.647  66.013  1.00  0.00    -0.255 OA 
ENDBRANCH   8  11
ENDBRANCH   3   8
BRANCH   7  20
HETATM   20  C   UNL     3     -11.796  11.485  69.838  1.00  0.00    -0.355 C  
HETATM   21  O   UNL     3     -11.328  12.820  70.024  1.00  0.00    -0.502 OA 
HETATM   22  H   UNL     3     -11.676  13.178  70.832  1.00  0.00     0.000 HD 
BRANCH  20  23
HETATM   23  C   UNL     3     -11.801  10.662  71.156  1.00  0.00    -0.241 C  
HETATM   24  O   UNL     3     -14.226   8.379  72.108  1.00  0.00    -0.407 OA 
HETATM   25  C   UNL     3     -11.891   8.400  71.588  1.00  0.00    -0.304 C  
HETATM   26  C   UNL     3     -11.029   9.408  71.399  1.00  0.00    -0.373 C  
HETATM   27  O   UNL     3     -11.573   7.098  71.901  1.00  0.00    -0.261 OA 
HETATM   28  O   UNL     3     -13.133  10.341  71.592  1.00  0.00    -0.395 OA 
HETATM   29  C   UNL     3     -13.231   8.973  71.727  1.00  0.00    -0.389 C  
HETATM   30  O   UNL     3      -9.792   9.564  71.510  1.00  0.00    -0.183 OA 
HETATM   31  H   UNL     3     -10.703   6.727  71.812  1.00  0.00     0.000 HD 
ENDBRANCH  20  23
ENDBRANCH   7  20
TORSDOF 4
ENDMDL
MODEL      122
REMARK 921   NORMALIZED FREE ENERGY PREDICTED BY IDOCK:   -5.22 KCAL/MOL
REMARK 922        TOTAL FREE ENERGY PREDICTED BY IDOCK:   -8.37 KCAL/MOL
REMARK 923 INTER-LIGAND FREE ENERGY PREDICTED BY IDOCK:   -6.46 KCAL/MOL
REMARK 924 INTRA-LIGAND FREE ENERGY PREDICTED BY IDOCK:   -1.91 KCAL/MOL
REMARK 927      BINDING AFFINITY PREDICTED BY RF-SCORE:    0.00 PKD
ROOT
HETATM    1 CA   UNL     1     -10.156  10.454  71.062  1.00  0.00    -0.322 Ca 
HETATM    2  O   UNL     2      -8.082   3.957  72.629  1.00  0.00    -0.086 OA 
HETATM    3  C   UNL     2      -8.761   5.214  72.533  1.00  0.00    -0.120 C  
HETATM    4  H   UNL     2      -8.586   3.407  73.217  1.00  0.00     0.000 HD 
HETATM    5  O   UNL     3     -10.404   7.912  66.249  1.00  0.00    -0.461 OA 
HETATM    6  H   UNL     3     -10.018   7.236  65.705  1.00  0.00     0.000 HD 
HETATM    7  C   UNL     3      -9.522   9.067  66.159  1.00  0.00    -0.253 C  
ENDROOT
BRANCH   3   8
HETATM    8  C   UNL     2      -7.960   6.089  71.598  1.00  0.00    -0.110 C  
HETATM    9  H   UNL     2      -6.215   6.990  71.662  1.00  0.00     0.000 HD 
HETATM   10  O   UNL     2      -6.719   6.439  72.251  1.00  0.00    -0.065 OA 
BRANCH   8  11
HETATM   11  C   UNL     2      -8.645   7.392  71.134  1.00  0.00    -0.122 C  
HETATM   12  C   UNL     2     -10.090   7.384  70.705  1.00  0.00    -0.190 C  
HETATM   13  O   UNL     2      -8.041   7.632  69.858  1.00  0.00    -0.119 OA 
HETATM   14  O   UNL     2      -8.301   6.322  67.972  1.00  0.00    -0.114 OA 
HETATM   15  H   UNL     2     -12.113   6.599  69.003  1.00  0.00     0.000 HD 
HETATM   16  O   UNL     2     -10.924   8.025  71.401  1.00  0.00    -0.228 OA 
HETATM   17  C   UNL     2      -8.710   6.800  69.006  1.00  0.00    -0.130 C  
HETATM   18  C   UNL     2     -10.119   6.789  69.489  1.00  0.00    -0.178 C  
HETATM   19  O   UNL     2     -11.214   6.606  68.696  1.00  0.00    -0.239 OA 
ENDBRANCH   8  11
ENDBRANCH   3   8
BRANCH   7  20
HETATM   20  C   UNL     3     -10.145  10.159  67.037  1.00  0.00    -0.223 C  
HETATM   21  O   UNL     3     -11.301   9.653  67.702  1.00  0.00    -0.441 OA 
HETATM   22  H   UNL     3     -11.687  10.329  68.246  1.00  0.00     0.000 HD 
BRANCH  20  23
HETATM   23  C   UNL     3     -10.340  11.610  66.516  1.00  0.00    -0.224 C  
HETATM   24  O   UNL     3     -11.209  12.503  63.283  1.00  0.00    -0.452 OA 
HETATM   25  C   UNL     3     -12.106  12.683  65.495  1.00  0.00    -0.458 C  
HETATM   26  C   UNL     3     -11.568  12.440  66.696  1.00  0.00    -0.385 C  
HETATM   27  O   UNL     3     -13.209  13.463  65.233  1.00  0.00    -0.644 OA 
HETATM   28  O   UNL     3     -10.042  11.730  65.115  1.00  0.00    -0.244 OA 
HETATM   29  C   UNL     3     -11.146  12.252  64.476  1.00  0.00    -0.321 C  
HETATM   30  O   UNL     3     -11.764  12.841  67.866  1.00  0.00    -0.327 OA 
HETATM   31  H   UNL     3     -13.831  13.743  65.894  1.00  0.00     0.000 HD 
ENDBRANCH  20  23
ENDBRANCH   7  20
TORSDOF 4
ENDMDL
MODEL      123
REMARK 921   NORMALIZED FREE ENERGY PREDICTED BY IDOCK:   -5.22 KCAL/MOL
REMARK 922        TOTAL FREE ENERGY PREDICTED BY IDOCK:   -8.36 KCAL/MOL
REMARK 923 INTER-LIGAND FREE ENERGY PREDICTED BY IDOCK:   -7.50 KCAL/MOL
REMARK 924 INTRA-LIGAND FREE ENERGY PREDICTED BY IDOCK:   -0.86 KCAL/MOL
REMARK 927      BINDING AFFINITY PREDICTED BY RF-SCORE:    0.00 PKD
ROOT
HETATM    1 CA   UNL     1     -11.558  13.104  70.804  1.00  0.00    -0.395 Ca 
HETATM    2  O   UNL     2      -9.033  17.246  65.760  1.00  0.00    -0.521 OA 
HETATM    3  C   UNL     2      -9.451  16.661  66.998  1.00  0.00    -0.230 C  
HETATM    4  H   UNL     2      -8.624  18.079  65.964  1.00  0.00     0.000 HD 
HETATM    5  O   UNL     3      -7.551  10.096  68.663  1.00  0.00    -0.081 OA 
HETATM    6  H   UNL     3      -7.074   9.887  67.869  1.00  0.00     0.000 HD 
HETATM    7  C   UNL     3      -8.812   9.373  68.590  1.00  0.00    -0.132 C  
ENDROOT
BRANCH   3   8
HETATM    8  C   UNL     2     -10.100  15.335  66.673  1.00  0.00    -0.261 C  
HETATM    9  H   UNL     2     -11.941  14.660  66.561  1.00  0.00     0.000 HD 
HETATM   10  O   UNL     2     -11.533  15.494  66.766  1.00  0.00    -0.142 OA 
BRANCH   8  11
HETATM   11  C   UNL     2      -9.689  14.143  67.562  1.00  0.00    -0.234 C  
HETATM   12  C   UNL     2      -8.871  13.011  66.992  1.00  0.00    -0.212 C  
HETATM   13  O   UNL     2     -10.925  13.444  67.748  1.00  0.00    -0.252 OA 
HETATM   14  O   UNL     2     -12.122  12.352  66.100  1.00  0.00    -0.611 OA 
HETATM   15  H   UNL     2      -8.542  10.879  65.274  1.00  0.00     0.000 HD 
HETATM   16  O   UNL     2      -7.704  12.835  67.435  1.00  0.00    -0.160 OA 
HETATM   17  C   UNL     2     -11.083  12.726  66.597  1.00  0.00    -0.276 C  
HETATM   18  C   UNL     2      -9.712  12.297  66.206  1.00  0.00    -0.244 C  
HETATM   19  O   UNL     2      -9.416  11.153  65.524  1.00  0.00    -0.208 OA 
ENDBRANCH   8  11
ENDBRANCH   3   8
BRANCH   7  20
HETATM   20  C   UNL     3      -9.581   9.711  69.873  1.00  0.00    -0.230 C  
HETATM   21  O   UNL     3      -8.758   9.479  71.014  1.00  0.00    -0.295 OA 
HETATM   22  H   UNL     3      -9.234   9.689  71.808  1.00  0.00     0.000 HD 
BRANCH  20  23
HETATM   23  C   UNL     3     -11.049   9.248  70.087  1.00  0.00    -0.230 C  
HETATM   24  O   UNL     3     -12.049   6.436  71.847  1.00  0.00    -0.336 OA 
HETATM   25  C   UNL     3     -12.292   8.813  71.979  1.00  0.00    -0.377 C  
HETATM   26  C   UNL     3     -11.989   9.789  71.113  1.00  0.00    -0.376 C  
HETATM   27  O   UNL     3     -13.175   8.896  73.032  1.00  0.00    -0.819 OA 
HETATM   28  O   UNL     3     -11.154   7.822  70.238  1.00  0.00    -0.257 OA 
HETATM   29  C   UNL     3     -11.782   7.553  71.434  1.00  0.00    -0.283 C  
HETATM   30  O   UNL     3     -12.396  10.952  70.893  1.00  0.00    -0.337 OA 
HETATM   31  H   UNL     3     -13.506   9.714  73.384  1.00  0.00     0.000 HD 
ENDBRANCH  20  23
ENDBRANCH   7  20
TORSDOF 4
ENDMDL
MODEL      124
REMARK 921   NORMALIZED FREE ENERGY PREDICTED BY IDOCK:   -5.21 KCAL/MOL
REMARK 922        TOTAL FREE ENERGY PREDICTED BY IDOCK:   -8.35 KCAL/MOL
REMARK 923 INTER-LIGAND FREE ENERGY PREDICTED BY IDOCK:   -7.56 KCAL/MOL
REMARK 924 INTRA-LIGAND FREE ENERGY PREDICTED BY IDOCK:   -0.79 KCAL/MOL
REMARK 927      BINDING AFFINITY PREDICTED BY RF-SCORE:    0.00 PKD
ROOT
HETATM    1 CA   UNL     1      -8.194  11.619  64.829  1.00  0.00    -0.365 Ca 
HETATM    2  O   UNL     2      -5.611   6.420  68.735  1.00  0.00    -0.014 OA 
HETATM    3  C   UNL     2      -5.807   7.583  67.924  1.00  0.00    -0.035 C  
HETATM    4  H   UNL     2      -4.688   6.383  68.960  1.00  0.00     0.000 HD 
HETATM    5  O   UNL     3     -10.743  12.308  69.595  1.00  0.00    -0.432 OA 
HETATM    6  H   UNL     3     -11.100  11.868  70.358  1.00  0.00     0.000 HD 
HETATM    7  C   UNL     3     -11.718  12.139  68.527  1.00  0.00    -0.330 C  
ENDROOT
BRANCH   3   8
HETATM    8  C   UNL     2      -7.274   7.642  67.568  1.00  0.00    -0.087 C  
HETATM    9  H   UNL     2      -8.872   6.587  68.007  1.00  0.00     0.000 HD 
HETATM   10  O   UNL     2      -7.949   6.550  68.232  1.00  0.00    -0.107 OA 
BRANCH   8  11
HETATM   11  C   UNL     2      -7.610   7.572  66.063  1.00  0.00    -0.088 C  
HETATM   12  C   UNL     2      -8.035   8.811  65.317  1.00  0.00    -0.118 C  
HETATM   13  O   UNL     2      -8.859   6.871  66.048  1.00  0.00    -0.156 OA 
HETATM   14  O   UNL     2     -10.860   7.659  66.893  1.00  0.00    -0.328 OA 
HETATM   15  H   UNL     2      -9.799  10.878  64.849  1.00  0.00     0.000 HD 
HETATM   16  O   UNL     2      -7.279   9.250  64.407  1.00  0.00    -0.094 OA 
HETATM   17  C   UNL     2      -9.784   7.824  66.364  1.00  0.00    -0.149 C  
HETATM   18  C   UNL     2      -9.302   9.075  65.715  1.00  0.00    -0.236 C  
HETATM   19  O   UNL     2     -10.106  10.080  65.263  1.00  0.00    -0.321 OA 
ENDBRANCH   8  11
ENDBRANCH   3   8
BRANCH   7  20
HETATM   20  C   UNL     3     -11.141  12.849  67.297  1.00  0.00    -0.274 C  
HETATM   21  O   UNL     3      -9.718  12.764  67.304  1.00  0.00    -0.199 OA 
HETATM   22  H   UNL     3      -9.360  13.204  66.542  1.00  0.00     0.000 HD 
BRANCH  20  23
HETATM   23  C   UNL     3     -11.658  14.244  66.846  1.00  0.00    -0.387 C  
HETATM   24  O   UNL     3      -9.681  16.925  65.893  1.00  0.00    -0.467 OA 
HETATM   25  C   UNL     3     -11.336  15.488  64.932  1.00  0.00    -0.335 C  
HETATM   26  C   UNL     3     -12.158  14.584  65.481  1.00  0.00    -0.299 C  
HETATM   27  O   UNL     3     -11.488  16.099  63.708  1.00  0.00    -1.323 OA 
HETATM   28  O   UNL     3     -10.723  15.294  67.145  1.00  0.00    -0.303 OA 
HETATM   29  C   UNL     3     -10.425  15.961  65.977  1.00  0.00    -0.345 C  
HETATM   30  O   UNL     3     -13.268  14.086  65.188  1.00  0.00    -0.768 OA 
HETATM   31  H   UNL     3     -12.080  15.792  63.031  1.00  0.00     0.000 HD 
ENDBRANCH  20  23
ENDBRANCH   7  20
TORSDOF 4
ENDMDL
MODEL      125
REMARK 921   NORMALIZED FREE ENERGY PREDICTED BY IDOCK:   -5.21 KCAL/MOL
REMARK 922        TOTAL FREE ENERGY PREDICTED BY IDOCK:   -8.35 KCAL/MOL
REMARK 923 INTER-LIGAND FREE ENERGY PREDICTED BY IDOCK:   -6.93 KCAL/MOL
REMARK 924 INTRA-LIGAND FREE ENERGY PREDICTED BY IDOCK:   -1.42 KCAL/MOL
REMARK 927      BINDING AFFINITY PREDICTED BY RF-SCORE:    0.00 PKD
ROOT
HETATM    1 CA   UNL     1      -9.526  14.595  69.932  1.00  0.00    -0.342 Ca 
HETATM    2  O   UNL     2      -9.017  20.583  66.348  1.00  0.00    -0.568 OA 
HETATM    3  C   UNL     2      -8.798  19.438  67.180  1.00  0.00    -0.295 C  
HETATM    4  H   UNL     2      -8.214  21.091  66.347  1.00  0.00     0.000 HD 
HETATM    5  O   UNL     3     -10.131  12.967  64.768  1.00  0.00    -0.474 OA 
HETATM    6  H   UNL     3     -10.461  13.207  63.910  1.00  0.00     0.000 HD 
HETATM    7  C   UNL     3     -11.288  12.567  65.556  1.00  0.00    -0.331 C  
ENDROOT
BRANCH   3   8
HETATM    8  C   UNL     2     -10.075  18.631  67.181  1.00  0.00    -0.359 C  
HETATM    9  H   UNL     2     -11.931  18.936  67.747  1.00  0.00     0.000 HD 
HETATM   10  O   UNL     2     -11.128  19.444  67.746  1.00  0.00    -0.311 OA 
BRANCH   8  11
HETATM   11  C   UNL     2     -10.033  17.295  67.952  1.00  0.00    -0.297 C  
HETATM   12  C   UNL     2      -8.727  16.564  68.142  1.00  0.00    -0.194 C  
HETATM   13  O   UNL     2     -10.661  16.383  67.043  1.00  0.00    -0.305 OA 
HETATM   14  O   UNL     2      -9.818  15.720  64.997  1.00  0.00    -0.336 OA 
HETATM   15  H   UNL     2      -6.541  15.204  67.156  1.00  0.00     0.000 HD 
HETATM   16  O   UNL     2      -8.275  16.443  69.313  1.00  0.00    -0.222 OA 
HETATM   17  C   UNL     2      -9.679  16.071  66.147  1.00  0.00    -0.324 C  
HETATM   18  C   UNL     2      -8.420  16.024  66.939  1.00  0.00    -0.241 C  
HETATM   19  O   UNL     2      -7.345  15.234  66.651  1.00  0.00    -0.006 OA 
ENDBRANCH   8  11
ENDBRANCH   3   8
BRANCH   7  20
HETATM   20  C   UNL     3     -10.756  12.180  66.941  1.00  0.00    -0.236 C  
HETATM   21  O   UNL     3     -10.254  13.333  67.613  1.00  0.00    -0.222 OA 
HETATM   22  H   UNL     3      -9.924  13.094  68.471  1.00  0.00     0.000 HD 
BRANCH  20  23
HETATM   23  C   UNL     3      -9.861  10.926  67.149  1.00  0.00    -0.184 C  
HETATM   24  O   UNL     3     -10.893   7.631  66.868  1.00  0.00    -0.328 OA 
HETATM   25  C   UNL     3      -9.355   9.125  65.804  1.00  0.00    -0.245 C  
HETATM   26  C   UNL     3      -8.928  10.349  66.137  1.00  0.00    -0.157 C  
HETATM   27  O   UNL     3      -8.733   8.244  64.949  1.00  0.00    -0.369 OA 
HETATM   28  O   UNL     3     -10.612   9.793  67.616  1.00  0.00    -0.242 OA 
HETATM   29  C   UNL     3     -10.416   8.747  66.741  1.00  0.00    -0.213 C  
HETATM   30  O   UNL     3      -7.904  11.035  65.914  1.00  0.00    -0.130 OA 
HETATM   31  H   UNL     3      -8.045   8.489  64.341  1.00  0.00     0.000 HD 
ENDBRANCH  20  23
ENDBRANCH   7  20
TORSDOF 4
ENDMDL
MODEL      126
REMARK 921   NORMALIZED FREE ENERGY PREDICTED BY IDOCK:   -5.20 KCAL/MOL
REMARK 922        TOTAL FREE ENERGY PREDICTED BY IDOCK:   -8.35 KCAL/MOL
REMARK 923 INTER-LIGAND FREE ENERGY PREDICTED BY IDOCK:   -7.10 KCAL/MOL
REMARK 924 INTRA-LIGAND FREE ENERGY PREDICTED BY IDOCK:   -1.25 KCAL/MOL
REMARK 927      BINDING AFFINITY PREDICTED BY RF-SCORE:    0.00 PKD
ROOT
HETATM    1 CA   UNL     1     -10.430   9.148  72.607  1.00  0.00    -0.284 Ca 
HETATM    2  O   UNL     2      -9.817   2.197  72.087  1.00  0.00    -0.123 OA 
HETATM    3  C   UNL     2     -10.210   3.538  72.399  1.00  0.00    -0.135 C  
HETATM    4  H   UNL     2     -10.436   1.614  72.511  1.00  0.00     0.000 HD 
HETATM    5  O   UNL     3     -11.143   8.267  67.277  1.00  0.00    -0.429 OA 
HETATM    6  H   UNL     3     -10.902   7.719  66.540  1.00  0.00     0.000 HD 
HETATM    7  C   UNL     3     -10.033   9.186  67.488  1.00  0.00    -0.205 C  
ENDROOT
BRANCH   3   8
HETATM    8  C   UNL     2      -9.226   4.464  71.724  1.00  0.00    -0.134 C  
HETATM    9  H   UNL     2      -7.273   4.671  71.706  1.00  0.00     0.000 HD 
HETATM   10  O   UNL     2      -7.892   4.088  72.130  1.00  0.00    -0.076 OA 
BRANCH   8  11
HETATM   11  C   UNL     2      -9.409   5.970  72.007  1.00  0.00    -0.149 C  
HETATM   12  C   UNL     2     -10.704   6.488  72.581  1.00  0.00    -0.231 C  
HETATM   13  O   UNL     2      -9.515   6.531  70.693  1.00  0.00    -0.165 OA 
HETATM   14  O   UNL     2     -11.243   6.167  69.204  1.00  0.00    -0.386 OA 
HETATM   15  H   UNL     2     -13.416   6.955  72.418  1.00  0.00     0.000 HD 
HETATM   16  O   UNL     2     -10.686   6.993  73.737  1.00  0.00    -0.360 OA 
HETATM   17  C   UNL     2     -10.808   6.289  70.327  1.00  0.00    -0.304 C  
HETATM   18  C   UNL     2     -11.607   6.440  71.573  1.00  0.00    -0.310 C  
HETATM   19  O   UNL     2     -12.906   6.858  71.623  1.00  0.00    -0.373 OA 
ENDBRANCH   8  11
ENDBRANCH   3   8
BRANCH   7  20
HETATM   20  C   UNL     3     -10.421  10.071  68.677  1.00  0.00    -0.204 C  
HETATM   21  O   UNL     3     -10.375   9.315  69.886  1.00  0.00    -0.198 OA 
HETATM   22  H   UNL     3     -10.615   9.864  70.624  1.00  0.00     0.000 HD 
BRANCH  20  23
HETATM   23  C   UNL     3     -11.643  11.029  68.615  1.00  0.00    -0.316 C  
HETATM   24  O   UNL     3     -12.286  13.638  70.801  1.00  0.00    -0.343 OA 
HETATM   25  C   UNL     3     -11.829  13.322  68.474  1.00  0.00    -0.349 C  
HETATM   26  C   UNL     3     -11.770  12.217  67.720  1.00  0.00    -0.337 C  
HETATM   27  O   UNL     3     -12.008  14.611  68.027  1.00  0.00    -0.481 OA 
HETATM   28  O   UNL     3     -12.009  11.531  69.912  1.00  0.00    -0.310 OA 
HETATM   29  C   UNL     3     -11.994  12.908  69.869  1.00  0.00    -0.307 C  
HETATM   30  O   UNL     3     -11.927  11.948  66.507  1.00  0.00    -0.588 OA 
HETATM   31  H   UNL     3     -11.901  14.880  67.121  1.00  0.00     0.000 HD 
ENDBRANCH  20  23
ENDBRANCH   7  20
TORSDOF 4
ENDMDL
MODEL      127
REMARK 921   NORMALIZED FREE ENERGY PREDICTED BY IDOCK:   -5.19 KCAL/MOL
REMARK 922        TOTAL FREE ENERGY PREDICTED BY IDOCK:   -8.33 KCAL/MOL
REMARK 923 INTER-LIGAND FREE ENERGY PREDICTED BY IDOCK:   -7.12 KCAL/MOL
REMARK 924 INTRA-LIGAND FREE ENERGY PREDICTED BY IDOCK:   -1.21 KCAL/MOL
REMARK 927      BINDING AFFINITY PREDICTED BY RF-SCORE:    0.00 PKD
ROOT
HETATM    1 CA   UNL     1     -11.316  14.165  70.936  1.00  0.00    -0.344 Ca 
HETATM    2  O   UNL     2      -5.352  16.465  68.087  1.00  0.00    -0.101 OA 
HETATM    3  C   UNL     2      -6.433  16.122  68.962  1.00  0.00    -0.154 C  
HETATM    4  H   UNL     2      -4.672  16.862  68.619  1.00  0.00     0.000 HD 
HETATM    5  O   UNL     3      -9.058   9.597  69.006  1.00  0.00    -0.137 OA 
HETATM    6  H   UNL     3      -8.515   9.227  68.321  1.00  0.00     0.000 HD 
HETATM    7  C   UNL     3     -10.381   9.783  68.428  1.00  0.00    -0.201 C  
ENDROOT
BRANCH   3   8
HETATM    8  C   UNL     2      -7.514  15.490  68.115  1.00  0.00    -0.114 C  
HETATM    9  H   UNL     2      -7.562  14.355  66.513  1.00  0.00     0.000 HD 
HETATM   10  O   UNL     2      -6.883  14.752  67.046  1.00  0.00    -0.157 OA 
BRANCH   8  11
HETATM   11  C   UNL     2      -8.540  16.460  67.491  1.00  0.00    -0.173 C  
HETATM   12  C   UNL     2      -9.693  16.983  68.311  1.00  0.00    -0.275 C  
HETATM   13  O   UNL     2      -9.275  15.614  66.599  1.00  0.00    -0.225 OA 
HETATM   14  O   UNL     2     -10.660  13.873  67.222  1.00  0.00    -0.272 OA 
HETATM   15  H   UNL     2     -12.027  16.613  69.730  1.00  0.00     0.000 HD 
HETATM   16  O   UNL     2      -9.735  18.218  68.562  1.00  0.00    -0.328 OA 
HETATM   17  C   UNL     2     -10.159  14.959  67.408  1.00  0.00    -0.228 C  
HETATM   18  C   UNL     2     -10.560  15.951  68.443  1.00  0.00    -0.266 C  
HETATM   19  O   UNL     2     -11.772  15.980  69.070  1.00  0.00    -0.370 OA 
ENDBRANCH   8  11
ENDBRANCH   3   8
BRANCH   7  20
HETATM   20  C   UNL     3     -11.259  10.381  69.534  1.00  0.00    -0.269 C  
HETATM   21  O   UNL     3     -11.036  11.786  69.631  1.00  0.00    -0.451 OA 
HETATM   22  H   UNL     3     -11.579  12.156  70.316  1.00  0.00     0.000 HD 
BRANCH  20  23
HETATM   23  C   UNL     3     -11.396   9.697  70.923  1.00  0.00    -0.360 C  
HETATM   24  O   UNL     3     -14.366   9.090  72.598  1.00  0.00    -0.603 OA 
HETATM   25  C   UNL     3     -12.558   7.844  71.648  1.00  0.00    -0.321 C  
HETATM   26  C   UNL     3     -11.366   8.226  71.173  1.00  0.00    -0.263 C  
HETATM   27  O   UNL     3     -12.910   6.578  72.058  1.00  0.00    -0.499 OA 
HETATM   28  O   UNL     3     -12.557  10.148  71.640  1.00  0.00    -0.381 OA 
HETATM   29  C   UNL     3     -13.325   9.051  71.963  1.00  0.00    -0.438 C  
HETATM   30  O   UNL     3     -10.244   7.689  71.027  1.00  0.00    -0.194 OA 
HETATM   31  H   UNL     3     -12.412   5.795  71.853  1.00  0.00     0.000 HD 
ENDBRANCH  20  23
ENDBRANCH   7  20
TORSDOF 4
ENDMDL
MODEL      128
REMARK 921   NORMALIZED FREE ENERGY PREDICTED BY IDOCK:   -5.19 KCAL/MOL
REMARK 922        TOTAL FREE ENERGY PREDICTED BY IDOCK:   -8.33 KCAL/MOL
REMARK 923 INTER-LIGAND FREE ENERGY PREDICTED BY IDOCK:   -7.27 KCAL/MOL
REMARK 924 INTRA-LIGAND FREE ENERGY PREDICTED BY IDOCK:   -1.06 KCAL/MOL
REMARK 927      BINDING AFFINITY PREDICTED BY RF-SCORE:    0.00 PKD
ROOT
HETATM    1 CA   UNL     1     -10.768  15.337  63.671  1.00  0.00    -0.448 Ca 
HETATM    2  O   UNL     2      -9.060   8.621  62.699  1.00  0.00    -0.442 OA 
HETATM    3  C   UNL     2      -9.346  10.017  62.557  1.00  0.00    -0.268 C  
HETATM    4  H   UNL     2      -8.778   8.301  61.850  1.00  0.00     0.000 HD 
HETATM    5  O   UNL     3      -6.413  14.720  66.887  1.00  0.00    -0.195 OA 
HETATM    6  H   UNL     3      -5.934  14.115  67.441  1.00  0.00     0.000 HD 
HETATM    7  C   UNL     3      -7.550  15.183  67.669  1.00  0.00    -0.174 C  
ENDROOT
BRANCH   3   8
HETATM    8  C   UNL     2      -9.794  10.524  63.908  1.00  0.00    -0.310 C  
HETATM    9  H   UNL     2     -10.251  12.275  64.672  1.00  0.00     0.000 HD 
HETATM   10  O   UNL     2      -9.970  11.956  63.823  1.00  0.00    -0.336 OA 
BRANCH   8  11
HETATM   11  C   UNL     2      -8.850  10.225  65.092  1.00  0.00    -0.184 C  
HETATM   12  C   UNL     2      -8.878   8.878  65.770  1.00  0.00    -0.186 C  
HETATM   13  O   UNL     2      -9.408  11.012  66.151  1.00  0.00    -0.179 OA 
HETATM   14  O   UNL     2     -11.463  10.670  67.150  1.00  0.00    -0.359 OA 
HETATM   15  H   UNL     2     -10.147   6.939  67.263  1.00  0.00     0.000 HD 
HETATM   16  O   UNL     2      -7.856   8.145  65.684  1.00  0.00    -0.089 OA 
HETATM   17  C   UNL     2     -10.459  10.268  66.605  1.00  0.00    -0.194 C  
HETATM   18  C   UNL     2     -10.015   8.851  66.506  1.00  0.00    -0.288 C  
HETATM   19  O   UNL     2     -10.431   7.843  67.326  1.00  0.00    -0.275 OA 
ENDBRANCH   8  11
ENDBRANCH   3   8
BRANCH   7  20
HETATM   20  C   UNL     3      -8.324  16.160  66.775  1.00  0.00    -0.264 C  
HETATM   21  O   UNL     3      -7.688  17.437  66.780  1.00  0.00    -0.201 OA 
HETATM   22  H   UNL     3      -8.167  18.042  66.226  1.00  0.00     0.000 HD 
BRANCH  20  23
HETATM   23  C   UNL     3      -9.873  16.260  66.829  1.00  0.00    -0.245 C  
HETATM   24  O   UNL     3     -12.091  13.639  66.367  1.00  0.00    -0.403 OA 
HETATM   25  C   UNL     3     -11.469  15.177  68.091  1.00  0.00    -0.342 C  
HETATM   26  C   UNL     3     -10.700  16.273  68.072  1.00  0.00    -0.331 C  
HETATM   27  O   UNL     3     -12.414  14.855  69.038  1.00  0.00    -0.577 OA 
HETATM   28  O   UNL     3     -10.512  15.277  65.997  1.00  0.00    -0.287 OA 
HETATM   29  C   UNL     3     -11.374  14.538  66.777  1.00  0.00    -0.352 C  
HETATM   30  O   UNL     3     -10.615  17.323  68.750  1.00  0.00    -0.338 OA 
HETATM   31  H   UNL     3     -12.476  15.271  69.891  1.00  0.00     0.000 HD 
ENDBRANCH  20  23
ENDBRANCH   7  20
TORSDOF 4
ENDMDL
MODEL      129
REMARK 921   NORMALIZED FREE ENERGY PREDICTED BY IDOCK:   -5.19 KCAL/MOL
REMARK 922        TOTAL FREE ENERGY PREDICTED BY IDOCK:   -8.33 KCAL/MOL
REMARK 923 INTER-LIGAND FREE ENERGY PREDICTED BY IDOCK:   -7.30 KCAL/MOL
REMARK 924 INTRA-LIGAND FREE ENERGY PREDICTED BY IDOCK:   -1.03 KCAL/MOL
REMARK 927      BINDING AFFINITY PREDICTED BY RF-SCORE:    0.00 PKD
ROOT
HETATM    1 CA   UNL     1      -9.573   7.569  65.137  1.00  0.00    -0.380 Ca 
HETATM    2  O   UNL     2     -12.339  13.721  63.272  1.00  0.00    -1.069 OA 
HETATM    3  C   UNL     2     -12.092  12.346  63.584  1.00  0.00    -0.556 C  
HETATM    4  H   UNL     2     -13.257  13.800  63.040  1.00  0.00     0.000 HD 
HETATM    5  O   UNL     3      -9.041  10.555  69.663  1.00  0.00    -0.386 OA 
HETATM    6  H   UNL     3      -8.899  11.429  70.007  1.00  0.00     0.000 HD 
HETATM    7  C   UNL     3      -7.740  10.064  69.233  1.00  0.00    -0.117 C  
ENDROOT
BRANCH   3   8
HETATM    8  C   UNL     2     -10.633  12.222  63.954  1.00  0.00    -0.427 C  
HETATM    9  H   UNL     2      -9.109  11.149  63.331  1.00  0.00     0.000 HD 
HETATM   10  O   UNL     2     -10.027  11.228  63.098  1.00  0.00    -0.341 OA 
BRANCH   8  11
HETATM   11  C   UNL     2     -10.334  11.841  65.420  1.00  0.00    -0.268 C  
HETATM   12  C   UNL     2     -11.344  12.124  66.503  1.00  0.00    -0.350 C  
HETATM   13  O   UNL     2      -9.336  12.796  65.800  1.00  0.00    -0.084 OA 
HETATM   14  O   UNL     2      -9.656  15.075  66.010  1.00  0.00    -0.295 OA 
HETATM   15  H   UNL     2     -12.830  13.864  68.043  1.00  0.00     0.000 HD 
HETATM   16  O   UNL     2     -11.874  11.146  67.096  1.00  0.00    -0.466 OA 
HETATM   17  C   UNL     2     -10.044  13.930  66.080  1.00  0.00    -0.313 C  
HETATM   18  C   UNL     2     -11.308  13.462  66.711  1.00  0.00    -0.325 C  
HETATM   19  O   UNL     2     -12.023  14.162  67.639  1.00  0.00    -0.377 OA 
ENDBRANCH   8  11
ENDBRANCH   3   8
BRANCH   7  20
HETATM   20  C   UNL     3      -7.969   8.653  68.678  1.00  0.00    -0.115 C  
HETATM   21  O   UNL     3      -7.199   8.462  67.493  1.00  0.00    -0.085 OA 
HETATM   22  H   UNL     3      -7.341   7.588  67.149  1.00  0.00     0.000 HD 
BRANCH  20  23
HETATM   23  C   UNL     3      -9.394   8.041  68.574  1.00  0.00    -0.142 C  
HETATM   24  O   UNL     3     -10.134   4.768  67.715  1.00  0.00    -0.139 OA 
HETATM   25  C   UNL     3     -10.397   6.232  69.590  1.00  0.00    -0.215 C  
HETATM   26  C   UNL     3     -10.214   7.552  69.722  1.00  0.00    -0.211 C  
HETATM   27  O   UNL     3     -11.150   5.423  70.410  1.00  0.00    -0.149 OA 
HETATM   28  O   UNL     3      -9.457   6.969  67.619  1.00  0.00    -0.122 OA 
HETATM   29  C   UNL     3      -9.936   5.844  68.255  1.00  0.00    -0.146 C  
HETATM   30  O   UNL     3     -10.662   8.451  70.470  1.00  0.00    -0.218 OA 
HETATM   31  H   UNL     3     -11.450   5.675  71.276  1.00  0.00     0.000 HD 
ENDBRANCH  20  23
ENDBRANCH   7  20
TORSDOF 4
ENDMDL
MODEL      130
REMARK 921   NORMALIZED FREE ENERGY PREDICTED BY IDOCK:   -5.18 KCAL/MOL
REMARK 922        TOTAL FREE ENERGY PREDICTED BY IDOCK:   -8.31 KCAL/MOL
REMARK 923 INTER-LIGAND FREE ENERGY PREDICTED BY IDOCK:   -7.35 KCAL/MOL
REMARK 924 INTRA-LIGAND FREE ENERGY PREDICTED BY IDOCK:   -0.96 KCAL/MOL
REMARK 927      BINDING AFFINITY PREDICTED BY RF-SCORE:    0.00 PKD
ROOT
HETATM    1 CA   UNL     1      -7.303  17.173  65.391  1.00  0.00    -0.242 Ca 
HETATM    2  O   UNL     2      -9.655  11.854  69.282  1.00  0.00    -0.334 OA 
HETATM    3  C   UNL     2      -8.863  12.814  68.573  1.00  0.00    -0.040 C  
HETATM    4  H   UNL     2      -9.057  11.275  69.739  1.00  0.00     0.000 HD 
HETATM    5  O   UNL     3     -10.066  19.700  69.348  1.00  0.00    -0.603 OA 
HETATM    6  H   UNL     3     -10.809  19.644  69.937  1.00  0.00     0.000 HD 
HETATM    7  C   UNL     3     -10.600  20.078  68.047  1.00  0.00    -0.211 C  
ENDROOT
BRANCH   3   8
HETATM    8  C   UNL     2      -9.816  13.735  67.846  1.00  0.00    -0.232 C  
HETATM    9  H   UNL     2     -10.702  15.441  68.245  1.00  0.00     0.000 HD 
HETATM   10  O   UNL     2     -10.103  14.863  68.702  1.00  0.00    -0.223 OA 
BRANCH   8  11
HETATM   11  C   UNL     2     -11.157  13.111  67.405  1.00  0.00    -0.275 C  
HETATM   12  C   UNL     2     -11.177  11.885  66.527  1.00  0.00    -0.327 C  
HETATM   13  O   UNL     2     -11.654  14.064  66.458  1.00  0.00    -0.341 OA 
HETATM   14  O   UNL     2     -10.712  14.544  64.403  1.00  0.00    -0.270 OA 
HETATM   15  H   UNL     2     -10.652  10.595  64.148  1.00  0.00     0.000 HD 
HETATM   16  O   UNL     2     -11.646  10.816  67.004  1.00  0.00    -0.322 OA 
HETATM   17  C   UNL     2     -10.972  13.783  65.308  1.00  0.00    -0.322 C  
HETATM   18  C   UNL     2     -10.820  12.303  65.289  1.00  0.00    -0.293 C  
HETATM   19  O   UNL     2     -10.749  11.539  64.160  1.00  0.00    -0.317 OA 
ENDBRANCH   8  11
ENDBRANCH   3   8
BRANCH   7  20
HETATM   20  C   UNL     3      -9.401  20.170  67.096  1.00  0.00    -0.393 C  
HETATM   21  O   UNL     3      -9.843  20.503  65.781  1.00  0.00    -0.624 OA 
HETATM   22  H   UNL     3      -9.100  20.560  65.192  1.00  0.00     0.000 HD 
BRANCH  20  23
HETATM   23  C   UNL     3      -8.276  19.098  67.098  1.00  0.00    -0.270 C  
HETATM   24  O   UNL     3      -5.909  18.649  69.587  1.00  0.00    -0.233 OA 
HETATM   25  C   UNL     3      -7.706  17.430  68.583  1.00  0.00    -0.273 C  
HETATM   26  C   UNL     3      -8.442  17.667  67.489  1.00  0.00    -0.219 C  
HETATM   27  O   UNL     3      -7.544  16.218  69.215  1.00  0.00    -0.232 OA 
HETATM   28  O   UNL     3      -7.116  19.526  67.831  1.00  0.00    -0.247 OA 
HETATM   29  C   UNL     3      -6.847  18.594  68.809  1.00  0.00    -0.278 C  
HETATM   30  O   UNL     3      -9.094  16.971  66.678  1.00  0.00    -0.231 OA 
HETATM   31  H   UNL     3      -8.101  15.463  69.068  1.00  0.00     0.000 HD 
ENDBRANCH  20  23
ENDBRANCH   7  20
TORSDOF 4
ENDMDL
MODEL      131
REMARK 921   NORMALIZED FREE ENERGY PREDICTED BY IDOCK:   -5.17 KCAL/MOL
REMARK 922        TOTAL FREE ENERGY PREDICTED BY IDOCK:   -8.31 KCAL/MOL
REMARK 923 INTER-LIGAND FREE ENERGY PREDICTED BY IDOCK:   -6.82 KCAL/MOL
REMARK 924 INTRA-LIGAND FREE ENERGY PREDICTED BY IDOCK:   -1.49 KCAL/MOL
REMARK 927      BINDING AFFINITY PREDICTED BY RF-SCORE:    0.00 PKD
ROOT
HETATM    1 CA   UNL     1     -11.599  11.654  68.372  1.00  0.00    -0.184 Ca 
HETATM    2  O   UNL     2      -7.507   7.066  71.716  1.00  0.00    -0.085 OA 
HETATM    3  C   UNL     2      -8.599   7.827  71.187  1.00  0.00    -0.131 C  
HETATM    4  H   UNL     2      -7.878   6.365  72.240  1.00  0.00     0.000 HD 
HETATM    5  O   UNL     3      -9.038   9.115  64.287  1.00  0.00    -0.425 OA 
HETATM    6  H   UNL     3      -8.232   8.692  64.017  1.00  0.00     0.000 HD 
HETATM    7  C   UNL     3      -8.794  10.549  64.216  1.00  0.00    -0.197 C  
ENDROOT
BRANCH   3   8
HETATM    8  C   UNL     2      -8.010   8.941  70.355  1.00  0.00    -0.117 C  
HETATM    9  H   UNL     2      -6.885  10.514  70.703  1.00  0.00     0.000 HD 
HETATM   10  O   UNL     2      -7.256   9.812  71.226  1.00  0.00    -0.309 OA 
BRANCH   8  11
HETATM   11  C   UNL     2      -9.018   9.804  69.566  1.00  0.00    -0.204 C  
HETATM   12  C   UNL     2     -10.292   9.198  69.036  1.00  0.00    -0.215 C  
HETATM   13  O   UNL     2      -8.346  10.020  68.320  1.00  0.00    -0.108 OA 
HETATM   14  O   UNL     2      -7.858   8.396  66.750  1.00  0.00    -0.093 OA 
HETATM   15  H   UNL     2     -11.647   7.448  67.391  1.00  0.00     0.000 HD 
HETATM   16  O   UNL     2     -11.389   9.604  69.508  1.00  0.00    -0.167 OA 
HETATM   17  C   UNL     2      -8.556   8.866  67.620  1.00  0.00    -0.124 C  
HETATM   18  C   UNL     2      -9.933   8.430  67.980  1.00  0.00    -0.182 C  
HETATM   19  O   UNL     2     -10.769   7.726  67.162  1.00  0.00    -0.333 OA 
ENDBRANCH   8  11
ENDBRANCH   3   8
BRANCH   7  20
HETATM   20  C   UNL     3     -10.095  11.234  64.650  1.00  0.00    -0.290 C  
HETATM   21  O   UNL     3     -11.150  10.896  63.752  1.00  0.00    -0.454 OA 
HETATM   22  H   UNL     3     -11.957  11.320  64.022  1.00  0.00     0.000 HD 
BRANCH  20  23
HETATM   23  C   UNL     3     -10.126  12.727  65.078  1.00  0.00    -0.218 C  
HETATM   24  O   UNL     3     -12.557  15.035  64.204  1.00  0.00    -0.770 OA 
HETATM   25  C   UNL     3     -11.691  14.007  66.184  1.00  0.00    -0.384 C  
HETATM   26  C   UNL     3     -10.610  13.245  66.391  1.00  0.00    -0.284 C  
HETATM   27  O   UNL     3     -12.391  14.714  67.135  1.00  0.00    -0.533 OA 
HETATM   28  O   UNL     3     -10.791  13.557  64.111  1.00  0.00    -0.372 OA 
HETATM   29  C   UNL     3     -11.816  14.229  64.741  1.00  0.00    -0.429 C  
HETATM   30  O   UNL     3      -9.865  12.989  67.365  1.00  0.00    -0.209 OA 
HETATM   31  H   UNL     3     -12.309  14.570  68.071  1.00  0.00     0.000 HD 
ENDBRANCH  20  23
ENDBRANCH   7  20
TORSDOF 4
ENDMDL
MODEL      132
REMARK 921   NORMALIZED FREE ENERGY PREDICTED BY IDOCK:   -5.17 KCAL/MOL
REMARK 922        TOTAL FREE ENERGY PREDICTED BY IDOCK:   -8.31 KCAL/MOL
REMARK 923 INTER-LIGAND FREE ENERGY PREDICTED BY IDOCK:   -6.09 KCAL/MOL
REMARK 924 INTRA-LIGAND FREE ENERGY PREDICTED BY IDOCK:   -2.22 KCAL/MOL
REMARK 927      BINDING AFFINITY PREDICTED BY RF-SCORE:    0.00 PKD
ROOT
HETATM    1 CA   UNL     1     -11.144  12.659  70.095  1.00  0.00    -0.420 Ca 
HETATM    2  O   UNL     2     -11.025   5.691  70.726  1.00  0.00    -0.260 OA 
HETATM    3  C   UNL     2     -11.385   7.062  70.527  1.00  0.00    -0.312 C  
HETATM    4  H   UNL     2     -11.800   5.167  70.559  1.00  0.00     0.000 HD 
HETATM    5  O   UNL     3      -7.611  11.156  66.229  1.00  0.00    -0.224 OA 
HETATM    6  H   UNL     3      -6.946  10.522  65.986  1.00  0.00     0.000 HD 
HETATM    7  C   UNL     3      -6.975  12.085  67.153  1.00  0.00    -0.134 C  
ENDROOT
BRANCH   3   8
HETATM    8  C   UNL     2     -10.152   7.895  70.792  1.00  0.00    -0.192 C  
HETATM    9  H   UNL     2      -9.120   8.414  72.380  1.00  0.00     0.000 HD 
HETATM   10  O   UNL     2      -9.895   7.890  72.213  1.00  0.00    -0.183 OA 
BRANCH   8  11
HETATM   11  C   UNL     2     -10.210   9.362  70.318  1.00  0.00    -0.247 C  
HETATM   12  C   UNL     2     -10.852   9.714  68.999  1.00  0.00    -0.183 C  
HETATM   13  O   UNL     2      -8.848   9.641  69.976  1.00  0.00    -0.202 OA 
HETATM   14  O   UNL     2      -7.667   8.680  68.238  1.00  0.00    -0.098 OA 
HETATM   15  H   UNL     2     -10.960   9.605  66.246  1.00  0.00     0.000 HD 
HETATM   16  O   UNL     2     -11.900  10.416  69.013  1.00  0.00    -0.170 OA 
HETATM   17  C   UNL     2      -8.691   9.089  68.737  1.00  0.00    -0.136 C  
HETATM   18  C   UNL     2      -9.988   9.307  68.039  1.00  0.00    -0.182 C  
HETATM   19  O   UNL     2     -10.133   9.466  66.691  1.00  0.00    -0.235 OA 
ENDBRANCH   8  11
ENDBRANCH   3   8
BRANCH   7  20
HETATM   20  C   UNL     3      -8.047  13.108  67.546  1.00  0.00    -0.181 C  
HETATM   21  O   UNL     3      -8.616  12.762  68.808  1.00  0.00    -0.363 OA 
HETATM   22  H   UNL     3      -9.280  13.396  69.051  1.00  0.00     0.000 HD 
BRANCH  20  23
HETATM   23  C   UNL     3      -9.107  13.609  66.526  1.00  0.00    -0.119 C  
HETATM   24  O   UNL     3     -12.188  12.145  65.922  1.00  0.00    -0.604 OA 
HETATM   25  C   UNL     3     -11.319  14.219  66.740  1.00  0.00    -0.348 C  
HETATM   26  C   UNL     3     -10.078  14.720  66.758  1.00  0.00    -0.256 C  
HETATM   27  O   UNL     3     -12.492  14.931  66.855  1.00  0.00    -0.270 OA 
HETATM   28  O   UNL     3      -9.919  12.539  66.015  1.00  0.00    -0.250 OA 
HETATM   29  C   UNL     3     -11.242  12.839  66.258  1.00  0.00    -0.300 C  
HETATM   30  O   UNL     3      -9.571  15.865  66.784  1.00  0.00    -0.221 OA 
HETATM   31  H   UNL     3     -12.542  15.827  67.167  1.00  0.00     0.000 HD 
ENDBRANCH  20  23
ENDBRANCH   7  20
TORSDOF 4
ENDMDL
MODEL      133
REMARK 921   NORMALIZED FREE ENERGY PREDICTED BY IDOCK:   -5.17 KCAL/MOL
REMARK 922        TOTAL FREE ENERGY PREDICTED BY IDOCK:   -8.31 KCAL/MOL
REMARK 923 INTER-LIGAND FREE ENERGY PREDICTED BY IDOCK:   -7.35 KCAL/MOL
REMARK 924 INTRA-LIGAND FREE ENERGY PREDICTED BY IDOCK:   -0.95 KCAL/MOL
REMARK 927      BINDING AFFINITY PREDICTED BY RF-SCORE:    0.00 PKD
ROOT
HETATM    1 CA   UNL     1     -10.986  14.002  69.726  1.00  0.00    -0.230 Ca 
HETATM    2  O   UNL     2      -5.648  18.411  68.704  1.00  0.00    -0.178 OA 
HETATM    3  C   UNL     2      -6.511  17.344  69.116  1.00  0.00    -0.239 C  
HETATM    4  H   UNL     2      -4.796  18.252  69.092  1.00  0.00     0.000 HD 
HETATM    5  O   UNL     3     -10.137  13.647  64.356  1.00  0.00    -0.652 OA 
HETATM    6  H   UNL     3      -9.861  14.119  63.579  1.00  0.00     0.000 HD 
HETATM    7  C   UNL     3     -11.510  14.052  64.619  1.00  0.00    -0.383 C  
ENDROOT
BRANCH   3   8
HETATM    8  C   UNL     2      -7.866  17.597  68.497  1.00  0.00    -0.282 C  
HETATM    9  H   UNL     2      -9.659  16.814  68.669  1.00  0.00     0.000 HD 
HETATM   10  O   UNL     2      -8.807  16.655  69.058  1.00  0.00    -0.256 OA 
BRANCH   8  11
HETATM   11  C   UNL     2      -7.939  17.493  66.959  1.00  0.00    -0.216 C  
HETATM   12  C   UNL     2      -7.822  18.729  66.103  1.00  0.00    -0.238 C  
HETATM   13  O   UNL     2      -9.321  17.199  66.725  1.00  0.00    -0.237 OA 
HETATM   14  O   UNL     2     -11.094  18.621  67.139  1.00  0.00    -0.250 OA 
HETATM   15  H   UNL     2      -8.748  21.176  65.233  1.00  0.00     0.000 HD 
HETATM   16  O   UNL     2      -6.821  18.837  65.343  1.00  0.00    -0.450 OA 
HETATM   17  C   UNL     2      -9.945  18.409  66.824  1.00  0.00    -0.360 C  
HETATM   18  C   UNL     2      -8.994  19.394  66.239  1.00  0.00    -0.346 C  
HETATM   19  O   UNL     2      -9.355  20.548  65.606  1.00  0.00     0.037 OA 
ENDBRANCH   8  11
ENDBRANCH   3   8
BRANCH   7  20
HETATM   20  C   UNL     3     -11.955  13.292  65.873  1.00  0.00    -0.419 C  
HETATM   21  O   UNL     3     -12.792  14.120  66.678  1.00  0.00    -0.454 OA 
HETATM   22  H   UNL     3     -13.067  13.649  67.455  1.00  0.00     0.000 HD 
BRANCH  20  23
HETATM   23  C   UNL     3     -10.954  12.452  66.714  1.00  0.00    -0.263 C  
HETATM   24  O   UNL     3     -11.677  10.804  69.674  1.00  0.00    -0.274 OA 
HETATM   25  C   UNL     3     -10.973  10.269  67.451  1.00  0.00    -0.252 C  
HETATM   26  C   UNL     3     -10.558  11.040  66.438  1.00  0.00    -0.251 C  
HETATM   27  O   UNL     3     -10.748   8.919  67.599  1.00  0.00    -0.406 OA 
HETATM   28  O   UNL     3     -11.283  12.454  68.114  1.00  0.00    -0.229 OA 
HETATM   29  C   UNL     3     -11.425  11.148  68.531  1.00  0.00    -0.302 C  
HETATM   30  O   UNL     3      -9.832  10.884  65.430  1.00  0.00    -0.225 OA 
HETATM   31  H   UNL     3     -10.455   8.348  66.898  1.00  0.00     0.000 HD 
ENDBRANCH  20  23
ENDBRANCH   7  20
TORSDOF 4
ENDMDL
MODEL      134
REMARK 921   NORMALIZED FREE ENERGY PREDICTED BY IDOCK:   -5.17 KCAL/MOL
REMARK 922        TOTAL FREE ENERGY PREDICTED BY IDOCK:   -8.30 KCAL/MOL
REMARK 923 INTER-LIGAND FREE ENERGY PREDICTED BY IDOCK:   -7.32 KCAL/MOL
REMARK 924 INTRA-LIGAND FREE ENERGY PREDICTED BY IDOCK:   -0.98 KCAL/MOL
REMARK 927      BINDING AFFINITY PREDICTED BY RF-SCORE:    0.00 PKD
ROOT
HETATM    1 CA   UNL     1      -9.113   8.825  67.581  1.00  0.00    -0.126 Ca 
HETATM    2  O   UNL     2     -12.859  13.135  63.536  1.00  0.00    -0.638 OA 
HETATM    3  C   UNL     2     -12.133  12.035  64.096  1.00  0.00    -0.362 C  
HETATM    4  H   UNL     2     -13.198  12.852  62.695  1.00  0.00     0.000 HD 
HETATM    5  O   UNL     3     -13.545   9.774  70.605  1.00  0.00    -0.600 OA 
HETATM    6  H   UNL     3     -14.212  10.412  70.829  1.00  0.00     0.000 HD 
HETATM    7  C   UNL     3     -12.347  10.156  71.340  1.00  0.00    -0.416 C  
ENDROOT
BRANCH   3   8
HETATM    8  C   UNL     2     -11.594  12.486  65.434  1.00  0.00    -0.375 C  
HETATM    9  H   UNL     2     -11.930  13.990  66.652  1.00  0.00     0.000 HD 
HETATM   10  O   UNL     2     -12.270  13.706  65.811  1.00  0.00    -0.405 OA 
BRANCH   8  11
HETATM   11  C   UNL     2     -10.072  12.739  65.501  1.00  0.00    -0.264 C  
HETATM   12  C   UNL     2      -9.163  11.747  66.182  1.00  0.00    -0.210 C  
HETATM   13  O   UNL     2      -9.969  13.811  66.445  1.00  0.00    -0.281 OA 
HETATM   14  O   UNL     2     -10.478  13.684  68.695  1.00  0.00    -0.240 OA 
HETATM   15  H   UNL     2      -8.282  10.402  68.422  1.00  0.00     0.000 HD 
HETATM   16  O   UNL     2      -8.317  11.131  65.478  1.00  0.00    -0.087 OA 
HETATM   17  C   UNL     2     -10.074  13.200  67.661  1.00  0.00    -0.221 C  
HETATM   18  C   UNL     2      -9.373  11.895  67.511  1.00  0.00    -0.177 C  
HETATM   19  O   UNL     2      -8.729  11.234  68.517  1.00  0.00    -0.150 OA 
ENDBRANCH   8  11
ENDBRANCH   3   8
BRANCH   7  20
HETATM   20  C   UNL     3     -11.269   9.127  70.979  1.00  0.00    -0.312 C  
HETATM   21  O   UNL     3     -10.455   9.623  69.919  1.00  0.00    -0.217 OA 
HETATM   22  H   UNL     3      -9.787   8.985  69.695  1.00  0.00     0.000 HD 
BRANCH  20  23
HETATM   23  C   UNL     3     -11.604   7.617  70.824  1.00  0.00    -0.265 C  
HETATM   24  O   UNL     3      -9.493   4.983  71.602  1.00  0.00    -0.144 OA 
HETATM   25  C   UNL     3     -11.607   5.854  72.308  1.00  0.00    -0.282 C  
HETATM   26  C   UNL     3     -12.399   6.801  71.789  1.00  0.00    -0.356 C  
HETATM   27  O   UNL     3     -11.981   4.864  73.188  1.00  0.00    -0.426 OA 
HETATM   28  O   UNL     3     -10.432   6.822  70.578  1.00  0.00    -0.202 OA 
HETATM   29  C   UNL     3     -10.358   5.842  71.544  1.00  0.00    -0.222 C  
HETATM   30  O   UNL     3     -13.623   7.063  71.816  1.00  0.00    -0.343 OA 
HETATM   31  H   UNL     3     -12.792   4.872  73.683  1.00  0.00     0.000 HD 
ENDBRANCH  20  23
ENDBRANCH   7  20
TORSDOF 4
ENDMDL
MODEL      135
REMARK 921   NORMALIZED FREE ENERGY PREDICTED BY IDOCK:   -5.16 KCAL/MOL
REMARK 922        TOTAL FREE ENERGY PREDICTED BY IDOCK:   -8.29 KCAL/MOL
REMARK 923 INTER-LIGAND FREE ENERGY PREDICTED BY IDOCK:   -6.73 KCAL/MOL
REMARK 924 INTRA-LIGAND FREE ENERGY PREDICTED BY IDOCK:   -1.56 KCAL/MOL
REMARK 927      BINDING AFFINITY PREDICTED BY RF-SCORE:    0.00 PKD
ROOT
HETATM    1 CA   UNL     1     -10.382  14.543  64.489  1.00  0.00    -0.348 Ca 
HETATM    2  O   UNL     2      -6.628   8.640  64.649  1.00  0.00    -0.066 OA 
HETATM    3  C   UNL     2      -7.092   9.989  64.524  1.00  0.00    -0.139 C  
HETATM    4  H   UNL     2      -5.693   8.645  64.477  1.00  0.00     0.000 HD 
HETATM    5  O   UNL     3     -10.820  12.973  69.688  1.00  0.00    -0.441 OA 
HETATM    6  H   UNL     3     -10.861  12.227  70.275  1.00  0.00     0.000 HD 
HETATM    7  C   UNL     3     -12.142  13.101  69.092  1.00  0.00    -0.214 C  
ENDROOT
BRANCH   3   8
HETATM    8  C   UNL     2      -8.578   9.980  64.796  1.00  0.00    -0.177 C  
HETATM    9  H   UNL     2     -10.208   9.847  63.707  1.00  0.00     0.000 HD 
HETATM   10  O   UNL     2      -9.273   9.851  63.536  1.00  0.00    -0.258 OA 
BRANCH   8  11
HETATM   11  C   UNL     2      -9.140  11.216  65.531  1.00  0.00    -0.195 C  
HETATM   12  C   UNL     2      -8.604  11.608  66.885  1.00  0.00    -0.174 C  
HETATM   13  O   UNL     2     -10.445  10.783  65.932  1.00  0.00    -0.252 OA 
HETATM   14  O   UNL     2     -10.903   9.126  67.476  1.00  0.00    -0.242 OA 
HETATM   15  H   UNL     2      -8.204  11.125  69.570  1.00  0.00     0.000 HD 
HETATM   16  O   UNL     2      -7.988  12.704  66.990  1.00  0.00    -0.147 OA 
HETATM   17  C   UNL     2     -10.222  10.032  67.050  1.00  0.00    -0.237 C  
HETATM   18  C   UNL     2      -9.102  10.705  67.763  1.00  0.00    -0.143 C  
HETATM   19  O   UNL     2      -8.919  10.696  69.115  1.00  0.00    -0.170 OA 
ENDBRANCH   8  11
ENDBRANCH   3   8
BRANCH   7  20
HETATM   20  C   UNL     3     -12.076  14.305  68.144  1.00  0.00    -0.240 C  
HETATM   21  O   UNL     3     -12.478  13.917  66.832  1.00  0.00    -0.477 OA 
HETATM   22  H   UNL     3     -12.438  14.663  66.245  1.00  0.00     0.000 HD 
BRANCH  20  23
HETATM   23  C   UNL     3     -10.860  15.271  68.139  1.00  0.00    -0.273 C  
HETATM   24  O   UNL     3      -9.863  17.260  65.483  1.00  0.00    -0.541 OA 
HETATM   25  C   UNL     3     -10.656  17.529  67.725  1.00  0.00    -0.375 C  
HETATM   26  C   UNL     3     -10.843  16.648  68.715  1.00  0.00    -0.331 C  
HETATM   27  O   UNL     3     -10.520  18.893  67.854  1.00  0.00    -0.390 OA 
HETATM   28  O   UNL     3     -10.302  15.438  66.825  1.00  0.00    -0.267 OA 
HETATM   29  C   UNL     3     -10.299  16.781  66.518  1.00  0.00    -0.301 C  
HETATM   30  O   UNL     3     -10.866  16.696  69.967  1.00  0.00    -0.329 OA 
HETATM   31  H   UNL     3     -10.752  19.378  68.638  1.00  0.00     0.000 HD 
ENDBRANCH  20  23
ENDBRANCH   7  20
TORSDOF 4
ENDMDL
MODEL      136
REMARK 921   NORMALIZED FREE ENERGY PREDICTED BY IDOCK:   -5.13 KCAL/MOL
REMARK 922        TOTAL FREE ENERGY PREDICTED BY IDOCK:   -8.25 KCAL/MOL
REMARK 923 INTER-LIGAND FREE ENERGY PREDICTED BY IDOCK:   -7.39 KCAL/MOL
REMARK 924 INTRA-LIGAND FREE ENERGY PREDICTED BY IDOCK:   -0.86 KCAL/MOL
REMARK 927      BINDING AFFINITY PREDICTED BY RF-SCORE:    0.00 PKD
ROOT
HETATM    1 CA   UNL     1      -7.369  12.578  70.330  1.00  0.00    -0.322 Ca 
HETATM    2  O   UNL     2      -8.738   7.132  74.505  1.00  0.00    -0.192 OA 
HETATM    3  C   UNL     2      -8.449   8.420  73.951  1.00  0.00    -0.073 C  
HETATM    4  H   UNL     2      -8.832   7.242  75.444  1.00  0.00     0.000 HD 
HETATM    5  O   UNL     3     -12.290  10.963  68.635  1.00  0.00    -0.805 OA 
HETATM    6  H   UNL     3     -12.865  10.217  68.514  1.00  0.00     0.000 HD 
HETATM    7  C   UNL     3     -11.347  10.943  67.525  1.00  0.00    -0.232 C  
ENDROOT
BRANCH   3   8
HETATM    8  C   UNL     2      -8.301   8.245  72.458  1.00  0.00    -0.174 C  
HETATM    9  H   UNL     2      -6.936   8.694  71.118  1.00  0.00     0.000 HD 
HETATM   10  O   UNL     2      -7.030   8.804  72.057  1.00  0.00    -0.194 OA 
BRANCH   8  11
HETATM   11  C   UNL     2      -9.403   8.884  71.587  1.00  0.00    -0.258 C  
HETATM   12  C   UNL     2     -10.845   8.478  71.761  1.00  0.00    -0.304 C  
HETATM   13  O   UNL     2      -9.169   8.303  70.299  1.00  0.00    -0.152 OA 
HETATM   14  O   UNL     2      -9.436   6.074  69.754  1.00  0.00    -0.147 OA 
HETATM   15  H   UNL     2     -12.874   6.615  71.640  1.00  0.00     0.000 HD 
HETATM   16  O   UNL     2     -11.662   9.341  72.184  1.00  0.00    -0.319 OA 
HETATM   17  C   UNL     2      -9.739   7.065  70.379  1.00  0.00    -0.176 C  
HETATM   18  C   UNL     2     -10.957   7.243  71.217  1.00  0.00    -0.243 C  
HETATM   19  O   UNL     2     -12.097   6.501  71.106  1.00  0.00    -0.350 OA 
ENDBRANCH   8  11
ENDBRANCH   3   8
BRANCH   7  20
HETATM   20  C   UNL     3     -10.419  12.147  67.721  1.00  0.00    -0.205 C  
HETATM   21  O   UNL     3     -10.815  12.888  68.874  1.00  0.00    -0.273 OA 
HETATM   22  H   UNL     3     -10.240  13.634  68.996  1.00  0.00     0.000 HD 
BRANCH  20  23
HETATM   23  C   UNL     3     -10.008  13.059  66.533  1.00  0.00    -0.262 C  
HETATM   24  O   UNL     3     -10.854  12.564  63.210  1.00  0.00    -0.406 OA 
HETATM   25  C   UNL     3     -11.222  14.186  64.931  1.00  0.00    -0.373 C  
HETATM   26  C   UNL     3     -10.679  14.335  66.145  1.00  0.00    -0.295 C  
HETATM   27  O   UNL     3     -11.874  15.153  64.200  1.00  0.00    -0.728 OA 
HETATM   28  O   UNL     3      -9.905  12.332  65.298  1.00  0.00    -0.250 OA 
HETATM   29  C   UNL     3     -10.732  12.926  64.369  1.00  0.00    -0.386 C  
HETATM   30  O   UNL     3     -10.491  15.290  66.934  1.00  0.00    -0.277 OA 
HETATM   31  H   UNL     3     -12.191  15.971  64.564  1.00  0.00     0.000 HD 
ENDBRANCH  20  23
ENDBRANCH   7  20
TORSDOF 4
ENDMDL
MODEL      137
REMARK 921   NORMALIZED FREE ENERGY PREDICTED BY IDOCK:   -5.13 KCAL/MOL
REMARK 922        TOTAL FREE ENERGY PREDICTED BY IDOCK:   -8.25 KCAL/MOL
REMARK 923 INTER-LIGAND FREE ENERGY PREDICTED BY IDOCK:   -6.61 KCAL/MOL
REMARK 924 INTRA-LIGAND FREE ENERGY PREDICTED BY IDOCK:   -1.64 KCAL/MOL
REMARK 927      BINDING AFFINITY PREDICTED BY RF-SCORE:    0.00 PKD
ROOT
HETATM    1 CA   UNL     1      -8.114  10.150  67.186  1.00  0.00    -0.108 Ca 
HETATM    2  O   UNL     2     -10.579  16.347  65.066  1.00  0.00    -0.651 OA 
HETATM    3  C   UNL     2     -10.098  15.001  65.162  1.00  0.00    -0.315 C  
HETATM    4  H   UNL     2     -10.810  16.501  64.158  1.00  0.00     0.000 HD 
HETATM    5  O   UNL     3     -12.824  10.567  69.893  1.00  0.00    -0.513 OA 
HETATM    6  H   UNL     3     -13.434  11.166  70.306  1.00  0.00     0.000 HD 
HETATM    7  C   UNL     3     -11.724  10.386  70.829  1.00  0.00    -0.368 C  
ENDROOT
BRANCH   3   8
HETATM    8  C   UNL     2      -9.731  14.756  66.607  1.00  0.00    -0.267 C  
HETATM    9  H   UNL     2      -8.484  15.555  67.897  1.00  0.00     0.000 HD 
HETATM   10  O   UNL     2      -8.715  15.710  66.989  1.00  0.00    -0.196 OA 
BRANCH   8  11
HETATM   11  C   UNL     2      -9.215  13.342  66.945  1.00  0.00    -0.241 C  
HETATM   12  C   UNL     2     -10.000  12.123  66.531  1.00  0.00    -0.213 C  
HETATM   13  O   UNL     2      -9.416  13.258  68.360  1.00  0.00    -0.214 OA 
HETATM   14  O   UNL     2     -11.462  13.231  69.435  1.00  0.00    -0.267 OA 
HETATM   15  H   UNL     2     -12.240  10.520  66.657  1.00  0.00     0.000 HD 
HETATM   16  O   UNL     2      -9.488  11.341  65.684  1.00  0.00    -0.217 OA 
HETATM   17  C   UNL     2     -10.744  12.970  68.496  1.00  0.00    -0.255 C  
HETATM   18  C   UNL     2     -11.070  12.065  67.359  1.00  0.00    -0.281 C  
HETATM   19  O   UNL     2     -12.032  11.097  67.382  1.00  0.00    -0.532 OA 
ENDBRANCH   8  11
ENDBRANCH   3   8
BRANCH   7  20
HETATM   20  C   UNL     3     -10.740   9.418  70.162  1.00  0.00    -0.243 C  
HETATM   21  O   UNL     3     -11.398   8.194  69.841  1.00  0.00    -0.450 OA 
HETATM   22  H   UNL     3     -10.789   7.595  69.427  1.00  0.00     0.000 HD 
BRANCH  20  23
HETATM   23  C   UNL     3      -9.307   9.200  70.722  1.00  0.00    -0.264 C  
HETATM   24  O   UNL     3      -8.488   7.340  73.527  1.00  0.00    -0.122 OA 
HETATM   25  C   UNL     3      -8.073   7.306  71.170  1.00  0.00    -0.102 C  
HETATM   26  C   UNL     3      -8.317   8.207  70.210  1.00  0.00    -0.124 C  
HETATM   27  O   UNL     3      -7.173   6.267  71.110  1.00  0.00    -0.075 OA 
HETATM   28  O   UNL     3      -9.303   8.994  72.144  1.00  0.00    -0.356 OA 
HETATM   29  C   UNL     3      -8.679   7.794  72.411  1.00  0.00    -0.137 C  
HETATM   30  O   UNL     3      -7.830   8.478  69.088  1.00  0.00    -0.096 OA 
HETATM   31  H   UNL     3      -6.779   5.950  70.305  1.00  0.00     0.000 HD 
ENDBRANCH  20  23
ENDBRANCH   7  20
TORSDOF 4
ENDMDL
MODEL      138
REMARK 921   NORMALIZED FREE ENERGY PREDICTED BY IDOCK:   -5.13 KCAL/MOL
REMARK 922        TOTAL FREE ENERGY PREDICTED BY IDOCK:   -8.25 KCAL/MOL
REMARK 923 INTER-LIGAND FREE ENERGY PREDICTED BY IDOCK:   -7.10 KCAL/MOL
REMARK 924 INTRA-LIGAND FREE ENERGY PREDICTED BY IDOCK:   -1.15 KCAL/MOL
REMARK 927      BINDING AFFINITY PREDICTED BY RF-SCORE:    0.00 PKD
ROOT
HETATM    1 CA   UNL     1     -13.024  10.235  68.934  1.00  0.00    -0.482 Ca 
HETATM    2  O   UNL     2      -7.786   5.705  69.939  1.00  0.00    -0.079 OA 
HETATM    3  C   UNL     2      -8.990   6.373  69.544  1.00  0.00    -0.136 C  
HETATM    4  H   UNL     2      -7.783   4.853  69.519  1.00  0.00     0.000 HD 
HETATM    5  O   UNL     3      -8.747  12.839  66.788  1.00  0.00    -0.313 OA 
HETATM    6  H   UNL     3      -7.809  12.978  66.850  1.00  0.00     0.000 HD 
HETATM    7  C   UNL     3      -9.354  13.652  67.832  1.00  0.00    -0.206 C  
ENDROOT
BRANCH   3   8
HETATM    8  C   UNL     2      -8.993   7.728  70.212  1.00  0.00    -0.148 C  
HETATM    9  H   UNL     2      -7.638   9.073  70.673  1.00  0.00     0.000 HD 
HETATM   10  O   UNL     2      -7.636   8.221  70.252  1.00  0.00    -0.068 OA 
BRANCH   8  11
HETATM   11  C   UNL     2      -9.566   7.776  71.645  1.00  0.00    -0.155 C  
HETATM   12  C   UNL     2     -10.971   7.306  71.922  1.00  0.00    -0.230 C  
HETATM   13  O   UNL     2      -9.760   9.178  71.863  1.00  0.00    -0.282 OA 
HETATM   14  O   UNL     2     -11.279  10.521  70.753  1.00  0.00    -0.300 OA 
HETATM   15  H   UNL     2     -13.704   7.517  71.627  1.00  0.00     0.000 HD 
HETATM   16  O   UNL     2     -11.128   6.288  72.650  1.00  0.00    -0.242 OA 
HETATM   17  C   UNL     2     -10.933   9.460  71.223  1.00  0.00    -0.370 C  
HETATM   18  C   UNL     2     -11.793   8.262  71.427  1.00  0.00    -0.293 C  
HETATM   19  O   UNL     2     -13.156   8.281  71.496  1.00  0.00    -0.325 OA 
ENDBRANCH   8  11
ENDBRANCH   3   8
BRANCH   7  20
HETATM   20  C   UNL     3     -10.867  13.428  67.732  1.00  0.00    -0.252 C  
HETATM   21  O   UNL     3     -11.248  13.256  66.369  1.00  0.00    -0.292 OA 
HETATM   22  H   UNL     3     -12.186  13.116  66.307  1.00  0.00     0.000 HD 
BRANCH  20  23
HETATM   23  C   UNL     3     -11.874  14.300  68.532  1.00  0.00    -0.347 C  
HETATM   24  O   UNL     3     -12.758  13.847  71.851  1.00  0.00    -0.316 OA 
HETATM   25  C   UNL     3     -11.694  15.502  70.490  1.00  0.00    -0.349 C  
HETATM   26  C   UNL     3     -11.571  15.619  69.162  1.00  0.00    -0.383 C  
HETATM   27  O   UNL     3     -11.557  16.510  71.418  1.00  0.00    -0.610 OA 
HETATM   28  O   UNL     3     -12.528  13.559  69.576  1.00  0.00    -0.205 OA 
HETATM   29  C   UNL     3     -12.312  14.206  70.773  1.00  0.00    -0.369 C  
HETATM   30  O   UNL     3     -11.406  16.562  68.354  1.00  0.00    -0.348 OA 
HETATM   31  H   UNL     3     -11.156  17.351  71.233  1.00  0.00     0.000 HD 
ENDBRANCH  20  23
ENDBRANCH   7  20
TORSDOF 4
ENDMDL
MODEL      139
REMARK 921   NORMALIZED FREE ENERGY PREDICTED BY IDOCK:   -5.12 KCAL/MOL
REMARK 922        TOTAL FREE ENERGY PREDICTED BY IDOCK:   -8.24 KCAL/MOL
REMARK 923 INTER-LIGAND FREE ENERGY PREDICTED BY IDOCK:   -6.60 KCAL/MOL
REMARK 924 INTRA-LIGAND FREE ENERGY PREDICTED BY IDOCK:   -1.64 KCAL/MOL
REMARK 927      BINDING AFFINITY PREDICTED BY RF-SCORE:    0.00 PKD
ROOT
HETATM    1 CA   UNL     1      -8.108  13.523  69.761  1.00  0.00    -0.315 Ca 
HETATM    2  O   UNL     2      -9.619   7.147  72.216  1.00  0.00    -0.143 OA 
HETATM    3  C   UNL     2      -9.423   8.553  72.026  1.00  0.00    -0.294 C  
HETATM    4  H   UNL     2     -10.006   7.028  73.075  1.00  0.00     0.000 HD 
HETATM    5  O   UNL     3     -11.912  11.759  66.282  1.00  0.00    -0.490 OA 
HETATM    6  H   UNL     3     -12.276  10.997  65.847  1.00  0.00     0.000 HD 
HETATM    7  C   UNL     3     -10.696  12.105  65.559  1.00  0.00    -0.283 C  
ENDROOT
BRANCH   3   8
HETATM    8  C   UNL     2      -8.807   8.741  70.659  1.00  0.00    -0.182 C  
HETATM    9  H   UNL     2      -6.988   8.977  69.956  1.00  0.00     0.000 HD 
HETATM   10  O   UNL     2      -7.376   8.858  70.815  1.00  0.00    -0.068 OA 
BRANCH   8  11
HETATM   11  C   UNL     2      -9.305   9.960  69.853  1.00  0.00    -0.216 C  
HETATM   12  C   UNL     2     -10.492   9.833  68.932  1.00  0.00    -0.214 C  
HETATM   13  O   UNL     2      -8.282  10.128  68.865  1.00  0.00    -0.107 OA 
HETATM   14  O   UNL     2      -7.802   8.653  67.152  1.00  0.00    -0.095 OA 
HETATM   15  H   UNL     2     -11.732   8.794  66.699  1.00  0.00     0.000 HD 
HETATM   16  O   UNL     2     -11.538  10.480  69.212  1.00  0.00    -0.261 OA 
HETATM   17  C   UNL     2      -8.573   9.191  67.916  1.00  0.00    -0.121 C  
HETATM   18  C   UNL     2     -10.059   9.138  67.853  1.00  0.00    -0.199 C  
HETATM   19  O   UNL     2     -10.784   8.828  66.739  1.00  0.00    -0.206 OA 
ENDBRANCH   8  11
ENDBRANCH   3   8
BRANCH   7  20
HETATM   20  C   UNL     3     -10.109  13.335  66.261  1.00  0.00    -0.294 C  
HETATM   21  O   UNL     3      -9.380  12.937  67.420  1.00  0.00    -0.182 OA 
HETATM   22  H   UNL     3      -9.016  13.699  67.855  1.00  0.00     0.000 HD 
BRANCH  20  23
HETATM   23  C   UNL     3     -10.952  14.619  66.494  1.00  0.00    -0.318 C  
HETATM   24  O   UNL     3     -12.142  15.736  69.550  1.00  0.00    -0.353 OA 
HETATM   25  C   UNL     3     -10.648  16.471  67.832  1.00  0.00    -0.329 C  
HETATM   26  C   UNL     3     -10.411  16.007  66.599  1.00  0.00    -0.298 C  
HETATM   27  O   UNL     3     -10.357  17.731  68.303  1.00  0.00    -0.355 OA 
HETATM   28  O   UNL     3     -11.824  14.500  67.631  1.00  0.00    -0.371 OA 
HETATM   29  C   UNL     3     -11.555  15.535  68.499  1.00  0.00    -0.368 C  
HETATM   30  O   UNL     3      -9.986  16.489  65.524  1.00  0.00    -0.541 OA 
HETATM   31  H   UNL     3      -9.769  18.338  67.870  1.00  0.00     0.000 HD 
ENDBRANCH  20  23
ENDBRANCH   7  20
TORSDOF 4
ENDMDL
MODEL      140
REMARK 921   NORMALIZED FREE ENERGY PREDICTED BY IDOCK:   -5.11 KCAL/MOL
REMARK 922        TOTAL FREE ENERGY PREDICTED BY IDOCK:   -8.23 KCAL/MOL
REMARK 923 INTER-LIGAND FREE ENERGY PREDICTED BY IDOCK:   -8.13 KCAL/MOL
REMARK 924 INTRA-LIGAND FREE ENERGY PREDICTED BY IDOCK:   -0.10 KCAL/MOL
REMARK 927      BINDING AFFINITY PREDICTED BY RF-SCORE:    0.00 PKD
ROOT
HETATM    1 CA   UNL     1     -10.984  15.072  64.266  1.00  0.00    -0.415 Ca 
HETATM    2  O   UNL     2      -6.799  16.860  69.582  1.00  0.00    -0.196 OA 
HETATM    3  C   UNL     2      -7.900  16.637  68.695  1.00  0.00    -0.234 C  
HETATM    4  H   UNL     2      -7.146  17.263  70.369  1.00  0.00     0.000 HD 
HETATM    5  O   UNL     3      -9.026  10.268  65.931  1.00  0.00    -0.150 OA 
HETATM    6  H   UNL     3      -8.278   9.821  66.310  1.00  0.00     0.000 HD 
HETATM    7  C   UNL     3      -8.716  10.473  64.524  1.00  0.00    -0.180 C  
ENDROOT
BRANCH   3   8
HETATM    8  C   UNL     2      -7.348  15.996  67.443  1.00  0.00    -0.184 C  
HETATM    9  H   UNL     2      -5.564  15.504  66.784  1.00  0.00     0.000 HD 
HETATM   10  O   UNL     2      -5.911  15.907  67.572  1.00  0.00    -0.144 OA 
BRANCH   8  11
HETATM   11  C   UNL     2      -7.669  16.713  66.115  1.00  0.00    -0.113 C  
HETATM   12  C   UNL     2      -8.225  18.114  66.119  1.00  0.00    -0.140 C  
HETATM   13  O   UNL     2      -8.833  16.019  65.652  1.00  0.00    -0.281 OA 
HETATM   14  O   UNL     2     -10.912  16.044  66.661  1.00  0.00    -0.234 OA 
HETATM   15  H   UNL     2     -10.205  19.938  66.716  1.00  0.00     0.000 HD 
HETATM   16  O   UNL     2      -7.519  19.039  65.631  1.00  0.00    -0.466 OA 
HETATM   17  C   UNL     2      -9.859  16.565  66.369  1.00  0.00    -0.293 C  
HETATM   18  C   UNL     2      -9.515  18.006  66.517  1.00  0.00    -0.301 C  
HETATM   19  O   UNL     2     -10.424  19.019  66.622  1.00  0.00    -0.389 OA 
ENDBRANCH   8  11
ENDBRANCH   3   8
BRANCH   7  20
HETATM   20  C   UNL     3      -9.923  11.194  63.913  1.00  0.00    -0.329 C  
HETATM   21  O   UNL     3      -9.513  12.433  63.336  1.00  0.00    -0.650 OA 
HETATM   22  H   UNL     3     -10.261  12.879  62.957  1.00  0.00     0.000 HD 
BRANCH  20  23
HETATM   23  C   UNL     3     -11.275  11.303  64.671  1.00  0.00    -0.082 C  
HETATM   24  O   UNL     3     -11.789  12.961  67.669  1.00  0.00    -0.356 OA 
HETATM   25  C   UNL     3     -12.523  13.100  65.396  1.00  0.00    -0.481 C  
HETATM   26  C   UNL     3     -12.371  12.268  64.358  1.00  0.00    -0.404 C  
HETATM   27  O   UNL     3     -13.470  14.091  65.520  1.00  0.00    -0.705 OA 
HETATM   28  O   UNL     3     -11.094  11.431  66.091  1.00  0.00    -0.278 OA 
HETATM   29  C   UNL     3     -11.731  12.579  66.512  1.00  0.00    -0.391 C  
HETATM   30  O   UNL     3     -12.992  12.032  63.297  1.00  0.00    -0.736 OA 
HETATM   31  H   UNL     3     -13.985  14.428  64.795  1.00  0.00     0.000 HD 
ENDBRANCH  20  23
ENDBRANCH   7  20
TORSDOF 4
ENDMDL
MODEL      141
REMARK 921   NORMALIZED FREE ENERGY PREDICTED BY IDOCK:   -5.10 KCAL/MOL
REMARK 922        TOTAL FREE ENERGY PREDICTED BY IDOCK:   -8.22 KCAL/MOL
REMARK 923 INTER-LIGAND FREE ENERGY PREDICTED BY IDOCK:   -6.80 KCAL/MOL
REMARK 924 INTRA-LIGAND FREE ENERGY PREDICTED BY IDOCK:   -1.42 KCAL/MOL
REMARK 927      BINDING AFFINITY PREDICTED BY RF-SCORE:    0.00 PKD
ROOT
HETATM    1 CA   UNL     1      -9.176   8.992  66.833  1.00  0.00    -0.122 Ca 
HETATM    2  O   UNL     2     -10.575   7.506  73.527  1.00  0.00    -0.373 OA 
HETATM    3  C   UNL     2      -9.997   7.634  72.223  1.00  0.00    -0.190 C  
HETATM    4  H   UNL     2      -9.950   7.040  74.070  1.00  0.00     0.000 HD 
HETATM    5  O   UNL     3      -9.563  13.926  69.111  1.00  0.00    -0.409 OA 
HETATM    6  H   UNL     3      -9.992  14.441  69.784  1.00  0.00     0.000 HD 
HETATM    7  C   UNL     3     -10.516  13.805  68.016  1.00  0.00    -0.244 C  
ENDROOT
BRANCH   3   8
HETATM    8  C   UNL     2     -10.991   8.375  71.360  1.00  0.00    -0.253 C  
HETATM    9  H   UNL     2     -12.916   8.236  70.994  1.00  0.00     0.000 HD 
HETATM   10  O   UNL     2     -12.291   7.770  71.537  1.00  0.00    -0.302 OA 
BRANCH   8  11
HETATM   11  C   UNL     2     -10.680   8.416  69.849  1.00  0.00    -0.227 C  
HETATM   12  C   UNL     2      -9.343   8.909  69.357  1.00  0.00    -0.153 C  
HETATM   13  O   UNL     2     -11.494   9.498  69.385  1.00  0.00    -0.027 OA 
HETATM   14  O   UNL     2     -11.221  11.726  69.934  1.00  0.00    -0.164 OA 
HETATM   15  H   UNL     2      -7.457  10.894  69.036  1.00  0.00     0.000 HD 
HETATM   16  O   UNL     2      -8.581   8.090  68.775  1.00  0.00    -0.127 OA 
HETATM   17  C   UNL     2     -10.786  10.618  69.714  1.00  0.00    -0.230 C  
HETATM   18  C   UNL     2      -9.356  10.254  69.518  1.00  0.00    -0.178 C  
HETATM   19  O   UNL     2      -8.369  11.127  69.161  1.00  0.00    -0.097 OA 
ENDBRANCH   8  11
ENDBRANCH   3   8
BRANCH   7  20
HETATM   20  C   UNL     3      -9.825  12.974  66.929  1.00  0.00    -0.240 C  
HETATM   21  O   UNL     3      -9.158  13.833  66.006  1.00  0.00    -0.484 OA 
HETATM   22  H   UNL     3      -8.729  13.318  65.332  1.00  0.00     0.000 HD 
BRANCH  20  23
HETATM   23  C   UNL     3     -10.544  11.786  66.232  1.00  0.00    -0.252 C  
HETATM   24  O   UNL     3     -13.370  12.014  64.242  1.00  0.00    -0.709 OA 
HETATM   25  C   UNL     3     -11.080  11.353  64.033  1.00  0.00    -0.322 C  
HETATM   26  C   UNL     3     -10.124  11.150  64.948  1.00  0.00    -0.289 C  
HETATM   27  O   UNL     3     -11.096  10.871  62.744  1.00  0.00    -0.644 OA 
HETATM   28  O   UNL     3     -11.950  12.027  66.057  1.00  0.00    -0.559 OA 
HETATM   29  C   UNL     3     -12.253  11.898  64.719  1.00  0.00    -0.027 C  
HETATM   30  O   UNL     3      -9.077  10.466  65.017  1.00  0.00    -0.176 OA 
HETATM   31  H   UNL     3     -10.335  10.517  62.299  1.00  0.00     0.000 HD 
ENDBRANCH  20  23
ENDBRANCH   7  20
TORSDOF 4
ENDMDL
MODEL      142
REMARK 921   NORMALIZED FREE ENERGY PREDICTED BY IDOCK:   -5.10 KCAL/MOL
REMARK 922        TOTAL FREE ENERGY PREDICTED BY IDOCK:   -8.21 KCAL/MOL
REMARK 923 INTER-LIGAND FREE ENERGY PREDICTED BY IDOCK:   -7.12 KCAL/MOL
REMARK 924 INTRA-LIGAND FREE ENERGY PREDICTED BY IDOCK:   -1.09 KCAL/MOL
REMARK 927      BINDING AFFINITY PREDICTED BY RF-SCORE:    0.00 PKD
ROOT
HETATM    1 CA   UNL     1     -10.020   6.195  68.902  1.00  0.00    -0.132 Ca 
HETATM    2  O   UNL     2      -9.347  11.426  64.303  1.00  0.00    -0.368 OA 
HETATM    3  C   UNL     2      -9.554  10.170  64.959  1.00  0.00    -0.299 C  
HETATM    4  H   UNL     2      -9.509  11.292  63.376  1.00  0.00     0.000 HD 
HETATM    5  O   UNL     3     -13.886   9.696  70.479  1.00  0.00    -0.504 OA 
HETATM    6  H   UNL     3     -14.127  10.612  70.542  1.00  0.00     0.000 HD 
HETATM    7  C   UNL     3     -12.970   9.434  71.580  1.00  0.00    -0.391 C  
ENDROOT
BRANCH   3   8
HETATM    8  C   UNL     2      -9.298  10.384  66.432  1.00  0.00    -0.164 C  
HETATM    9  H   UNL     2      -8.846   9.238  67.963  1.00  0.00     0.000 HD 
HETATM   10  O   UNL     2      -9.007   9.104  67.036  1.00  0.00    -0.121 OA 
BRANCH   8  11
HETATM   11  C   UNL     2     -10.442  11.044  67.231  1.00  0.00    -0.231 C  
HETATM   12  C   UNL     2     -11.031  12.356  66.779  1.00  0.00    -0.263 C  
HETATM   13  O   UNL     2      -9.781  11.500  68.417  1.00  0.00    -0.191 OA 
HETATM   14  O   UNL     2      -8.180  13.163  68.516  1.00  0.00    -0.145 OA 
HETATM   15  H   UNL     2     -10.832  15.059  66.272  1.00  0.00     0.000 HD 
HETATM   16  O   UNL     2     -12.233  12.373  66.400  1.00  0.00    -0.604 OA 
HETATM   17  C   UNL     2      -9.172  12.662  68.038  1.00  0.00    -0.208 C  
HETATM   18  C   UNL     2     -10.109  13.304  67.075  1.00  0.00    -0.242 C  
HETATM   19  O   UNL     2     -10.234  14.650  66.886  1.00  0.00    -0.257 OA 
ENDBRANCH   8  11
ENDBRANCH   3   8
BRANCH   7  20
HETATM   20  C   UNL     3     -12.580   7.955  71.479  1.00  0.00    -0.321 C  
HETATM   21  O   UNL     3     -13.485   7.156  72.239  1.00  0.00    -0.511 OA 
HETATM   22  H   UNL     3     -13.244   6.240  72.176  1.00  0.00     0.000 HD 
BRANCH  20  23
HETATM   23  C   UNL     3     -11.104   7.490  71.622  1.00  0.00    -0.239 C  
HETATM   24  O   UNL     3      -8.301   9.424  70.988  1.00  0.00    -0.294 OA 
HETATM   25  C   UNL     3      -9.320   8.297  72.836  1.00  0.00    -0.254 C  
HETATM   26  C   UNL     3     -10.334   7.426  72.899  1.00  0.00    -0.279 C  
HETATM   27  O   UNL     3      -8.346   8.492  73.789  1.00  0.00    -0.362 OA 
HETATM   28  O   UNL     3     -10.225   8.184  70.721  1.00  0.00    -0.192 OA 
HETATM   29  C   UNL     3      -9.225   8.780  71.457  1.00  0.00    -0.262 C  
HETATM   30  O   UNL     3     -10.689   6.515  73.682  1.00  0.00    -0.285 OA 
HETATM   31  H   UNL     3      -8.407   8.177  74.684  1.00  0.00     0.000 HD 
ENDBRANCH  20  23
ENDBRANCH   7  20
TORSDOF 4
ENDMDL
MODEL      143
REMARK 921   NORMALIZED FREE ENERGY PREDICTED BY IDOCK:   -5.09 KCAL/MOL
REMARK 922        TOTAL FREE ENERGY PREDICTED BY IDOCK:   -8.21 KCAL/MOL
REMARK 923 INTER-LIGAND FREE ENERGY PREDICTED BY IDOCK:   -6.80 KCAL/MOL
REMARK 924 INTRA-LIGAND FREE ENERGY PREDICTED BY IDOCK:   -1.41 KCAL/MOL
REMARK 927      BINDING AFFINITY PREDICTED BY RF-SCORE:    0.00 PKD
ROOT
HETATM    1 CA   UNL     1     -10.951  14.310  69.480  1.00  0.00    -0.217 Ca 
HETATM    2  O   UNL     2      -6.075  18.649  66.956  1.00  0.00    -0.164 OA 
HETATM    3  C   UNL     2      -6.884  17.786  67.763  1.00  0.00    -0.182 C  
HETATM    4  H   UNL     2      -5.335  18.921  67.486  1.00  0.00     0.000 HD 
HETATM    5  O   UNL     3      -8.745  11.420  65.422  1.00  0.00    -0.378 OA 
HETATM    6  H   UNL     3      -8.340  11.466  64.564  1.00  0.00     0.000 HD 
HETATM    7  C   UNL     3     -10.178  11.566  65.209  1.00  0.00    -0.267 C  
ENDROOT
BRANCH   3   8
HETATM    8  C   UNL     2      -8.060  17.352  66.919  1.00  0.00    -0.227 C  
HETATM    9  H   UNL     2      -8.632  17.620  65.059  1.00  0.00     0.000 HD 
HETATM   10  O   UNL     2      -7.892  17.892  65.590  1.00  0.00    -0.534 OA 
BRANCH   8  11
HETATM   11  C   UNL     2      -9.454  17.769  67.435  1.00  0.00    -0.254 C  
HETATM   12  C   UNL     2     -10.368  16.753  68.072  1.00  0.00    -0.317 C  
HETATM   13  O   UNL     2     -10.188  17.990  66.225  1.00  0.00    -0.363 OA 
HETATM   14  O   UNL     2     -10.772  16.371  64.683  1.00  0.00    -0.693 OA 
HETATM   15  H   UNL     2     -11.915  14.473  67.963  1.00  0.00     0.000 HD 
HETATM   16  O   UNL     2     -10.653  16.889  69.293  1.00  0.00    -0.336 OA 
HETATM   17  C   UNL     2     -10.547  16.738  65.815  1.00  0.00    -0.250 C  
HETATM   18  C   UNL     2     -10.834  15.979  67.063  1.00  0.00    -0.227 C  
HETATM   19  O   UNL     2     -11.732  14.957  67.167  1.00  0.00    -0.356 OA 
ENDBRANCH   8  11
ENDBRANCH   3   8
BRANCH   7  20
HETATM   20  C   UNL     3     -10.833  11.491  66.594  1.00  0.00    -0.287 C  
HETATM   21  O   UNL     3     -10.437  12.611  67.384  1.00  0.00    -0.222 OA 
HETATM   22  H   UNL     3     -10.843  12.565  68.241  1.00  0.00     0.000 HD 
BRANCH  20  23
HETATM   23  C   UNL     3     -10.871  10.167  67.405  1.00  0.00    -0.261 C  
HETATM   24  O   UNL     3      -8.356   7.787  67.519  1.00  0.00    -0.119 OA 
HETATM   25  C   UNL     3      -9.482   9.277  69.015  1.00  0.00    -0.155 C  
HETATM   26  C   UNL     3     -10.577  10.033  68.863  1.00  0.00    -0.218 C  
HETATM   27  O   UNL     3      -8.925   8.871  70.207  1.00  0.00    -0.156 OA 
HETATM   28  O   UNL     3     -10.083   9.131  66.795  1.00  0.00    -0.232 OA 
HETATM   29  C   UNL     3      -9.160   8.684  67.716  1.00  0.00    -0.135 C  
HETATM   30  O   UNL     3     -11.448  10.516  69.622  1.00  0.00    -0.247 OA 
HETATM   31  H   UNL     3      -9.135   9.256  71.050  1.00  0.00     0.000 HD 
ENDBRANCH  20  23
ENDBRANCH   7  20
TORSDOF 4
ENDMDL
MODEL      144
REMARK 921   NORMALIZED FREE ENERGY PREDICTED BY IDOCK:   -5.09 KCAL/MOL
REMARK 922        TOTAL FREE ENERGY PREDICTED BY IDOCK:   -8.20 KCAL/MOL
REMARK 923 INTER-LIGAND FREE ENERGY PREDICTED BY IDOCK:   -7.80 KCAL/MOL
REMARK 924 INTRA-LIGAND FREE ENERGY PREDICTED BY IDOCK:   -0.41 KCAL/MOL
REMARK 927      BINDING AFFINITY PREDICTED BY RF-SCORE:    0.00 PKD
ROOT
HETATM    1 CA   UNL     1     -12.427  12.255  70.380  1.00  0.00    -0.271 Ca 
HETATM    2  O   UNL     2     -10.433   5.580  69.724  1.00  0.00    -0.270 OA 
HETATM    3  C   UNL     2     -11.159   6.810  69.826  1.00  0.00    -0.316 C  
HETATM    4  H   UNL     2     -11.067   4.888  69.573  1.00  0.00     0.000 HD 
HETATM    5  O   UNL     3      -9.386  12.341  65.860  1.00  0.00    -0.367 OA 
HETATM    6  H   UNL     3      -8.638  11.958  65.418  1.00  0.00     0.000 HD 
HETATM    7  C   UNL     3      -8.850  13.276  66.840  1.00  0.00    -0.178 C  
ENDROOT
BRANCH   3   8
HETATM    8  C   UNL     2     -10.151   7.909  70.065  1.00  0.00    -0.199 C  
HETATM    9  H   UNL     2     -10.223   9.859  70.294  1.00  0.00     0.000 HD 
HETATM   10  O   UNL     2     -10.857   9.168  70.144  1.00  0.00    -0.228 OA 
BRANCH   8  11
HETATM   11  C   UNL     2      -9.036   8.048  69.007  1.00  0.00    -0.144 C  
HETATM   12  C   UNL     2      -7.844   7.125  69.027  1.00  0.00    -0.114 C  
HETATM   13  O   UNL     2      -8.378   9.260  69.395  1.00  0.00    -0.115 OA 
HETATM   14  O   UNL     2      -7.163   9.575  71.335  1.00  0.00    -0.330 OA 
HETATM   15  H   UNL     2      -5.561   6.134  70.214  1.00  0.00     0.000 HD 
HETATM   16  O   UNL     2      -7.689   6.328  68.062  1.00  0.00    -0.100 OA 
HETATM   17  C   UNL     2      -7.562   8.885  70.424  1.00  0.00    -0.088 C  
HETATM   18  C   UNL     2      -7.077   7.523  70.069  1.00  0.00    -0.060 C  
HETATM   19  O   UNL     2      -5.871   7.002  70.440  1.00  0.00    -0.023 OA 
ENDBRANCH   8  11
ENDBRANCH   3   8
BRANCH   7  20
HETATM   20  C   UNL     3     -10.058  13.895  67.554  1.00  0.00    -0.244 C  
HETATM   21  O   UNL     3     -10.389  13.129  68.710  1.00  0.00    -0.344 OA 
HETATM   22  H   UNL     3     -11.137  13.513  69.153  1.00  0.00     0.000 HD 
BRANCH  20  23
HETATM   23  C   UNL     3     -11.311  14.371  66.769  1.00  0.00    -0.352 C  
HETATM   24  O   UNL     3     -11.312  16.575  64.096  1.00  0.00    -1.060 OA 
HETATM   25  C   UNL     3     -11.884  14.294  64.538  1.00  0.00    -0.442 C  
HETATM   26  C   UNL     3     -11.997  13.610  65.684  1.00  0.00    -0.395 C  
HETATM   27  O   UNL     3     -12.435  13.955  63.323  1.00  0.00    -1.113 OA 
HETATM   28  O   UNL     3     -11.140  15.687  66.216  1.00  0.00    -0.258 OA 
HETATM   29  C   UNL     3     -11.354  15.621  64.856  1.00  0.00    -0.315 C  
HETATM   30  O   UNL     3     -12.630  12.600  66.068  1.00  0.00    -0.468 OA 
HETATM   31  H   UNL     3     -12.779  13.094  63.117  1.00  0.00     0.000 HD 
ENDBRANCH  20  23
ENDBRANCH   7  20
TORSDOF 4
ENDMDL
MODEL      145
REMARK 921   NORMALIZED FREE ENERGY PREDICTED BY IDOCK:   -5.08 KCAL/MOL
REMARK 922        TOTAL FREE ENERGY PREDICTED BY IDOCK:   -8.20 KCAL/MOL
REMARK 923 INTER-LIGAND FREE ENERGY PREDICTED BY IDOCK:   -7.16 KCAL/MOL
REMARK 924 INTRA-LIGAND FREE ENERGY PREDICTED BY IDOCK:   -1.04 KCAL/MOL
REMARK 927      BINDING AFFINITY PREDICTED BY RF-SCORE:    0.00 PKD
ROOT
HETATM    1 CA   UNL     1     -11.626   7.837  67.100  1.00  0.00    -0.510 Ca 
HETATM    2  O   UNL     2     -12.410  14.022  63.921  1.00  0.00    -0.728 OA 
HETATM    3  C   UNL     2     -12.488  12.655  64.340  1.00  0.00    -0.428 C  
HETATM    4  H   UNL     2     -13.043  14.141  63.223  1.00  0.00     0.000 HD 
HETATM    5  O   UNL     3     -13.398  11.050  71.128  1.00  0.00    -0.178 OA 
HETATM    6  H   UNL     3     -13.394  11.932  71.478  1.00  0.00     0.000 HD 
HETATM    7  C   UNL     3     -12.118  10.457  71.488  1.00  0.00    -0.270 C  
ENDROOT
BRANCH   3   8
HETATM    8  C   UNL     2     -11.481  12.466  65.451  1.00  0.00    -0.358 C  
HETATM    9  H   UNL     2     -10.695  13.604  66.846  1.00  0.00     0.000 HD 
HETATM   10  O   UNL     2     -11.329  13.722  66.148  1.00  0.00    -0.305 OA 
BRANCH   8  11
HETATM   11  C   UNL     2     -10.080  11.982  65.020  1.00  0.00    -0.264 C  
HETATM   12  C   UNL     2      -9.848  10.536  64.663  1.00  0.00    -0.340 C  
HETATM   13  O   UNL     2      -9.338  12.024  66.245  1.00  0.00    -0.224 OA 
HETATM   14  O   UNL     2      -9.702  10.683  68.091  1.00  0.00    -0.151 OA 
HETATM   15  H   UNL     2      -9.749   7.859  65.317  1.00  0.00     0.000 HD 
HETATM   16  O   UNL     2      -9.536  10.257  63.473  1.00  0.00    -0.293 OA 
HETATM   17  C   UNL     2      -9.699  10.879  66.896  1.00  0.00    -0.181 C  
HETATM   18  C   UNL     2      -9.862   9.852  65.831  1.00  0.00    -0.274 C  
HETATM   19  O   UNL     2      -9.645   8.515  65.996  1.00  0.00    -0.227 OA 
ENDBRANCH   8  11
ENDBRANCH   3   8
BRANCH   7  20
HETATM   20  C   UNL     3     -12.124   9.032  70.922  1.00  0.00    -0.198 C  
HETATM   21  O   UNL     3     -13.434   8.475  71.013  1.00  0.00    -0.533 OA 
HETATM   22  H   UNL     3     -13.438   7.592  70.663  1.00  0.00     0.000 HD 
BRANCH  20  23
HETATM   23  C   UNL     3     -11.010   8.009  71.280  1.00  0.00    -0.236 C  
HETATM   24  O   UNL     3     -10.393   5.027  69.629  1.00  0.00    -0.260 OA 
HETATM   25  C   UNL     3      -9.275   7.097  70.068  1.00  0.00    -0.144 C  
HETATM   26  C   UNL     3      -9.575   8.115  70.884  1.00  0.00    -0.162 C  
HETATM   27  O   UNL     3      -8.039   6.808  69.537  1.00  0.00    -0.122 OA 
HETATM   28  O   UNL     3     -11.371   6.664  70.923  1.00  0.00    -0.285 OA 
HETATM   29  C   UNL     3     -10.398   6.157  70.089  1.00  0.00    -0.212 C  
HETATM   30  O   UNL     3      -8.931   9.012  71.475  1.00  0.00    -0.273 OA 
HETATM   31  H   UNL     3      -7.310   7.418  69.524  1.00  0.00     0.000 HD 
ENDBRANCH  20  23
ENDBRANCH   7  20
TORSDOF 4
ENDMDL
MODEL      146
REMARK 921   NORMALIZED FREE ENERGY PREDICTED BY IDOCK:   -5.07 KCAL/MOL
REMARK 922        TOTAL FREE ENERGY PREDICTED BY IDOCK:   -8.18 KCAL/MOL
REMARK 923 INTER-LIGAND FREE ENERGY PREDICTED BY IDOCK:   -6.97 KCAL/MOL
REMARK 924 INTRA-LIGAND FREE ENERGY PREDICTED BY IDOCK:   -1.21 KCAL/MOL
REMARK 927      BINDING AFFINITY PREDICTED BY RF-SCORE:    0.00 PKD
ROOT
HETATM    1 CA   UNL     1      -8.794  13.728  66.167  1.00  0.00    -0.329 Ca 
HETATM    2  O   UNL     2      -8.620  20.662  67.093  1.00  0.00    -0.494 OA 
HETATM    3  C   UNL     2      -8.709  19.331  66.572  1.00  0.00    -0.345 C  
HETATM    4  H   UNL     2      -8.774  21.260  66.371  1.00  0.00     0.000 HD 
HETATM    5  O   UNL     3     -12.948  14.595  69.585  1.00  0.00    -0.520 OA 
HETATM    6  H   UNL     3     -13.270  15.134  70.298  1.00  0.00     0.000 HD 
HETATM    7  C   UNL     3     -12.005  13.654  70.173  1.00  0.00    -0.337 C  
ENDROOT
BRANCH   3   8
HETATM    8  C   UNL     2      -8.464  18.380  67.720  1.00  0.00    -0.259 C  
HETATM    9  H   UNL     2      -7.009  18.070  69.004  1.00  0.00     0.000 HD 
HETATM   10  O   UNL     2      -7.164  18.668  68.282  1.00  0.00    -0.245 OA 
BRANCH   8  11
HETATM   11  C   UNL     2      -8.519  16.876  67.379  1.00  0.00    -0.190 C  
HETATM   12  C   UNL     2      -9.652  16.321  66.554  1.00  0.00    -0.264 C  
HETATM   13  O   UNL     2      -8.852  16.276  68.636  1.00  0.00    -0.204 OA 
HETATM   14  O   UNL     2     -10.852  16.528  69.765  1.00  0.00    -0.331 OA 
HETATM   15  H   UNL     2     -12.321  15.739  66.175  1.00  0.00     0.000 HD 
HETATM   16  O   UNL     2      -9.387  15.850  65.414  1.00  0.00    -0.323 OA 
HETATM   17  C   UNL     2     -10.201  16.454  68.747  1.00  0.00    -0.258 C  
HETATM   18  C   UNL     2     -10.736  16.304  67.366  1.00  0.00    -0.287 C  
HETATM   19  O   UNL     2     -11.979  15.835  67.056  1.00  0.00     0.374 OA 
ENDBRANCH   8  11
ENDBRANCH   3   8
BRANCH   7  20
HETATM   20  C   UNL     3     -11.485  12.784  69.023  1.00  0.00    -0.309 C  
HETATM   21  O   UNL     3     -11.754  13.414  67.772  1.00  0.00    -0.318 OA 
HETATM   22  H   UNL     3     -11.432  12.875  67.059  1.00  0.00     0.000 HD 
BRANCH  20  23
HETATM   23  C   UNL     3     -11.730  11.250  68.988  1.00  0.00    -0.342 C  
HETATM   24  O   UNL     3     -10.124   8.988  66.913  1.00  0.00    -0.221 OA 
HETATM   25  C   UNL     3     -10.335   9.435  69.254  1.00  0.00    -0.208 C  
HETATM   26  C   UNL     3     -11.145  10.255  69.935  1.00  0.00    -0.304 C  
HETATM   27  O   UNL     3      -9.656   8.349  69.757  1.00  0.00    -0.168 OA 
HETATM   28  O   UNL     3     -11.474  10.687  67.690  1.00  0.00    -0.474 OA 
HETATM   29  C   UNL     3     -10.539   9.684  67.825  1.00  0.00    -0.264 C  
HETATM   30  O   UNL     3     -11.611  10.296  71.096  1.00  0.00    -0.355 OA 
HETATM   31  H   UNL     3      -9.524   8.187  70.685  1.00  0.00     0.000 HD 
ENDBRANCH  20  23
ENDBRANCH   7  20
TORSDOF 4
ENDMDL
MODEL      147
REMARK 921   NORMALIZED FREE ENERGY PREDICTED BY IDOCK:   -5.07 KCAL/MOL
REMARK 922        TOTAL FREE ENERGY PREDICTED BY IDOCK:   -8.18 KCAL/MOL
REMARK 923 INTER-LIGAND FREE ENERGY PREDICTED BY IDOCK:   -7.95 KCAL/MOL
REMARK 924 INTRA-LIGAND FREE ENERGY PREDICTED BY IDOCK:   -0.23 KCAL/MOL
REMARK 927      BINDING AFFINITY PREDICTED BY RF-SCORE:    0.00 PKD
ROOT
HETATM    1 CA   UNL     1     -11.491  15.093  64.765  1.00  0.00    -0.320 Ca 
HETATM    2  O   UNL     2      -8.656   9.027  66.797  1.00  0.00    -0.120 OA 
HETATM    3  C   UNL     2      -9.028  10.225  66.107  1.00  0.00    -0.154 C  
HETATM    4  H   UNL     2      -7.978   8.602  66.284  1.00  0.00     0.000 HD 
HETATM    5  O   UNL     3      -9.042  16.413  69.450  1.00  0.00    -0.187 OA 
HETATM    6  H   UNL     3      -8.793  16.103  70.312  1.00  0.00     0.000 HD 
HETATM    7  C   UNL     3     -10.461  16.733  69.520  1.00  0.00    -0.263 C  
ENDROOT
BRANCH   3   8
HETATM    8  C   UNL     2     -10.105  10.900  66.924  1.00  0.00    -0.212 C  
HETATM    9  H   UNL     2     -12.011  10.580  67.277  1.00  0.00     0.000 HD 
HETATM   10  O   UNL     2     -11.333  10.156  66.763  1.00  0.00     0.028 OA 
BRANCH   8  11
HETATM   11  C   UNL     2     -10.389  12.378  66.582  1.00  0.00    -0.226 C  
HETATM   12  C   UNL     2     -11.795  12.837  66.287  1.00  0.00    -0.423 C  
HETATM   13  O   UNL     2      -9.838  12.513  65.267  1.00  0.00    -0.235 OA 
HETATM   14  O   UNL     2     -10.627  11.476  63.358  1.00  0.00    -0.381 OA 
HETATM   15  H   UNL     2     -14.082  12.819  64.746  1.00  0.00     0.000 HD 
HETATM   16  O   UNL     2     -12.338  13.650  67.084  1.00  0.00    -0.336 OA 
HETATM   17  C   UNL     2     -10.791  11.982  64.446  1.00  0.00    -0.329 C  
HETATM   18  C   UNL     2     -12.095  12.363  65.054  1.00  0.00    -0.407 C  
HETATM   19  O   UNL     2     -13.250  12.575  64.358  1.00  0.00    -0.782 OA 
ENDBRANCH   8  11
ENDBRANCH   3   8
BRANCH   7  20
HETATM   20  C   UNL     3     -10.864  17.234  68.128  1.00  0.00    -0.294 C  
HETATM   21  O   UNL     3     -10.629  16.218  67.155  1.00  0.00    -0.312 OA 
HETATM   22  H   UNL     3     -10.878  16.528  66.293  1.00  0.00     0.000 HD 
BRANCH  20  23
HETATM   23  C   UNL     3     -10.466  18.650  67.627  1.00  0.00    -0.423 C  
HETATM   24  O   UNL     3      -7.496  20.288  68.328  1.00  0.00    -0.246 OA 
HETATM   25  C   UNL     3      -8.665  19.435  66.423  1.00  0.00    -0.355 C  
HETATM   26  C   UNL     3      -9.911  18.969  66.278  1.00  0.00    -0.398 C  
HETATM   27  O   UNL     3      -7.840  19.896  65.422  1.00  0.00    -0.371 OA 
HETATM   28  O   UNL     3      -9.577  19.320  68.536  1.00  0.00    -0.355 OA 
HETATM   29  C   UNL     3      -8.437  19.678  67.849  1.00  0.00    -0.317 C  
HETATM   30  O   UNL     3     -10.731  18.872  65.335  1.00  0.00    -0.536 OA 
HETATM   31  H   UNL     3      -7.989  19.739  64.496  1.00  0.00     0.000 HD 
ENDBRANCH  20  23
ENDBRANCH   7  20
TORSDOF 4
ENDMDL
MODEL      148
REMARK 921   NORMALIZED FREE ENERGY PREDICTED BY IDOCK:   -5.07 KCAL/MOL
REMARK 922        TOTAL FREE ENERGY PREDICTED BY IDOCK:   -8.18 KCAL/MOL
REMARK 923 INTER-LIGAND FREE ENERGY PREDICTED BY IDOCK:   -7.30 KCAL/MOL
REMARK 924 INTRA-LIGAND FREE ENERGY PREDICTED BY IDOCK:   -0.87 KCAL/MOL
REMARK 927      BINDING AFFINITY PREDICTED BY RF-SCORE:    0.00 PKD
ROOT
HETATM    1 CA   UNL     1      -9.990   7.988  65.388  1.00  0.00    -0.434 Ca 
HETATM    2  O   UNL     2     -12.530  14.052  62.989  1.00  0.00    -1.101 OA 
HETATM    3  C   UNL     2     -12.341  12.709  63.451  1.00  0.00    -0.456 C  
HETATM    4  H   UNL     2     -13.459  14.166  62.822  1.00  0.00     0.000 HD 
HETATM    5  O   UNL     3      -8.890  11.450  69.449  1.00  0.00    -0.349 OA 
HETATM    6  H   UNL     3      -8.666  12.347  69.668  1.00  0.00     0.000 HD 
HETATM    7  C   UNL     3      -7.663  10.821  68.983  1.00  0.00    -0.133 C  
ENDROOT
BRANCH   3   8
HETATM    8  C   UNL     2     -10.865  12.528  63.718  1.00  0.00    -0.446 C  
HETATM    9  H   UNL     2      -9.477  11.261  63.147  1.00  0.00     0.000 HD 
HETATM   10  O   UNL     2     -10.406  11.375  62.979  1.00  0.00    -0.306 OA 
BRANCH   8  11
HETATM   11  C   UNL     2     -10.461  12.345  65.196  1.00  0.00    -0.292 C  
HETATM   12  C   UNL     2     -11.377  12.808  66.301  1.00  0.00    -0.320 C  
HETATM   13  O   UNL     2      -9.416  13.311  65.362  1.00  0.00     0.041 OA 
HETATM   14  O   UNL     2      -9.670  15.606  65.272  1.00  0.00    -0.320 OA 
HETATM   15  H   UNL     2     -12.699  14.792  67.687  1.00  0.00     0.000 HD 
HETATM   16  O   UNL     2     -11.879  11.939  67.064  1.00  0.00    -0.585 OA 
HETATM   17  C   UNL     2     -10.075  14.495  65.532  1.00  0.00    -0.366 C  
HETATM   18  C   UNL     2     -11.295  14.160  66.316  1.00  0.00    -0.338 C  
HETATM   19  O   UNL     2     -11.921  15.005  67.187  1.00  0.00    -0.234 OA 
ENDBRANCH   8  11
ENDBRANCH   3   8
BRANCH   7  20
HETATM   20  C   UNL     3      -8.024   9.373  68.629  1.00  0.00    -0.092 C  
HETATM   21  O   UNL     3      -7.645   9.089  67.283  1.00  0.00    -0.087 OA 
HETATM   22  H   UNL     3      -7.869   8.192  67.064  1.00  0.00     0.000 HD 
BRANCH  20  23
HETATM   23  C   UNL     3      -9.402   8.762  69.007  1.00  0.00    -0.145 C  
HETATM   24  O   UNL     3     -11.311   9.623  71.766  1.00  0.00    -0.347 OA 
HETATM   25  C   UNL     3     -11.477   9.692  69.380  1.00  0.00     0.093 C  
HETATM   26  C   UNL     3     -10.716   9.154  68.419  1.00  0.00    -0.115 C  
HETATM   27  O   UNL     3     -12.779  10.121  69.253  1.00  0.00    -0.308 OA 
HETATM   28  O   UNL     3      -9.636   8.783  70.425  1.00  0.00    -0.166 OA 
HETATM   29  C   UNL     3     -10.815   9.455  70.665  1.00  0.00    -0.283 C  
HETATM   30  O   UNL     3     -10.890   8.794  67.232  1.00  0.00    -0.214 OA 
HETATM   31  H   UNL     3     -13.208  10.275  68.419  1.00  0.00     0.000 HD 
ENDBRANCH  20  23
ENDBRANCH   7  20
TORSDOF 4
ENDMDL
MODEL      149
REMARK 921   NORMALIZED FREE ENERGY PREDICTED BY IDOCK:   -5.06 KCAL/MOL
REMARK 922        TOTAL FREE ENERGY PREDICTED BY IDOCK:   -8.17 KCAL/MOL
REMARK 923 INTER-LIGAND FREE ENERGY PREDICTED BY IDOCK:   -6.89 KCAL/MOL
REMARK 924 INTRA-LIGAND FREE ENERGY PREDICTED BY IDOCK:   -1.28 KCAL/MOL
REMARK 927      BINDING AFFINITY PREDICTED BY RF-SCORE:    0.00 PKD
ROOT
HETATM    1 CA   UNL     1     -10.549  10.712  68.428  1.00  0.00    -0.157 Ca 
HETATM    2  O   UNL     2      -5.137   6.858  66.228  1.00  0.00    -0.020 OA 
HETATM    3  C   UNL     2      -6.343   7.348  66.825  1.00  0.00    -0.045 C  
HETATM    4  H   UNL     2      -5.084   5.929  66.418  1.00  0.00     0.000 HD 
HETATM    5  O   UNL     3     -10.998  10.982  63.004  1.00  0.00    -0.798 OA 
HETATM    6  H   UNL     3     -10.520  10.995  62.184  1.00  0.00     0.000 HD 
HETATM    7  C   UNL     3     -10.891  12.322  63.564  1.00  0.00    -0.454 C  
ENDROOT
BRANCH   3   8
HETATM    8  C   UNL     2      -6.428   8.826  66.522  1.00  0.00    -0.063 C  
HETATM    9  H   UNL     2      -5.202  10.356  66.630  1.00  0.00     0.000 HD 
HETATM   10  O   UNL     2      -5.148   9.427  66.820  1.00  0.00    -0.033 OA 
BRANCH   8  11
HETATM   11  C   UNL     2      -7.518   9.612  67.281  1.00  0.00    -0.088 C  
HETATM   12  C   UNL     2      -8.709   8.896  67.866  1.00  0.00    -0.129 C  
HETATM   13  O   UNL     2      -8.186  10.323  66.233  1.00  0.00    -0.124 OA 
HETATM   14  O   UNL     2      -9.446   9.372  64.545  1.00  0.00    -0.129 OA 
HETATM   15  H   UNL     2     -11.019   7.413  67.604  1.00  0.00     0.000 HD 
HETATM   16  O   UNL     2      -8.841   8.881  69.120  1.00  0.00    -0.133 OA 
HETATM   17  C   UNL     2      -9.025   9.398  65.680  1.00  0.00    -0.193 C  
HETATM   18  C   UNL     2      -9.501   8.565  66.818  1.00  0.00    -0.194 C  
HETATM   19  O   UNL     2     -10.715   7.944  66.878  1.00  0.00    -0.333 OA 
ENDBRANCH   8  11
ENDBRANCH   3   8
BRANCH   7  20
HETATM   20  C   UNL     3     -11.662  12.302  64.889  1.00  0.00    -0.352 C  
HETATM   21  O   UNL     3     -13.034  12.617  64.662  1.00  0.00    -0.768 OA 
HETATM   22  H   UNL     3     -13.512  12.605  65.483  1.00  0.00     0.000 HD 
BRANCH  20  23
HETATM   23  C   UNL     3     -11.095  12.974  66.171  1.00  0.00    -0.287 C  
HETATM   24  O   UNL     3     -10.744  16.381  66.686  1.00  0.00    -0.278 OA 
HETATM   25  C   UNL     3     -11.953  14.543  67.626  1.00  0.00    -0.320 C  
HETATM   26  C   UNL     3     -11.857  13.222  67.431  1.00  0.00    -0.366 C  
HETATM   27  O   UNL     3     -12.527  15.173  68.706  1.00  0.00    -0.583 OA 
HETATM   28  O   UNL     3     -10.466  14.236  65.892  1.00  0.00    -0.287 OA 
HETATM   29  C   UNL     3     -11.066  15.205  66.667  1.00  0.00    -0.308 C  
HETATM   30  O   UNL     3     -12.124  12.194  68.095  1.00  0.00    -0.447 OA 
HETATM   31  H   UNL     3     -13.102  14.743  69.328  1.00  0.00     0.000 HD 
ENDBRANCH  20  23
ENDBRANCH   7  20
TORSDOF 4
ENDMDL
MODEL      150
REMARK 921   NORMALIZED FREE ENERGY PREDICTED BY IDOCK:   -5.04 KCAL/MOL
REMARK 922        TOTAL FREE ENERGY PREDICTED BY IDOCK:   -8.14 KCAL/MOL
REMARK 923 INTER-LIGAND FREE ENERGY PREDICTED BY IDOCK:   -7.57 KCAL/MOL
REMARK 924 INTRA-LIGAND FREE ENERGY PREDICTED BY IDOCK:   -0.57 KCAL/MOL
REMARK 927      BINDING AFFINITY PREDICTED BY RF-SCORE:    0.00 PKD
ROOT
HETATM    1 CA   UNL     1      -9.097  13.680  65.000  1.00  0.00    -0.459 Ca 
HETATM    2  O   UNL     2      -6.697   7.109  64.811  1.00  0.00    -0.045 OA 
HETATM    3  C   UNL     2      -6.851   8.533  64.829  1.00  0.00    -0.072 C  
HETATM    4  H   UNL     2      -5.765   6.924  64.791  1.00  0.00     0.000 HD 
HETATM    5  O   UNL     3     -10.799  11.634  69.755  1.00  0.00    -0.457 OA 
HETATM    6  H   UNL     3     -11.097  10.852  70.204  1.00  0.00     0.000 HD 
HETATM    7  C   UNL     3     -11.934  12.127  68.988  1.00  0.00    -0.247 C  
ENDROOT
BRANCH   3   8
HETATM    8  C   UNL     2      -8.332   8.825  64.863  1.00  0.00    -0.170 C  
HETATM    9  H   UNL     2      -9.694   9.344  63.545  1.00  0.00     0.000 HD 
HETATM   10  O   UNL     2      -8.762   9.159  63.524  1.00  0.00    -0.201 OA 
BRANCH   8  11
HETATM   11  C   UNL     2      -8.778   9.961  65.808  1.00  0.00    -0.141 C  
HETATM   12  C   UNL     2      -7.832  10.503  66.850  1.00  0.00    -0.117 C  
HETATM   13  O   UNL     2      -9.705   9.304  66.680  1.00  0.00    -0.183 OA 
HETATM   14  O   UNL     2      -9.183   7.655  68.212  1.00  0.00    -0.139 OA 
HETATM   15  H   UNL     2      -6.308  10.216  69.130  1.00  0.00     0.000 HD 
HETATM   16  O   UNL     2      -7.447  11.699  66.742  1.00  0.00    -0.142 OA 
HETATM   17  C   UNL     2      -8.915   8.655  67.586  1.00  0.00    -0.135 C  
HETATM   18  C   UNL     2      -7.755   9.558  67.817  1.00  0.00    -0.088 C  
HETATM   19  O   UNL     2      -7.048   9.640  68.982  1.00  0.00    -0.063 OA 
ENDBRANCH   8  11
ENDBRANCH   3   8
BRANCH   7  20
HETATM   20  C   UNL     3     -11.454  13.390  68.263  1.00  0.00    -0.315 C  
HETATM   21  O   UNL     3     -12.242  14.511  68.659  1.00  0.00    -0.545 OA 
HETATM   22  H   UNL     3     -11.945  15.294  68.211  1.00  0.00     0.000 HD 
BRANCH  20  23
HETATM   23  C   UNL     3     -11.138  13.385  66.742  1.00  0.00    -0.292 C  
HETATM   24  O   UNL     3     -13.244  12.247  64.238  1.00  0.00    -0.785 OA 
HETATM   25  C   UNL     3     -12.211  14.296  64.917  1.00  0.00    -0.440 C  
HETATM   26  C   UNL     3     -11.263  14.557  65.826  1.00  0.00    -0.334 C  
HETATM   27  O   UNL     3     -12.581  15.100  63.863  1.00  0.00    -0.947 OA 
HETATM   28  O   UNL     3     -11.819  12.327  66.047  1.00  0.00    -0.493 OA 
HETATM   29  C   UNL     3     -12.568  12.880  65.033  1.00  0.00    -0.472 C  
HETATM   30  O   UNL     3     -10.403  15.452  65.995  1.00  0.00    -0.287 OA 
HETATM   31  H   UNL     3     -12.349  16.019  63.788  1.00  0.00     0.000 HD 
ENDBRANCH  20  23
ENDBRANCH   7  20
TORSDOF 4
ENDMDL
MODEL      151
REMARK 921   NORMALIZED FREE ENERGY PREDICTED BY IDOCK:   -5.04 KCAL/MOL
REMARK 922        TOTAL FREE ENERGY PREDICTED BY IDOCK:   -8.14 KCAL/MOL
REMARK 923 INTER-LIGAND FREE ENERGY PREDICTED BY IDOCK:   -7.41 KCAL/MOL
REMARK 924 INTRA-LIGAND FREE ENERGY PREDICTED BY IDOCK:   -0.73 KCAL/MOL
REMARK 927      BINDING AFFINITY PREDICTED BY RF-SCORE:    0.00 PKD
ROOT
HETATM    1 CA   UNL     1      -9.789  15.035  63.721  1.00  0.00     0.145 Ca 
HETATM    2  O   UNL     2      -9.899  21.171  67.084  1.00  0.00    -0.579 OA 
HETATM    3  C   UNL     2     -10.158  20.044  66.239  1.00  0.00    -0.486 C  
HETATM    4  H   UNL     2     -10.590  21.805  66.932  1.00  0.00     0.000 HD 
HETATM    5  O   UNL     3     -10.410  13.549  68.927  1.00  0.00    -0.367 OA 
HETATM    6  H   UNL     3     -10.203  13.767  69.828  1.00  0.00     0.000 HD 
HETATM    7  C   UNL     3      -9.216  12.929  68.369  1.00  0.00    -0.137 C  
ENDROOT
BRANCH   3   8
HETATM    8  C   UNL     2      -9.059  19.037  66.482  1.00  0.00    -0.334 C  
HETATM    9  H   UNL     2      -8.787  17.516  67.696  1.00  0.00     0.000 HD 
HETATM   10  O   UNL     2      -9.479  18.150  67.543  1.00  0.00    -0.259 OA 
BRANCH   8  11
HETATM   11  C   UNL     2      -7.679  19.616  66.858  1.00  0.00    -0.262 C  
HETATM   12  C   UNL     2      -6.620  19.814  65.802  1.00  0.00    -0.242 C  
HETATM   13  O   UNL     2      -7.067  18.541  67.579  1.00  0.00    -0.204 OA 
HETATM   14  O   UNL     2      -6.443  16.501  66.690  1.00  0.00    -0.258 OA 
HETATM   15  H   UNL     2      -4.863  18.839  63.915  1.00  0.00     0.000 HD 
HETATM   16  O   UNL     2      -6.256  20.992  65.534  1.00  0.00    -0.247 OA 
HETATM   17  C   UNL     2      -6.615  17.696  66.605  1.00  0.00    -0.208 C  
HETATM   18  C   UNL     2      -6.158  18.578  65.497  1.00  0.00    -0.252 C  
HETATM   19  O   UNL     2      -5.155  18.277  64.622  1.00  0.00    -0.118 OA 
ENDBRANCH   8  11
ENDBRANCH   3   8
BRANCH   7  20
HETATM   20  C   UNL     3      -9.549  12.578  66.914  1.00  0.00    -0.229 C  
HETATM   21  O   UNL     3      -9.037  13.581  66.039  1.00  0.00    -0.468 OA 
HETATM   22  H   UNL     3      -9.243  13.363  65.137  1.00  0.00     0.000 HD 
BRANCH  20  23
HETATM   23  C   UNL     3     -10.962  12.082  66.499  1.00  0.00    -0.295 C  
HETATM   24  O   UNL     3     -13.591  14.089  65.470  1.00  0.00    -0.596 OA 
HETATM   25  C   UNL     3     -12.213  12.347  64.581  1.00  0.00    -0.425 C  
HETATM   26  C   UNL     3     -11.329  11.527  65.163  1.00  0.00    -0.086 C  
HETATM   27  O   UNL     3     -12.838  12.154  63.371  1.00  0.00    -0.765 OA 
HETATM   28  O   UNL     3     -11.981  13.062  66.760  1.00  0.00    -0.391 OA 
HETATM   29  C   UNL     3     -12.649  13.322  65.583  1.00  0.00    -0.406 C  
HETATM   30  O   UNL     3     -10.866  10.388  64.921  1.00  0.00     0.056 OA 
HETATM   31  H   UNL     3     -12.555  11.521  62.721  1.00  0.00     0.000 HD 
ENDBRANCH  20  23
ENDBRANCH   7  20
TORSDOF 4
ENDMDL
MODEL      152
REMARK 921   NORMALIZED FREE ENERGY PREDICTED BY IDOCK:   -5.03 KCAL/MOL
REMARK 922        TOTAL FREE ENERGY PREDICTED BY IDOCK:   -8.13 KCAL/MOL
REMARK 923 INTER-LIGAND FREE ENERGY PREDICTED BY IDOCK:   -6.84 KCAL/MOL
REMARK 924 INTRA-LIGAND FREE ENERGY PREDICTED BY IDOCK:   -1.29 KCAL/MOL
REMARK 927      BINDING AFFINITY PREDICTED BY RF-SCORE:    0.00 PKD
ROOT
HETATM    1 CA   UNL     1      -7.975  11.473  65.881  1.00  0.00    -0.171 Ca 
HETATM    2  O   UNL     2      -8.029   7.000  71.262  1.00  0.00    -0.101 OA 
HETATM    3  C   UNL     2      -7.675   7.914  70.218  1.00  0.00    -0.088 C  
HETATM    4  H   UNL     2      -7.230   6.775  71.725  1.00  0.00     0.000 HD 
HETATM    5  O   UNL     3     -11.018  14.070  69.580  1.00  0.00    -0.420 OA 
HETATM    6  H   UNL     3     -11.638  13.963  70.292  1.00  0.00     0.000 HD 
HETATM    7  C   UNL     3     -11.772  13.895  68.347  1.00  0.00    -0.356 C  
ENDROOT
BRANCH   3   8
HETATM    8  C   UNL     2      -8.946   8.273  69.484  1.00  0.00    -0.150 C  
HETATM    9  H   UNL     2     -10.847   8.429  69.955  1.00  0.00     0.000 HD 
HETATM   10  O   UNL     2     -10.048   8.204  70.417  1.00  0.00    -0.191 OA 
BRANCH   8  11
HETATM   11  C   UNL     2      -9.294   7.395  68.263  1.00  0.00    -0.140 C  
HETATM   12  C   UNL     2      -8.359   7.325  67.082  1.00  0.00    -0.118 C  
HETATM   13  O   UNL     2     -10.367   8.117  67.647  1.00  0.00    -0.219 OA 
HETATM   14  O   UNL     2     -10.199  10.192  66.645  1.00  0.00    -0.215 OA 
HETATM   15  H   UNL     2      -7.064   8.480  64.940  1.00  0.00     0.000 HD 
HETATM   16  O   UNL     2      -7.801   6.223  66.826  1.00  0.00    -0.101 OA 
HETATM   17  C   UNL     2      -9.746   9.111  66.946  1.00  0.00    -0.194 C  
HETATM   18  C   UNL     2      -8.488   8.504  66.429  1.00  0.00    -0.117 C  
HETATM   19  O   UNL     2      -7.865   8.867  65.270  1.00  0.00    -0.097 OA 
ENDBRANCH   8  11
ENDBRANCH   3   8
BRANCH   7  20
HETATM   20  C   UNL     3     -10.771  14.068  67.198  1.00  0.00    -0.283 C  
HETATM   21  O   UNL     3      -9.858  15.122  67.498  1.00  0.00    -0.219 OA 
HETATM   22  H   UNL     3      -9.238  15.229  66.787  1.00  0.00     0.000 HD 
BRANCH  20  23
HETATM   23  C   UNL     3     -11.230  14.076  65.713  1.00  0.00    -0.303 C  
HETATM   24  O   UNL     3      -9.980  12.049  63.197  1.00  0.00    -0.407 OA 
HETATM   25  C   UNL     3     -12.057  12.435  64.322  1.00  0.00    -0.433 C  
HETATM   26  C   UNL     3     -12.443  13.391  65.176  1.00  0.00    -0.459 C  
HETATM   27  O   UNL     3     -12.878  11.623  63.574  1.00  0.00    -0.580 OA 
HETATM   28  O   UNL     3     -10.180  13.676  64.817  1.00  0.00    -0.392 OA 
HETATM   29  C   UNL     3     -10.624  12.607  64.071  1.00  0.00    -0.427 C  
HETATM   30  O   UNL     3     -13.532  13.912  65.508  1.00  0.00    -0.657 OA 
HETATM   31  H   UNL     3     -13.808  11.512  63.737  1.00  0.00     0.000 HD 
ENDBRANCH  20  23
ENDBRANCH   7  20
TORSDOF 4
ENDMDL
MODEL      153
REMARK 921   NORMALIZED FREE ENERGY PREDICTED BY IDOCK:   -5.03 KCAL/MOL
REMARK 922        TOTAL FREE ENERGY PREDICTED BY IDOCK:   -8.13 KCAL/MOL
REMARK 923 INTER-LIGAND FREE ENERGY PREDICTED BY IDOCK:   -7.23 KCAL/MOL
REMARK 924 INTRA-LIGAND FREE ENERGY PREDICTED BY IDOCK:   -0.90 KCAL/MOL
REMARK 927      BINDING AFFINITY PREDICTED BY RF-SCORE:    0.00 PKD
ROOT
HETATM    1 CA   UNL     1     -12.131   9.501  68.428  1.00  0.00    -0.408 Ca 
HETATM    2  O   UNL     2     -12.378  14.847  63.919  1.00  0.00    -0.980 OA 
HETATM    3  C   UNL     2     -12.610  13.906  64.974  1.00  0.00    -0.390 C  
HETATM    4  H   UNL     2     -13.034  15.530  63.999  1.00  0.00     0.000 HD 
HETATM    5  O   UNL     3      -7.389  12.039  69.301  1.00  0.00    -0.310 OA 
HETATM    6  H   UNL     3      -6.693  12.547  68.901  1.00  0.00     0.000 HD 
HETATM    7  C   UNL     3      -7.152  10.651  68.932  1.00  0.00    -0.078 C  
ENDROOT
BRANCH   3   8
HETATM    8  C   UNL     2     -11.567  12.821  64.846  1.00  0.00    -0.330 C  
HETATM    9  H   UNL     2     -11.417  11.121  63.873  1.00  0.00     0.000 HD 
HETATM   10  O   UNL     2     -12.073  11.804  63.953  1.00  0.00    -0.377 OA 
BRANCH   8  11
HETATM   11  C   UNL     2     -11.137  12.136  66.161  1.00  0.00    -0.312 C  
HETATM   12  C   UNL     2     -11.480  12.755  67.492  1.00  0.00    -0.336 C  
HETATM   13  O   UNL     2      -9.721  12.348  66.182  1.00  0.00    -0.242 OA 
HETATM   14  O   UNL     2      -8.664  14.391  66.403  1.00  0.00    -0.104 OA 
HETATM   15  H   UNL     2     -11.273  14.778  69.354  1.00  0.00     0.000 HD 
HETATM   16  O   UNL     2     -12.273  12.136  68.253  1.00  0.00    -0.356 OA 
HETATM   17  C   UNL     2      -9.579  13.631  66.628  1.00  0.00    -0.283 C  
HETATM   18  C   UNL     2     -10.659  13.823  67.634  1.00  0.00    -0.242 C  
HETATM   19  O   UNL     2     -10.584  14.656  68.712  1.00  0.00    -0.234 OA 
ENDBRANCH   8  11
ENDBRANCH   3   8
BRANCH   7  20
HETATM   20  C   UNL     3      -8.276   9.832  69.577  1.00  0.00    -0.144 C  
HETATM   21  O   UNL     3      -8.220   9.956  70.997  1.00  0.00    -0.322 OA 
HETATM   22  H   UNL     3      -8.916   9.449  71.397  1.00  0.00     0.000 HD 
BRANCH  20  23
HETATM   23  C   UNL     3      -8.598   8.384  69.113  1.00  0.00    -0.134 C  
HETATM   24  O   UNL     3      -9.650   5.790  71.154  1.00  0.00    -0.162 OA 
HETATM   25  C   UNL     3     -10.476   7.061  69.302  1.00  0.00    -0.210 C  
HETATM   26  C   UNL     3      -9.877   7.937  68.486  1.00  0.00    -0.177 C  
HETATM   27  O   UNL     3     -11.643   6.375  69.054  1.00  0.00    -0.597 OA 
HETATM   28  O   UNL     3      -8.362   7.415  70.149  1.00  0.00    -0.131 OA 
HETATM   29  C   UNL     3      -9.525   6.706  70.358  1.00  0.00    -0.166 C  
HETATM   30  O   UNL     3     -10.060   8.346  67.316  1.00  0.00    -0.205 OA 
HETATM   31  H   UNL     3     -12.260   6.606  68.369  1.00  0.00     0.000 HD 
ENDBRANCH  20  23
ENDBRANCH   7  20
TORSDOF 4
ENDMDL
MODEL      154
REMARK 921   NORMALIZED FREE ENERGY PREDICTED BY IDOCK:   -5.01 KCAL/MOL
REMARK 922        TOTAL FREE ENERGY PREDICTED BY IDOCK:   -8.11 KCAL/MOL
REMARK 923 INTER-LIGAND FREE ENERGY PREDICTED BY IDOCK:   -6.98 KCAL/MOL
REMARK 924 INTRA-LIGAND FREE ENERGY PREDICTED BY IDOCK:   -1.13 KCAL/MOL
REMARK 927      BINDING AFFINITY PREDICTED BY RF-SCORE:    0.00 PKD
ROOT
HETATM    1 CA   UNL     1     -10.205   9.130  67.814  1.00  0.00    -0.154 Ca 
HETATM    2  O   UNL     2     -12.085  15.819  68.645  1.00  0.00    -0.533 OA 
HETATM    3  C   UNL     2     -11.799  14.425  68.808  1.00  0.00    -0.325 C  
HETATM    4  H   UNL     2     -12.387  16.146  69.485  1.00  0.00     0.000 HD 
HETATM    5  O   UNL     3      -5.557  11.816  66.884  1.00  0.00    -0.120 OA 
HETATM    6  H   UNL     3      -5.175  12.615  66.541  1.00  0.00     0.000 HD 
HETATM    7  C   UNL     3      -5.898  10.994  65.732  1.00  0.00    -0.066 C  
ENDROOT
BRANCH   3   8
HETATM    8  C   UNL     2     -11.318  13.906  67.473  1.00  0.00    -0.318 C  
HETATM    9  H   UNL     2     -10.598  12.206  66.800  1.00  0.00     0.000 HD 
HETATM   10  O   UNL     2     -10.901  12.533  67.640  1.00  0.00    -0.215 OA 
BRANCH   8  11
HETATM   11  C   UNL     2     -10.157  14.686  66.820  1.00  0.00    -0.265 C  
HETATM   12  C   UNL     2     -10.414  16.002  66.131  1.00  0.00    -0.326 C  
HETATM   13  O   UNL     2      -9.850  13.894  65.667  1.00  0.00    -0.276 OA 
HETATM   14  O   UNL     2     -11.229  13.577  63.839  1.00  0.00    -0.300 OA 
HETATM   15  H   UNL     2     -11.562  17.511  64.128  1.00  0.00     0.000 HD 
HETATM   16  O   UNL     2      -9.903  17.045  66.624  1.00  0.00    -0.264 OA 
HETATM   17  C   UNL     2     -10.801  14.247  64.752  1.00  0.00    -0.405 C  
HETATM   18  C   UNL     2     -11.034  15.702  64.965  1.00  0.00    -0.431 C  
HETATM   19  O   UNL     2     -11.414  16.583  63.993  1.00  0.00    -1.137 OA 
ENDBRANCH   8  11
ENDBRANCH   3   8
BRANCH   7  20
HETATM   20  C   UNL     3      -6.514   9.704  66.285  1.00  0.00    -0.070 C  
HETATM   21  O   UNL     3      -5.487   8.763  66.592  1.00  0.00    -0.038 OA 
HETATM   22  H   UNL     3      -5.869   7.964  66.935  1.00  0.00     0.000 HD 
BRANCH  20  23
HETATM   23  C   UNL     3      -7.755   9.045  65.622  1.00  0.00    -0.091 C  
HETATM   24  O   UNL     3     -10.759  10.623  64.928  1.00  0.00    -0.217 OA 
HETATM   25  C   UNL     3      -8.979   9.555  63.738  1.00  0.00    -0.175 C  
HETATM   26  C   UNL     3      -7.941   8.822  64.158  1.00  0.00    -0.154 C  
HETATM   27  O   UNL     3      -9.507   9.577  62.466  1.00  0.00    -0.562 OA 
HETATM   28  O   UNL     3      -8.986   9.658  66.040  1.00  0.00    -0.148 OA 
HETATM   29  C   UNL     3      -9.664  10.085  64.919  1.00  0.00    -0.307 C  
HETATM   30  O   UNL     3      -7.212   7.931  63.664  1.00  0.00    -0.080 OA 
HETATM   31  H   UNL     3      -9.062   9.233  61.700  1.00  0.00     0.000 HD 
ENDBRANCH  20  23
ENDBRANCH   7  20
TORSDOF 4
ENDMDL
MODEL      155
REMARK 921   NORMALIZED FREE ENERGY PREDICTED BY IDOCK:   -5.01 KCAL/MOL
REMARK 922        TOTAL FREE ENERGY PREDICTED BY IDOCK:   -8.10 KCAL/MOL
REMARK 923 INTER-LIGAND FREE ENERGY PREDICTED BY IDOCK:   -6.83 KCAL/MOL
REMARK 924 INTRA-LIGAND FREE ENERGY PREDICTED BY IDOCK:   -1.27 KCAL/MOL
REMARK 927      BINDING AFFINITY PREDICTED BY RF-SCORE:    0.00 PKD
ROOT
HETATM    1 CA   UNL     1      -7.696  13.688  69.706  1.00  0.00    -0.319 Ca 
HETATM    2  O   UNL     2      -5.404  19.519  66.589  1.00  0.00    -0.164 OA 
HETATM    3  C   UNL     2      -5.572  18.197  67.112  1.00  0.00    -0.134 C  
HETATM    4  H   UNL     2      -4.583  19.533  66.112  1.00  0.00     0.000 HD 
HETATM    5  O   UNL     3     -11.502  14.608  65.917  1.00  0.00    -0.344 OA 
HETATM    6  H   UNL     3     -11.969  15.276  65.430  1.00  0.00     0.000 HD 
HETATM    7  C   UNL     3     -12.113  14.557  67.237  1.00  0.00    -0.264 C  
ENDROOT
BRANCH   3   8
HETATM    8  C   UNL     2      -6.879  18.175  67.870  1.00  0.00    -0.211 C  
HETATM    9  H   UNL     2      -7.412  18.284  69.758  1.00  0.00     0.000 HD 
HETATM   10  O   UNL     2      -6.591  18.298  69.281  1.00  0.00    -0.256 OA 
BRANCH   8  11
HETATM   11  C   UNL     2      -7.759  16.924  67.667  1.00  0.00    -0.165 C  
HETATM   12  C   UNL     2      -8.813  16.899  66.589  1.00  0.00    -0.246 C  
HETATM   13  O   UNL     2      -8.621  16.951  68.811  1.00  0.00    -0.252 OA 
HETATM   14  O   UNL     2     -10.238  18.543  69.246  1.00  0.00    -0.248 OA 
HETATM   15  H   UNL     2     -11.160  17.813  65.467  1.00  0.00     0.000 HD 
HETATM   16  O   UNL     2      -8.672  16.088  65.633  1.00  0.00    -0.206 OA 
HETATM   17  C   UNL     2      -9.582  17.866  68.487  1.00  0.00    -0.326 C  
HETATM   18  C   UNL     2      -9.820  17.690  67.028  1.00  0.00    -0.307 C  
HETATM   19  O   UNL     2     -11.007  17.926  66.397  1.00  0.00    -0.039 OA 
ENDBRANCH   8  11
ENDBRANCH   3   8
BRANCH   7  20
HETATM   20  C   UNL     3     -11.359  13.479  68.024  1.00  0.00    -0.285 C  
HETATM   21  O   UNL     3     -11.669  12.187  67.505  1.00  0.00    -0.415 OA 
HETATM   22  H   UNL     3     -11.201  11.519  67.993  1.00  0.00     0.000 HD 
BRANCH  20  23
HETATM   23  C   UNL     3     -11.290  13.502  69.576  1.00  0.00    -0.202 C  
HETATM   24  O   UNL     3     -12.108  16.192  71.600  1.00  0.00    -0.461 OA 
HETATM   25  C   UNL     3     -12.856  13.953  71.206  1.00  0.00    -0.360 C  
HETATM   26  C   UNL     3     -12.324  12.948  70.500  1.00  0.00    -0.283 C  
HETATM   27  O   UNL     3     -13.796  13.846  72.205  1.00  0.00    -0.455 OA 
HETATM   28  O   UNL     3     -11.036  14.820  70.090  1.00  0.00    -0.213 OA 
HETATM   29  C   UNL     3     -12.044  15.149  70.970  1.00  0.00    -0.333 C  
HETATM   30  O   UNL     3     -12.388  11.698  70.528  1.00  0.00    -0.343 OA 
HETATM   31  H   UNL     3     -14.323  13.069  72.358  1.00  0.00     0.000 HD 
ENDBRANCH  20  23
ENDBRANCH   7  20
TORSDOF 4
ENDMDL
MODEL      156
REMARK 921   NORMALIZED FREE ENERGY PREDICTED BY IDOCK:   -5.01 KCAL/MOL
REMARK 922        TOTAL FREE ENERGY PREDICTED BY IDOCK:   -8.10 KCAL/MOL
REMARK 923 INTER-LIGAND FREE ENERGY PREDICTED BY IDOCK:   -6.34 KCAL/MOL
REMARK 924 INTRA-LIGAND FREE ENERGY PREDICTED BY IDOCK:   -1.76 KCAL/MOL
REMARK 927      BINDING AFFINITY PREDICTED BY RF-SCORE:    0.00 PKD
ROOT
HETATM    1 CA   UNL     1      -7.349  12.222  65.957  1.00  0.00    -0.353 Ca 
HETATM    2  O   UNL     2     -10.724   6.594  68.386  1.00  0.00    -0.218 OA 
HETATM    3  C   UNL     2      -9.864   7.722  68.192  1.00  0.00    -0.167 C  
HETATM    4  H   UNL     2     -10.543   6.245  69.251  1.00  0.00     0.000 HD 
HETATM    5  O   UNL     3     -12.516  13.930  66.217  1.00  0.00    -0.453 OA 
HETATM    6  H   UNL     3     -13.426  13.671  66.139  1.00  0.00     0.000 HD 
HETATM    7  C   UNL     3     -12.010  14.074  64.859  1.00  0.00    -0.404 C  
ENDROOT
BRANCH   3   8
HETATM    8  C   UNL     2     -10.153   8.276  66.816  1.00  0.00    -0.303 C  
HETATM    9  H   UNL     2     -10.186   7.558  64.988  1.00  0.00     0.000 HD 
HETATM   10  O   UNL     2     -10.005   7.209  65.853  1.00  0.00     0.282 OA 
BRANCH   8  11
HETATM   11  C   UNL     2      -9.271   9.459  66.363  1.00  0.00    -0.169 C  
HETATM   12  C   UNL     2      -8.529  10.292  67.378  1.00  0.00    -0.125 C  
HETATM   13  O   UNL     2     -10.234  10.434  65.946  1.00  0.00    -0.254 OA 
HETATM   14  O   UNL     2     -11.734  11.526  67.324  1.00  0.00    -0.576 OA 
HETATM   15  H   UNL     2      -8.473  12.040  69.509  1.00  0.00     0.000 HD 
HETATM   16  O   UNL     2      -7.268  10.264  67.367  1.00  0.00    -0.090 OA 
HETATM   17  C   UNL     2     -10.663  11.003  67.111  1.00  0.00    -0.265 C  
HETATM   18  C   UNL     2      -9.462  11.059  67.990  1.00  0.00    -0.166 C  
HETATM   19  O   UNL     2      -9.239  12.004  68.949  1.00  0.00     0.005 OA 
ENDBRANCH   8  11
ENDBRANCH   3   8
BRANCH   7  20
HETATM   20  C   UNL     3     -10.540  14.493  64.986  1.00  0.00    -0.437 C  
HETATM   21  O   UNL     3      -9.692  13.356  64.832  1.00  0.00    -0.563 OA 
HETATM   22  H   UNL     3      -8.782  13.616  64.910  1.00  0.00     0.000 HD 
BRANCH  20  23
HETATM   23  C   UNL     3     -10.061  15.453  66.110  1.00  0.00    -0.305 C  
HETATM   24  O   UNL     3     -11.831  16.260  68.976  1.00  0.00    -0.267 OA 
HETATM   25  C   UNL     3      -9.777  15.186  68.381  1.00  0.00    -0.212 C  
HETATM   26  C   UNL     3      -9.124  15.095  67.216  1.00  0.00    -0.198 C  
HETATM   27  O   UNL     3      -9.245  14.995  69.636  1.00  0.00    -0.429 OA 
HETATM   28  O   UNL     3     -11.157  16.099  66.778  1.00  0.00    -0.155 OA 
HETATM   29  C   UNL     3     -11.066  15.833  68.127  1.00  0.00    -0.341 C  
HETATM   30  O   UNL     3      -7.935  14.925  66.864  1.00  0.00    -0.180 OA 
HETATM   31  H   UNL     3      -8.409  14.575  69.801  1.00  0.00     0.000 HD 
ENDBRANCH  20  23
ENDBRANCH   7  20
TORSDOF 4
ENDMDL
MODEL      157
REMARK 921   NORMALIZED FREE ENERGY PREDICTED BY IDOCK:   -5.00 KCAL/MOL
REMARK 922        TOTAL FREE ENERGY PREDICTED BY IDOCK:   -8.10 KCAL/MOL
REMARK 923 INTER-LIGAND FREE ENERGY PREDICTED BY IDOCK:   -7.26 KCAL/MOL
REMARK 924 INTRA-LIGAND FREE ENERGY PREDICTED BY IDOCK:   -0.84 KCAL/MOL
REMARK 927      BINDING AFFINITY PREDICTED BY RF-SCORE:    0.00 PKD
ROOT
HETATM    1 CA   UNL     1      -9.073  13.908  69.126  1.00  0.00    -0.253 Ca 
HETATM    2  O   UNL     2     -12.067   8.257  71.966  1.00  0.00    -0.308 OA 
HETATM    3  C   UNL     2     -11.602   9.575  71.655  1.00  0.00    -0.381 C  
HETATM    4  H   UNL     2     -12.614   8.325  72.741  1.00  0.00     0.000 HD 
HETATM    5  O   UNL     3     -12.454  12.228  65.197  1.00  0.00    -0.563 OA 
HETATM    6  H   UNL     3     -12.862  11.472  64.792  1.00  0.00     0.000 HD 
HETATM    7  C   UNL     3     -11.089  12.281  64.693  1.00  0.00    -0.313 C  
ENDROOT
BRANCH   3   8
HETATM    8  C   UNL     2     -10.733   9.466  70.424  1.00  0.00    -0.263 C  
HETATM    9  H   UNL     2     -10.372  10.589  68.853  1.00  0.00     0.000 HD 
HETATM   10  O   UNL     2     -10.918  10.657  69.627  1.00  0.00    -0.244 OA 
BRANCH   8  11
HETATM   11  C   UNL     2     -10.985   8.240  69.522  1.00  0.00    -0.041 C  
HETATM   12  C   UNL     2     -10.410   6.894  69.884  1.00  0.00    -0.205 C  
HETATM   13  O   UNL     2     -10.178   8.518  68.372  1.00  0.00    -0.193 OA 
HETATM   14  O   UNL     2      -7.869   8.606  68.332  1.00  0.00    -0.102 OA 
HETATM   15  H   UNL     2      -8.275   5.202  70.310  1.00  0.00     0.000 HD 
HETATM   16  O   UNL     2     -11.208   5.961  70.174  1.00  0.00    -0.353 OA 
HETATM   17  C   UNL     2      -8.915   8.166  68.754  1.00  0.00    -0.144 C  
HETATM   18  C   UNL     2      -9.083   6.969  69.623  1.00  0.00    -0.144 C  
HETATM   19  O   UNL     2      -8.168   5.965  69.756  1.00  0.00    -0.109 OA 
ENDBRANCH   8  11
ENDBRANCH   3   8
BRANCH   7  20
HETATM   20  C   UNL     3     -10.431  13.501  65.347  1.00  0.00    -0.315 C  
HETATM   21  O   UNL     3      -9.368  13.085  66.202  1.00  0.00    -0.420 OA 
HETATM   22  H   UNL     3      -8.960  13.841  66.607  1.00  0.00     0.000 HD 
BRANCH  20  23
HETATM   23  C   UNL     3     -11.277  14.653  65.957  1.00  0.00    -0.342 C  
HETATM   24  O   UNL     3     -12.051  15.041  69.311  1.00  0.00    -0.298 OA 
HETATM   25  C   UNL     3     -10.848  16.207  67.603  1.00  0.00    -0.297 C  
HETATM   26  C   UNL     3     -10.776  16.021  66.280  1.00  0.00    -0.234 C  
HETATM   27  O   UNL     3     -10.537  17.360  68.288  1.00  0.00    -0.365 OA 
HETATM   28  O   UNL     3     -11.970  14.247  67.149  1.00  0.00    -0.405 OA 
HETATM   29  C   UNL     3     -11.615  15.098  68.173  1.00  0.00    -0.341 C  
HETATM   30  O   UNL     3     -10.529  16.740  65.284  1.00  0.00    -0.630 OA 
HETATM   31  H   UNL     3     -10.040  18.081  67.917  1.00  0.00     0.000 HD 
ENDBRANCH  20  23
ENDBRANCH   7  20
TORSDOF 4
ENDMDL
MODEL      158
REMARK 921   NORMALIZED FREE ENERGY PREDICTED BY IDOCK:   -5.00 KCAL/MOL
REMARK 922        TOTAL FREE ENERGY PREDICTED BY IDOCK:   -8.09 KCAL/MOL
REMARK 923 INTER-LIGAND FREE ENERGY PREDICTED BY IDOCK:   -6.20 KCAL/MOL
REMARK 924 INTRA-LIGAND FREE ENERGY PREDICTED BY IDOCK:   -1.89 KCAL/MOL
REMARK 927      BINDING AFFINITY PREDICTED BY RF-SCORE:    0.00 PKD
ROOT
HETATM    1 CA   UNL     1     -10.867   5.549  70.606  1.00  0.00    -0.207 Ca 
HETATM    2  O   UNL     2     -10.272   4.218  63.762  1.00  0.00    -0.367 OA 
HETATM    3  C   UNL     2     -10.706   4.344  65.121  1.00  0.00    -0.113 C  
HETATM    4  H   UNL     2     -10.988   3.832  63.271  1.00  0.00     0.000 HD 
HETATM    5  O   UNL     3     -10.242  10.517  68.459  1.00  0.00    -0.160 OA 
HETATM    6  H   UNL     3      -9.835  11.019  67.762  1.00  0.00     0.000 HD 
HETATM    7  C   UNL     3      -9.203  10.266  69.448  1.00  0.00    -0.189 C  
ENDROOT
BRANCH   3   8
HETATM    8  C   UNL     2      -9.567   4.957  65.902  1.00  0.00    -0.175 C  
HETATM    9  H   UNL     2      -8.056   6.142  65.490  1.00  0.00     0.000 HD 
HETATM   10  O   UNL     2      -8.772   5.756  64.999  1.00  0.00    -0.127 OA 
BRANCH   8  11
HETATM   11  C   UNL     2      -8.628   3.966  66.622  1.00  0.00    -0.111 C  
HETATM   12  C   UNL     2      -9.166   3.035  67.679  1.00  0.00    -0.197 C  
HETATM   13  O   UNL     2      -7.848   4.822  67.465  1.00  0.00    -0.092 OA 
HETATM   14  O   UNL     2      -8.643   6.037  69.263  1.00  0.00    -0.116 OA 
HETATM   15  H   UNL     2     -10.323   2.561  70.136  1.00  0.00     0.000 HD 
HETATM   16  O   UNL     2      -9.144   1.795  67.450  1.00  0.00    -0.131 OA 
HETATM   17  C   UNL     2      -8.658   5.068  68.537  1.00  0.00    -0.094 C  
HETATM   18  C   UNL     2      -9.401   3.800  68.771  1.00  0.00    -0.164 C  
HETATM   19  O   UNL     2      -9.849   3.370  69.987  1.00  0.00    -0.113 OA 
ENDBRANCH   8  11
ENDBRANCH   3   8
BRANCH   7  20
HETATM   20  C   UNL     3      -9.860   9.457  70.572  1.00  0.00    -0.270 C  
HETATM   21  O   UNL     3      -9.085   8.294  70.856  1.00  0.00    -0.141 OA 
HETATM   22  H   UNL     3      -9.492   7.793  71.553  1.00  0.00     0.000 HD 
BRANCH  20  23
HETATM   23  C   UNL     3     -11.389   9.179  70.589  1.00  0.00    -0.273 C  
HETATM   24  O   UNL     3     -12.932   6.430  72.024  1.00  0.00    -0.199 OA 
HETATM   25  C   UNL     3     -12.894   8.807  72.294  1.00  0.00    -0.405 C  
HETATM   26  C   UNL     3     -12.370   9.781  71.539  1.00  0.00    -0.405 C  
HETATM   27  O   UNL     3     -13.878   8.947  73.246  1.00  0.00    -1.163 OA 
HETATM   28  O   UNL     3     -11.686   7.774  70.626  1.00  0.00    -0.266 OA 
HETATM   29  C   UNL     3     -12.482   7.523  71.723  1.00  0.00    -0.330 C  
HETATM   30  O   UNL     3     -12.601  10.999  71.357  1.00  0.00    -0.390 OA 
HETATM   31  H   UNL     3     -14.146   9.780  73.616  1.00  0.00     0.000 HD 
ENDBRANCH  20  23
ENDBRANCH   7  20
TORSDOF 4
ENDMDL
MODEL      159
REMARK 921   NORMALIZED FREE ENERGY PREDICTED BY IDOCK:   -4.99 KCAL/MOL
REMARK 922        TOTAL FREE ENERGY PREDICTED BY IDOCK:   -8.08 KCAL/MOL
REMARK 923 INTER-LIGAND FREE ENERGY PREDICTED BY IDOCK:   -5.80 KCAL/MOL
REMARK 924 INTRA-LIGAND FREE ENERGY PREDICTED BY IDOCK:   -2.28 KCAL/MOL
REMARK 927      BINDING AFFINITY PREDICTED BY RF-SCORE:    0.00 PKD
ROOT
HETATM    1 CA   UNL     1     -11.997   6.518  68.627  1.00  0.00    -0.527 Ca 
HETATM    2  O   UNL     2      -6.611   2.055  68.428  1.00  0.00    -0.029 OA 
HETATM    3  C   UNL     2      -7.573   3.085  68.173  1.00  0.00    -0.056 C  
HETATM    4  H   UNL     2      -5.956   2.103  67.741  1.00  0.00     0.000 HD 
HETATM    5  O   UNL     3      -9.282   7.696  73.202  1.00  0.00    -0.170 OA 
HETATM    6  H   UNL     3      -8.742   7.344  73.899  1.00  0.00     0.000 HD 
HETATM    7  C   UNL     3     -10.655   7.328  73.517  1.00  0.00    -0.362 C  
ENDROOT
BRANCH   3   8
HETATM    8  C   UNL     2      -8.614   3.009  69.266  1.00  0.00    -0.068 C  
HETATM    9  H   UNL     2     -10.034   1.750  69.770  1.00  0.00     0.000 HD 
HETATM   10  O   UNL     2      -9.379   1.797  69.083  1.00  0.00    -0.121 OA 
BRANCH   8  11
HETATM   11  C   UNL     2      -9.600   4.194  69.346  1.00  0.00    -0.194 C  
HETATM   12  C   UNL     2      -9.105   5.611  69.196  1.00  0.00    -0.112 C  
HETATM   13  O   UNL     2      -9.941   4.230  70.736  1.00  0.00    -0.200 OA 
HETATM   14  O   UNL     2      -8.504   4.756  72.468  1.00  0.00    -0.113 OA 
HETATM   15  H   UNL     2      -7.614   7.765  70.055  1.00  0.00     0.000 HD 
HETATM   16  O   UNL     2      -9.489   6.275  68.195  1.00  0.00    -0.116 OA 
HETATM   17  C   UNL     2      -8.889   4.870  71.326  1.00  0.00    -0.132 C  
HETATM   18  C   UNL     2      -8.459   5.908  70.348  1.00  0.00    -0.131 C  
HETATM   19  O   UNL     2      -7.888   7.103  70.678  1.00  0.00    -0.093 OA 
ENDBRANCH   8  11
ENDBRANCH   3   8
BRANCH   7  20
HETATM   20  C   UNL     3     -11.527   7.897  72.391  1.00  0.00    -0.376 C  
HETATM   21  O   UNL     3     -11.767   6.896  71.403  1.00  0.00    -0.280 OA 
HETATM   22  H   UNL     3     -12.307   7.249  70.706  1.00  0.00     0.000 HD 
BRANCH  20  23
HETATM   23  C   UNL     3     -11.248   9.296  71.773  1.00  0.00    -0.343 C  
HETATM   24  O   UNL     3      -9.607   9.899  68.783  1.00  0.00    -0.151 OA 
HETATM   25  C   UNL     3     -11.773  10.241  69.738  1.00  0.00    -0.191 C  
HETATM   26  C   UNL     3     -12.225  10.110  70.992  1.00  0.00    -0.374 C  
HETATM   27  O   UNL     3     -12.357  10.972  68.729  1.00  0.00    -0.730 OA 
HETATM   28  O   UNL     3     -10.060   9.306  70.963  1.00  0.00    -0.270 OA 
HETATM   29  C   UNL     3     -10.395   9.749  69.702  1.00  0.00    -0.238 C  
HETATM   30  O   UNL     3     -13.158  10.602  71.667  1.00  0.00    -0.425 OA 
HETATM   31  H   UNL     3     -13.252  11.292  68.753  1.00  0.00     0.000 HD 
ENDBRANCH  20  23
ENDBRANCH   7  20
TORSDOF 4
ENDMDL
MODEL      160
REMARK 921   NORMALIZED FREE ENERGY PREDICTED BY IDOCK:   -4.99 KCAL/MOL
REMARK 922        TOTAL FREE ENERGY PREDICTED BY IDOCK:   -8.08 KCAL/MOL
REMARK 923 INTER-LIGAND FREE ENERGY PREDICTED BY IDOCK:   -6.71 KCAL/MOL
REMARK 924 INTRA-LIGAND FREE ENERGY PREDICTED BY IDOCK:   -1.37 KCAL/MOL
REMARK 927      BINDING AFFINITY PREDICTED BY RF-SCORE:    0.00 PKD
ROOT
HETATM    1 CA   UNL     1     -12.042   9.918  68.338  1.00  0.00    -0.519 Ca 
HETATM    2  O   UNL     2     -12.482  14.948  63.493  1.00  0.00    -1.001 OA 
HETATM    3  C   UNL     2     -12.682  14.068  64.604  1.00  0.00    -0.129 C  
HETATM    4  H   UNL     2     -13.169  15.604  63.524  1.00  0.00     0.000 HD 
HETATM    5  O   UNL     3      -7.428  12.719  69.081  1.00  0.00    -0.312 OA 
HETATM    6  H   UNL     3      -6.751  13.231  68.655  1.00  0.00     0.000 HD 
HETATM    7  C   UNL     3      -7.125  11.322  68.804  1.00  0.00    -0.096 C  
ENDROOT
BRANCH   3   8
HETATM    8  C   UNL     2     -11.590  13.025  64.555  1.00  0.00    -0.360 C  
HETATM    9  H   UNL     2     -11.329  11.303  63.645  1.00  0.00     0.000 HD 
HETATM   10  O   UNL     2     -12.016  11.959  63.676  1.00  0.00    -0.473 OA 
BRANCH   8  11
HETATM   11  C   UNL     2     -11.186  12.401  65.907  1.00  0.00    -0.336 C  
HETATM   12  C   UNL     2     -11.657  13.014  67.202  1.00  0.00    -0.358 C  
HETATM   13  O   UNL     2      -9.795  12.727  66.006  1.00  0.00    -0.261 OA 
HETATM   14  O   UNL     2      -8.920  14.853  66.241  1.00  0.00    -0.258 OA 
HETATM   15  H   UNL     2     -11.723  15.080  69.026  1.00  0.00     0.000 HD 
HETATM   16  O   UNL     2     -12.441  12.346  67.930  1.00  0.00    -0.071 OA 
HETATM   17  C   UNL     2      -9.783  14.025  66.430  1.00  0.00    -0.296 C  
HETATM   18  C   UNL     2     -10.934  14.147  67.367  1.00  0.00    -0.299 C  
HETATM   19  O   UNL     2     -10.989  15.003  68.429  1.00  0.00    -0.246 OA 
ENDBRANCH   8  11
ENDBRANCH   3   8
BRANCH   7  20
HETATM   20  C   UNL     3      -8.218  10.495  69.492  1.00  0.00    -0.079 C  
HETATM   21  O   UNL     3      -7.785  10.097  70.792  1.00  0.00    -0.393 OA 
HETATM   22  H   UNL     3      -8.462   9.586  71.218  1.00  0.00     0.000 HD 
BRANCH  20  23
HETATM   23  C   UNL     3      -8.980   9.369  68.741  1.00  0.00    -0.132 C  
HETATM   24  O   UNL     3      -9.763   9.352  65.367  1.00  0.00    -0.280 OA 
HETATM   25  C   UNL     3      -8.454   8.074  66.909  1.00  0.00    -0.124 C  
HETATM   26  C   UNL     3      -8.380   8.095  68.245  1.00  0.00    -0.126 C  
HETATM   27  O   UNL     3      -8.064   7.045  66.082  1.00  0.00    -0.108 OA 
HETATM   28  O   UNL     3      -9.717   9.868  67.613  1.00  0.00    -0.150 OA 
HETATM   29  C   UNL     3      -9.310   9.185  66.487  1.00  0.00    -0.190 C  
HETATM   30  O   UNL     3      -8.066   7.277  69.141  1.00  0.00    -0.117 OA 
HETATM   31  H   UNL     3      -7.509   6.324  66.356  1.00  0.00     0.000 HD 
ENDBRANCH  20  23
ENDBRANCH   7  20
TORSDOF 4
ENDMDL
MODEL      161
REMARK 921   NORMALIZED FREE ENERGY PREDICTED BY IDOCK:   -4.98 KCAL/MOL
REMARK 922        TOTAL FREE ENERGY PREDICTED BY IDOCK:   -8.07 KCAL/MOL
REMARK 923 INTER-LIGAND FREE ENERGY PREDICTED BY IDOCK:   -7.69 KCAL/MOL
REMARK 924 INTRA-LIGAND FREE ENERGY PREDICTED BY IDOCK:   -0.38 KCAL/MOL
REMARK 927      BINDING AFFINITY PREDICTED BY RF-SCORE:    0.00 PKD
ROOT
HETATM    1 CA   UNL     1     -10.794  18.237  68.714  1.00  0.00    -0.320 Ca 
HETATM    2  O   UNL     2     -12.245  13.968  63.362  1.00  0.00    -1.039 OA 
HETATM    3  C   UNL     2     -12.275  14.947  64.407  1.00  0.00    -0.381 C  
HETATM    4  H   UNL     2     -13.083  14.003  62.916  1.00  0.00     0.000 HD 
HETATM    5  O   UNL     3      -7.163  19.749  64.944  1.00  0.00    -0.288 OA 
HETATM    6  H   UNL     3      -6.622  19.452  64.222  1.00  0.00     0.000 HD 
HETATM    7  C   UNL     3      -6.478  19.348  66.165  1.00  0.00    -0.199 C  
ENDROOT
BRANCH   3   8
HETATM    8  C   UNL     2     -10.942  14.891  65.116  1.00  0.00    -0.399 C  
HETATM    9  H   UNL     2      -9.198  15.771  64.907  1.00  0.00     0.000 HD 
HETATM   10  O   UNL     2     -10.037  15.807  64.461  1.00  0.00     0.002 OA 
BRANCH   8  11
HETATM   11  C   UNL     2     -10.264  13.505  65.175  1.00  0.00    -0.316 C  
HETATM   12  C   UNL     2     -11.072  12.273  65.495  1.00  0.00    -0.307 C  
HETATM   13  O   UNL     2      -9.495  13.578  66.381  1.00  0.00    -0.266 OA 
HETATM   14  O   UNL     2     -10.350  13.725  68.523  1.00  0.00    -0.238 OA 
HETATM   15  H   UNL     2     -12.617  10.759  67.206  1.00  0.00     0.000 HD 
HETATM   16  O   UNL     2     -11.196  11.391  64.602  1.00  0.00    -0.258 OA 
HETATM   17  C   UNL     2     -10.402  13.345  67.374  1.00  0.00    -0.240 C  
HETATM   18  C   UNL     2     -11.345  12.335  66.820  1.00  0.00    -0.339 C  
HETATM   19  O   UNL     2     -12.015  11.404  67.559  1.00  0.00    -0.626 OA 
ENDBRANCH   8  11
ENDBRANCH   3   8
BRANCH   7  20
HETATM   20  C   UNL     3      -7.352  19.826  67.330  1.00  0.00    -0.251 C  
HETATM   21  O   UNL     3      -7.168  21.225  67.539  1.00  0.00    -0.486 OA 
HETATM   22  H   UNL     3      -7.710  21.521  68.261  1.00  0.00     0.000 HD 
BRANCH  20  23
HETATM   23  C   UNL     3      -7.444  19.027  68.660  1.00  0.00    -0.326 C  
HETATM   24  O   UNL     3      -9.535  16.333  69.265  1.00  0.00    -0.242 OA 
HETATM   25  C   UNL     3      -7.189  16.793  69.165  1.00  0.00    -0.214 C  
HETATM   26  C   UNL     3      -6.510  17.944  69.088  1.00  0.00    -0.243 C  
HETATM   27  O   UNL     3      -6.698  15.577  69.584  1.00  0.00    -0.166 OA 
HETATM   28  O   UNL     3      -8.749  18.462  68.867  1.00  0.00    -0.258 OA 
HETATM   29  C   UNL     3      -8.615  17.102  69.040  1.00  0.00    -0.101 C  
HETATM   30  O   UNL     3      -5.364  18.334  69.409  1.00  0.00    -0.190 OA 
HETATM   31  H   UNL     3      -5.772  15.377  69.665  1.00  0.00     0.000 HD 
ENDBRANCH  20  23
ENDBRANCH   7  20
TORSDOF 4
ENDMDL
MODEL      162
REMARK 921   NORMALIZED FREE ENERGY PREDICTED BY IDOCK:   -4.97 KCAL/MOL
REMARK 922        TOTAL FREE ENERGY PREDICTED BY IDOCK:   -8.06 KCAL/MOL
REMARK 923 INTER-LIGAND FREE ENERGY PREDICTED BY IDOCK:   -7.06 KCAL/MOL
REMARK 924 INTRA-LIGAND FREE ENERGY PREDICTED BY IDOCK:   -1.00 KCAL/MOL
REMARK 927      BINDING AFFINITY PREDICTED BY RF-SCORE:    0.00 PKD
ROOT
HETATM    1 CA   UNL     1     -10.481  14.608  64.822  1.00  0.00    -0.311 Ca 
HETATM    2  O   UNL     2     -12.364  16.370  71.328  1.00  0.00    -0.489 OA 
HETATM    3  C   UNL     2     -12.290  16.141  69.916  1.00  0.00     0.291 C  
HETATM    4  H   UNL     2     -13.218  16.745  71.510  1.00  0.00     0.000 HD 
HETATM    5  O   UNL     3     -10.505   9.815  67.414  1.00  0.00    -0.227 OA 
HETATM    6  H   UNL     3     -10.353   9.378  68.244  1.00  0.00     0.000 HD 
HETATM    7  C   UNL     3      -9.193  10.062  66.833  1.00  0.00    -0.147 C  
ENDROOT
BRANCH   3   8
HETATM    8  C   UNL     2     -10.932  15.544  69.627  1.00  0.00    -0.286 C  
HETATM    9  H   UNL     2      -9.543  14.635  70.677  1.00  0.00     0.000 HD 
HETATM   10  O   UNL     2     -10.397  15.010  70.859  1.00  0.00     0.107 OA 
BRANCH   8  11
HETATM   11  C   UNL     2      -9.885  16.503  69.023  1.00  0.00    -0.266 C  
HETATM   12  C   UNL     2     -10.208  17.310  67.791  1.00  0.00    -0.332 C  
HETATM   13  O   UNL     2      -8.926  15.607  68.449  1.00  0.00    -0.177 OA 
HETATM   14  O   UNL     2      -9.298  14.200  66.655  1.00  0.00    -0.272 OA 
HETATM   15  H   UNL     2     -10.833  17.506  65.113  1.00  0.00     0.000 HD 
HETATM   16  O   UNL     2     -10.263  18.566  67.896  1.00  0.00    -0.347 OA 
HETATM   17  C   UNL     2      -9.486  15.230  67.263  1.00  0.00    -0.208 C  
HETATM   18  C   UNL     2     -10.192  16.438  66.755  1.00  0.00    -0.285 C  
HETATM   19  O   UNL     2     -10.383  16.735  65.437  1.00  0.00    -0.597 OA 
ENDBRANCH   8  11
ENDBRANCH   3   8
BRANCH   7  20
HETATM   20  C   UNL     3      -9.437  10.767  65.493  1.00  0.00    -0.210 C  
HETATM   21  O   UNL     3      -8.538  11.865  65.347  1.00  0.00    -0.285 OA 
HETATM   22  H   UNL     3      -8.689  12.302  64.517  1.00  0.00     0.000 HD 
BRANCH  20  23
HETATM   23  C   UNL     3     -10.872  11.095  64.996  1.00  0.00    -0.173 C  
HETATM   24  O   UNL     3     -12.816  13.768  66.034  1.00  0.00    -0.402 OA 
HETATM   25  C   UNL     3     -11.802  12.965  64.021  1.00  0.00    -0.443 C  
HETATM   26  C   UNL     3     -11.210  11.801  63.725  1.00  0.00    -0.436 C  
HETATM   27  O   UNL     3     -12.317  13.874  63.125  1.00  0.00    -1.122 OA 
HETATM   28  O   UNL     3     -11.650  11.780  65.991  1.00  0.00    -0.388 OA 
HETATM   29  C   UNL     3     -12.102  12.965  65.454  1.00  0.00    -0.454 C  
HETATM   30  O   UNL     3     -11.008  11.136  62.683  1.00  0.00     0.399 OA 
HETATM   31  H   UNL     3     -12.122  13.873  62.195  1.00  0.00     0.000 HD 
ENDBRANCH  20  23
ENDBRANCH   7  20
TORSDOF 4
ENDMDL
MODEL      163
REMARK 921   NORMALIZED FREE ENERGY PREDICTED BY IDOCK:   -4.96 KCAL/MOL
REMARK 922        TOTAL FREE ENERGY PREDICTED BY IDOCK:   -8.05 KCAL/MOL
REMARK 923 INTER-LIGAND FREE ENERGY PREDICTED BY IDOCK:   -7.25 KCAL/MOL
REMARK 924 INTRA-LIGAND FREE ENERGY PREDICTED BY IDOCK:   -0.80 KCAL/MOL
REMARK 927      BINDING AFFINITY PREDICTED BY RF-SCORE:    0.00 PKD
ROOT
HETATM    1 CA   UNL     1      -7.991  14.396  70.074  1.00  0.00    -0.344 Ca 
HETATM    2  O   UNL     2     -14.409  15.526  72.623  1.00  0.00    -0.455 OA 
HETATM    3  C   UNL     2     -12.999  15.475  72.382  1.00  0.00    -0.421 C  
HETATM    4  H   UNL     2     -14.545  16.047  73.406  1.00  0.00     0.000 HD 
HETATM    5  O   UNL     3     -10.388  17.242  66.094  1.00  0.00    -0.341 OA 
HETATM    6  H   UNL     3     -11.209  17.421  65.651  1.00  0.00     0.000 HD 
HETATM    7  C   UNL     3      -9.911  15.966  65.579  1.00  0.00    -0.230 C  
ENDROOT
BRANCH   3   8
HETATM    8  C   UNL     2     -12.784  14.646  71.137  1.00  0.00    -0.339 C  
HETATM    9  H   UNL     2     -12.551  12.736  70.741  1.00  0.00     0.000 HD 
HETATM   10  O   UNL     2     -12.686  13.258  71.524  1.00  0.00    -0.340 OA 
BRANCH   8  11
HETATM   11  C   UNL     2     -11.541  14.999  70.293  1.00  0.00    -0.288 C  
HETATM   12  C   UNL     2     -11.695  15.505  68.881  1.00  0.00    -0.370 C  
HETATM   13  O   UNL     2     -10.978  13.715  70.002  1.00  0.00     0.123 OA 
HETATM   14  O   UNL     2     -11.942  12.086  68.678  1.00  0.00    -0.316 OA 
HETATM   15  H   UNL     2     -12.459  15.171  66.252  1.00  0.00     0.000 HD 
HETATM   16  O   UNL     2     -11.332  16.686  68.626  1.00  0.00    -0.304 OA 
HETATM   17  C   UNL     2     -11.733  13.242  68.967  1.00  0.00    -0.322 C  
HETATM   18  C   UNL     2     -12.053  14.433  68.134  1.00  0.00    -0.223 C  
HETATM   19  O   UNL     2     -12.255  14.411  66.784  1.00  0.00    -0.420 OA 
ENDBRANCH   8  11
ENDBRANCH   3   8
BRANCH   7  20
HETATM   20  C   UNL     3      -8.586  15.677  66.293  1.00  0.00    -0.230 C  
HETATM   21  O   UNL     3      -8.810  14.822  67.413  1.00  0.00    -0.174 OA 
HETATM   22  H   UNL     3      -7.989  14.642  67.856  1.00  0.00     0.000 HD 
BRANCH  20  23
HETATM   23  C   UNL     3      -7.560  16.804  66.594  1.00  0.00    -0.276 C  
HETATM   24  O   UNL     3      -7.677  20.035  65.349  1.00  0.00    -0.317 OA 
HETATM   25  C   UNL     3      -7.777  18.926  67.467  1.00  0.00    -0.233 C  
HETATM   26  C   UNL     3      -7.541  17.656  67.820  1.00  0.00    -0.206 C  
HETATM   27  O   UNL     3      -7.781  20.022  68.300  1.00  0.00    -0.290 OA 
HETATM   28  O   UNL     3      -7.454  17.747  65.514  1.00  0.00    -0.491 OA 
HETATM   29  C   UNL     3      -7.713  19.007  66.006  1.00  0.00    -0.229 C  
HETATM   30  O   UNL     3      -7.189  17.066  68.866  1.00  0.00    -0.219 OA 
HETATM   31  H   UNL     3      -7.822  19.969  69.248  1.00  0.00     0.000 HD 
ENDBRANCH  20  23
ENDBRANCH   7  20
TORSDOF 4
ENDMDL
MODEL      164
REMARK 921   NORMALIZED FREE ENERGY PREDICTED BY IDOCK:   -4.96 KCAL/MOL
REMARK 922        TOTAL FREE ENERGY PREDICTED BY IDOCK:   -8.05 KCAL/MOL
REMARK 923 INTER-LIGAND FREE ENERGY PREDICTED BY IDOCK:   -6.49 KCAL/MOL
REMARK 924 INTRA-LIGAND FREE ENERGY PREDICTED BY IDOCK:   -1.55 KCAL/MOL
REMARK 927      BINDING AFFINITY PREDICTED BY RF-SCORE:    0.00 PKD
ROOT
HETATM    1 CA   UNL     1     -12.150   6.506  69.263  1.00  0.00    -0.515 Ca 
HETATM    2  O   UNL     2      -7.039   4.288  65.028  1.00  0.00    -0.060 OA 
HETATM    3  C   UNL     2      -8.288   4.569  65.671  1.00  0.00    -0.115 C  
HETATM    4  H   UNL     2      -7.231   3.789  64.243  1.00  0.00     0.000 HD 
HETATM    5  O   UNL     3      -9.984  11.162  67.440  1.00  0.00    -0.176 OA 
HETATM    6  H   UNL     3      -9.186  11.590  67.155  1.00  0.00     0.000 HD 
HETATM    7  C   UNL     3      -9.934  11.123  68.895  1.00  0.00    -0.175 C  
ENDROOT
BRANCH   3   8
HETATM    8  C   UNL     2      -7.982   5.363  66.920  1.00  0.00    -0.101 C  
HETATM    9  H   UNL     2      -7.066   5.011  68.622  1.00  0.00     0.000 HD 
HETATM   10  O   UNL     2      -7.258   4.512  67.836  1.00  0.00    -0.063 OA 
BRANCH   8  11
HETATM   11  C   UNL     2      -9.199   5.948  67.667  1.00  0.00    -0.104 C  
HETATM   12  C   UNL     2     -10.253   6.725  66.919  1.00  0.00    -0.231 C  
HETATM   13  O   UNL     2      -8.627   7.026  68.415  1.00  0.00    -0.126 OA 
HETATM   14  O   UNL     2      -7.710   8.951  67.524  1.00  0.00    -0.098 OA 
HETATM   15  H   UNL     2     -11.068   8.898  65.430  1.00  0.00     0.000 HD 
HETATM   16  O   UNL     2     -11.417   6.242  66.852  1.00  0.00    -0.134 OA 
HETATM   17  C   UNL     2      -8.506   8.039  67.508  1.00  0.00    -0.127 C  
HETATM   18  C   UNL     2      -9.699   7.925  66.625  1.00  0.00    -0.235 C  
HETATM   19  O   UNL     2     -10.307   8.971  65.993  1.00  0.00    -0.147 OA 
ENDBRANCH   8  11
ENDBRANCH   3   8
BRANCH   7  20
HETATM   20  C   UNL     3     -11.223  10.433  69.356  1.00  0.00    -0.259 C  
HETATM   21  O   UNL     3     -12.345  10.980  68.666  1.00  0.00    -0.753 OA 
HETATM   22  H   UNL     3     -13.144  10.553  68.952  1.00  0.00     0.000 HD 
BRANCH  20  23
HETATM   23  C   UNL     3     -11.512  10.170  70.860  1.00  0.00    -0.360 C  
HETATM   24  O   UNL     3     -14.366   8.685  72.145  1.00  0.00    -0.446 OA 
HETATM   25  C   UNL     3     -12.013   8.259  72.046  1.00  0.00    -0.348 C  
HETATM   26  C   UNL     3     -10.985   9.023  71.658  1.00  0.00    -0.365 C  
HETATM   27  O   UNL     3     -11.948   7.143  72.850  1.00  0.00    -0.517 OA 
HETATM   28  O   UNL     3     -12.919  10.180  71.154  1.00  0.00    -0.353 OA 
HETATM   29  C   UNL     3     -13.251   8.982  71.748  1.00  0.00    -0.389 C  
HETATM   30  O   UNL     3      -9.760   9.076  71.910  1.00  0.00    -0.299 OA 
HETATM   31  H   UNL     3     -11.144   6.674  73.044  1.00  0.00     0.000 HD 
ENDBRANCH  20  23
ENDBRANCH   7  20
TORSDOF 4
ENDMDL
MODEL      165
REMARK 921   NORMALIZED FREE ENERGY PREDICTED BY IDOCK:   -4.95 KCAL/MOL
REMARK 922        TOTAL FREE ENERGY PREDICTED BY IDOCK:   -8.04 KCAL/MOL
REMARK 923 INTER-LIGAND FREE ENERGY PREDICTED BY IDOCK:   -6.22 KCAL/MOL
REMARK 924 INTRA-LIGAND FREE ENERGY PREDICTED BY IDOCK:   -1.82 KCAL/MOL
REMARK 927      BINDING AFFINITY PREDICTED BY RF-SCORE:    0.00 PKD
ROOT
HETATM    1 CA   UNL     1     -11.953   9.478  68.334  1.00  0.00    -0.490 Ca 
HETATM    2  O   UNL     2      -7.829   4.746  71.429  1.00  0.00    -0.090 OA 
HETATM    3  C   UNL     2      -8.901   5.452  70.793  1.00  0.00    -0.133 C  
HETATM    4  H   UNL     2      -8.119   3.851  71.562  1.00  0.00     0.000 HD 
HETATM    5  O   UNL     3      -7.768   9.070  64.868  1.00  0.00    -0.104 OA 
HETATM    6  H   UNL     3      -6.834   8.915  64.790  1.00  0.00     0.000 HD 
HETATM    7  C   UNL     3      -7.923  10.451  65.305  1.00  0.00    -0.143 C  
ENDROOT
BRANCH   3   8
HETATM    8  C   UNL     2      -8.439   6.875  70.581  1.00  0.00    -0.136 C  
HETATM    9  H   UNL     2      -8.050   8.414  71.738  1.00  0.00     0.000 HD 
HETATM   10  O   UNL     2      -8.339   7.519  71.871  1.00  0.00    -0.104 OA 
BRANCH   8  11
HETATM   11  C   UNL     2      -9.332   7.750  69.675  1.00  0.00    -0.153 C  
HETATM   12  C   UNL     2      -9.848   7.213  68.364  1.00  0.00    -0.152 C  
HETATM   13  O   UNL     2      -8.412   8.721  69.163  1.00  0.00    -0.119 OA 
HETATM   14  O   UNL     2      -6.649   8.289  67.734  1.00  0.00    -0.059 OA 
HETATM   15  H   UNL     2      -9.455   6.275  65.802  1.00  0.00     0.000 HD 
HETATM   16  O   UNL     2     -11.092   7.048  68.234  1.00  0.00    -0.122 OA 
HETATM   17  C   UNL     2      -7.763   8.070  68.153  1.00  0.00    -0.118 C  
HETATM   18  C   UNL     2      -8.790   7.198  67.520  1.00  0.00    -0.119 C  
HETATM   19  O   UNL     2      -8.800   6.831  66.206  1.00  0.00    -0.140 OA 
ENDBRANCH   8  11
ENDBRANCH   3   8
BRANCH   7  20
HETATM   20  C   UNL     3      -9.430  10.701  65.431  1.00  0.00    -0.215 C  
HETATM   21  O   UNL     3     -10.145   9.479  65.257  1.00  0.00    -0.387 OA 
HETATM   22  H   UNL     3     -11.079   9.634  65.335  1.00  0.00     0.000 HD 
BRANCH  20  23
HETATM   23  C   UNL     3     -10.117  11.904  64.728  1.00  0.00    -0.262 C  
HETATM   24  O   UNL     3     -13.151  11.814  63.060  1.00  0.00    -0.508 OA 
HETATM   25  C   UNL     3     -12.188  12.885  64.970  1.00  0.00    -0.464 C  
HETATM   26  C   UNL     3     -10.925  12.960  65.406  1.00  0.00    -0.278 C  
HETATM   27  O   UNL     3     -13.225  13.724  65.311  1.00  0.00    -0.755 OA 
HETATM   28  O   UNL     3     -10.940  11.493  63.624  1.00  0.00    -0.386 OA 
HETATM   29  C   UNL     3     -12.217  11.968  63.829  1.00  0.00    -0.498 C  
HETATM   30  O   UNL     3     -10.263  13.758  66.110  1.00  0.00    -0.286 OA 
HETATM   31  H   UNL     3     -13.205  14.320  66.051  1.00  0.00     0.000 HD 
ENDBRANCH  20  23
ENDBRANCH   7  20
TORSDOF 4
ENDMDL
MODEL      166
REMARK 921   NORMALIZED FREE ENERGY PREDICTED BY IDOCK:   -4.95 KCAL/MOL
REMARK 922        TOTAL FREE ENERGY PREDICTED BY IDOCK:   -8.04 KCAL/MOL
REMARK 923 INTER-LIGAND FREE ENERGY PREDICTED BY IDOCK:   -7.19 KCAL/MOL
REMARK 924 INTRA-LIGAND FREE ENERGY PREDICTED BY IDOCK:   -0.85 KCAL/MOL
REMARK 927      BINDING AFFINITY PREDICTED BY RF-SCORE:    0.00 PKD
ROOT
HETATM    1 CA   UNL     1     -11.856   9.771  67.973  1.00  0.00    -0.525 Ca 
HETATM    2  O   UNL     2     -11.436  16.742  68.426  1.00  0.00    -0.200 OA 
HETATM    3  C   UNL     2     -11.509  15.334  68.680  1.00  0.00    -0.337 C  
HETATM    4  H   UNL     2     -11.342  17.177  69.266  1.00  0.00     0.000 HD 
HETATM    5  O   UNL     3      -7.225  10.877  65.325  1.00  0.00    -0.358 OA 
HETATM    6  H   UNL     3      -6.773  11.509  64.778  1.00  0.00     0.000 HD 
HETATM    7  C   UNL     3      -8.139  10.155  64.452  1.00  0.00    -0.163 C  
ENDROOT
BRANCH   3   8
HETATM    8  C   UNL     2     -11.658  14.643  67.345  1.00  0.00    -0.389 C  
HETATM    9  H   UNL     2     -12.478  12.976  66.707  1.00  0.00     0.000 HD 
HETATM   10  O   UNL     2     -12.385  13.411  67.547  1.00  0.00    -0.246 OA 
BRANCH   8  11
HETATM   11  C   UNL     2     -10.345  14.311  66.603  1.00  0.00    -0.279 C  
HETATM   12  C   UNL     2      -9.156  15.232  66.705  1.00  0.00    -0.256 C  
HETATM   13  O   UNL     2     -10.685  14.548  65.232  1.00  0.00    -0.326 OA 
HETATM   14  O   UNL     2     -11.191  16.601  64.301  1.00  0.00    -1.098 OA 
HETATM   15  H   UNL     2      -7.917  17.655  66.260  1.00  0.00     0.000 HD 
HETATM   16  O   UNL     2      -8.116  14.804  67.276  1.00  0.00    -0.185 OA 
HETATM   17  C   UNL     2     -10.598  15.903  65.093  1.00  0.00    -0.397 C  
HETATM   18  C   UNL     2      -9.454  16.317  65.951  1.00  0.00    -0.283 C  
HETATM   19  O   UNL     2      -8.647  17.391  65.713  1.00  0.00    -0.526 OA 
ENDBRANCH   8  11
ENDBRANCH   3   8
BRANCH   7  20
HETATM   20  C   UNL     3      -8.869   9.136  65.334  1.00  0.00    -0.196 C  
HETATM   21  O   UNL     3     -10.265   9.427  65.367  1.00  0.00    -0.306 OA 
HETATM   22  H   UNL     3     -10.717   8.795  65.914  1.00  0.00     0.000 HD 
BRANCH  20  23
HETATM   23  C   UNL     3      -8.311   8.713  66.722  1.00  0.00    -0.108 C  
HETATM   24  O   UNL     3      -9.327   9.974  69.784  1.00  0.00    -0.220 OA 
HETATM   25  C   UNL     3      -9.311   7.882  68.624  1.00  0.00    -0.145 C  
HETATM   26  C   UNL     3      -8.717   7.498  67.487  1.00  0.00    -0.125 C  
HETATM   27  O   UNL     3      -9.770   7.059  69.627  1.00  0.00    -0.157 OA 
HETATM   28  O   UNL     3      -8.391   9.775  67.687  1.00  0.00    -0.114 OA 
HETATM   29  C   UNL     3      -9.104   9.323  68.777  1.00  0.00    -0.136 C  
HETATM   30  O   UNL     3      -8.317   6.414  67.004  1.00  0.00    -0.112 OA 
HETATM   31  H   UNL     3      -9.904   6.123  69.528  1.00  0.00     0.000 HD 
ENDBRANCH  20  23
ENDBRANCH   7  20
TORSDOF 4
ENDMDL
MODEL      167
REMARK 921   NORMALIZED FREE ENERGY PREDICTED BY IDOCK:   -4.94 KCAL/MOL
REMARK 922        TOTAL FREE ENERGY PREDICTED BY IDOCK:   -8.03 KCAL/MOL
REMARK 923 INTER-LIGAND FREE ENERGY PREDICTED BY IDOCK:   -7.15 KCAL/MOL
REMARK 924 INTRA-LIGAND FREE ENERGY PREDICTED BY IDOCK:   -0.87 KCAL/MOL
REMARK 927      BINDING AFFINITY PREDICTED BY RF-SCORE:    0.00 PKD
ROOT
HETATM    1 CA   UNL     1      -7.220  14.179  66.955  1.00  0.00    -0.194 Ca 
HETATM    2  O   UNL     2      -7.034  20.999  65.395  1.00  0.00    -0.509 OA 
HETATM    3  C   UNL     2      -6.773  19.598  65.538  1.00  0.00    -0.285 C  
HETATM    4  H   UNL     2      -6.338  21.364  64.861  1.00  0.00     0.000 HD 
HETATM    5  O   UNL     3     -11.736  14.863  63.985  1.00  0.00    -0.673 OA 
HETATM    6  H   UNL     3     -12.433  15.466  63.756  1.00  0.00     0.000 HD 
HETATM    7  C   UNL     3     -12.076  14.318  65.292  1.00  0.00    -0.400 C  
ENDROOT
BRANCH   3   8
HETATM    8  C   UNL     2      -7.880  19.018  66.387  1.00  0.00    -0.278 C  
HETATM    9  H   UNL     2      -9.842  18.982  66.308  1.00  0.00     0.000 HD 
HETATM   10  O   UNL     2      -9.146  19.347  65.774  1.00  0.00    -0.379 OA 
BRANCH   8  11
HETATM   11  C   UNL     2      -7.922  19.485  67.858  1.00  0.00    -0.301 C  
HETATM   12  C   UNL     2      -6.877  19.015  68.839  1.00  0.00    -0.314 C  
HETATM   13  O   UNL     2      -9.048  18.775  68.385  1.00  0.00    -0.317 OA 
HETATM   14  O   UNL     2      -9.194  16.486  68.662  1.00  0.00    -0.221 OA 
HETATM   15  H   UNL     2      -5.626  17.031  70.287  1.00  0.00     0.000 HD 
HETATM   16  O   UNL     2      -6.089  19.870  69.327  1.00  0.00    -0.264 OA 
HETATM   17  C   UNL     2      -8.568  17.522  68.639  1.00  0.00    -0.259 C  
HETATM   18  C   UNL     2      -7.170  17.721  69.110  1.00  0.00    -0.147 C  
HETATM   19  O   UNL     2      -6.517  16.904  69.987  1.00  0.00    -0.107 OA 
ENDBRANCH   8  11
ENDBRANCH   3   8
BRANCH   7  20
HETATM   20  C   UNL     3     -10.951  13.345  65.662  1.00  0.00    -0.281 C  
HETATM   21  O   UNL     3     -10.734  12.419  64.598  1.00  0.00    -0.278 OA 
HETATM   22  H   UNL     3     -10.037  11.816  64.827  1.00  0.00     0.000 HD 
BRANCH  20  23
HETATM   23  C   UNL     3     -10.881  12.676  67.063  1.00  0.00    -0.253 C  
HETATM   24  O   UNL     3     -10.992   9.271  67.690  1.00  0.00    -0.204 OA 
HETATM   25  C   UNL     3      -9.472  11.097  67.976  1.00  0.00    -0.174 C  
HETATM   26  C   UNL     3      -9.634  12.419  67.841  1.00  0.00    -0.205 C  
HETATM   27  O   UNL     3      -8.476  10.460  68.680  1.00  0.00    -0.115 OA 
HETATM   28  O   UNL     3     -11.580  11.420  67.102  1.00  0.00    -0.519 OA 
HETATM   29  C   UNL     3     -10.703  10.445  67.524  1.00  0.00    -0.287 C  
HETATM   30  O   UNL     3      -9.086  13.443  68.311  1.00  0.00    -0.189 OA 
HETATM   31  H   UNL     3      -7.678  10.884  68.974  1.00  0.00     0.000 HD 
ENDBRANCH  20  23
ENDBRANCH   7  20
TORSDOF 4
ENDMDL
MODEL      168
REMARK 921   NORMALIZED FREE ENERGY PREDICTED BY IDOCK:   -4.94 KCAL/MOL
REMARK 922        TOTAL FREE ENERGY PREDICTED BY IDOCK:   -8.02 KCAL/MOL
REMARK 923 INTER-LIGAND FREE ENERGY PREDICTED BY IDOCK:   -7.35 KCAL/MOL
REMARK 924 INTRA-LIGAND FREE ENERGY PREDICTED BY IDOCK:   -0.66 KCAL/MOL
REMARK 927      BINDING AFFINITY PREDICTED BY RF-SCORE:    0.00 PKD
ROOT
HETATM    1 CA   UNL     1     -10.936  16.074  63.472  1.00  0.00    -0.629 Ca 
HETATM    2  O   UNL     2      -9.324   9.322  62.582  1.00  0.00    -0.554 OA 
HETATM    3  C   UNL     2      -9.609  10.716  62.420  1.00  0.00    -0.138 C  
HETATM    4  H   UNL     2      -9.090   8.980  61.727  1.00  0.00     0.000 HD 
HETATM    5  O   UNL     3      -6.419  15.505  66.465  1.00  0.00     0.101 OA 
HETATM    6  H   UNL     3      -5.915  14.910  67.008  1.00  0.00     0.000 HD 
HETATM    7  C   UNL     3      -7.510  15.996  67.295  1.00  0.00    -0.201 C  
ENDROOT
BRANCH   3   8
HETATM    8  C   UNL     2      -9.981  11.261  63.779  1.00  0.00    -0.342 C  
HETATM    9  H   UNL     2     -10.273  13.045  64.548  1.00  0.00     0.000 HD 
HETATM   10  O   UNL     2     -10.040  12.702  63.693  1.00  0.00    -0.385 OA 
BRANCH   8  11
HETATM   11  C   UNL     2      -9.036  10.887  64.941  1.00  0.00    -0.152 C  
HETATM   12  C   UNL     2      -9.108   9.521  65.575  1.00  0.00    -0.212 C  
HETATM   13  O   UNL     2      -9.551  11.659  66.032  1.00  0.00    -0.217 OA 
HETATM   14  O   UNL     2     -11.607  11.362  67.044  1.00  0.00    -0.510 OA 
HETATM   15  H   UNL     2     -10.433   7.582  67.019  1.00  0.00     0.000 HD 
HETATM   16  O   UNL     2      -8.115   8.752  65.453  1.00  0.00    -0.111 OA 
HETATM   17  C   UNL     2     -10.625  10.941  66.475  1.00  0.00    -0.237 C  
HETATM   18  C   UNL     2     -10.236   9.512  66.324  1.00  0.00    -0.220 C  
HETATM   19  O   UNL     2     -10.681   8.494  67.115  1.00  0.00    -0.280 OA 
ENDBRANCH   8  11
ENDBRANCH   3   8
BRANCH   7  20
HETATM   20  C   UNL     3      -8.324  16.956  66.420  1.00  0.00    -0.298 C  
HETATM   21  O   UNL     3      -7.452  17.854  65.736  1.00  0.00    -0.520 OA 
HETATM   22  H   UNL     3      -7.956  18.449  65.193  1.00  0.00     0.000 HD 
BRANCH  20  23
HETATM   23  C   UNL     3      -9.608  17.652  66.950  1.00  0.00    -0.286 C  
HETATM   24  O   UNL     3     -11.137  17.031  69.996  1.00  0.00    -0.006 OA 
HETATM   25  C   UNL     3     -10.062  18.847  68.868  1.00  0.00    -0.311 C  
HETATM   26  C   UNL     3      -9.662  18.995  67.599  1.00  0.00    -0.315 C  
HETATM   27  O   UNL     3     -10.295  19.854  69.777  1.00  0.00    -0.604 OA 
HETATM   28  O   UNL     3     -10.357  16.806  67.839  1.00  0.00    -0.293 OA 
HETATM   29  C   UNL     3     -10.520  17.467  69.037  1.00  0.00    -0.285 C  
HETATM   30  O   UNL     3      -9.466  19.961  66.826  1.00  0.00    -0.347 OA 
HETATM   31  H   UNL     3      -9.998  20.749  69.666  1.00  0.00     0.000 HD 
ENDBRANCH  20  23
ENDBRANCH   7  20
TORSDOF 4
ENDMDL
MODEL      169
REMARK 921   NORMALIZED FREE ENERGY PREDICTED BY IDOCK:   -4.93 KCAL/MOL
REMARK 922        TOTAL FREE ENERGY PREDICTED BY IDOCK:   -8.01 KCAL/MOL
REMARK 923 INTER-LIGAND FREE ENERGY PREDICTED BY IDOCK:   -7.01 KCAL/MOL
REMARK 924 INTRA-LIGAND FREE ENERGY PREDICTED BY IDOCK:   -1.00 KCAL/MOL
REMARK 927      BINDING AFFINITY PREDICTED BY RF-SCORE:    0.00 PKD
ROOT
HETATM    1 CA   UNL     1     -10.944  16.739  64.904  1.00  0.00    -0.356 Ca 
HETATM    2  O   UNL     2      -9.850   9.941  63.655  1.00  0.00    -0.490 OA 
HETATM    3  C   UNL     2      -9.859  11.373  63.640  1.00  0.00    -0.348 C  
HETATM    4  H   UNL     2      -9.254   9.654  62.972  1.00  0.00     0.000 HD 
HETATM    5  O   UNL     3      -8.655  15.012  69.538  1.00  0.00    -0.384 OA 
HETATM    6  H   UNL     3      -8.563  14.279  70.134  1.00  0.00     0.000 HD 
HETATM    7  C   UNL     3      -9.955  15.608  69.814  1.00  0.00    -0.277 C  
ENDROOT
BRANCH   3   8
HETATM    8  C   UNL     2     -10.806  11.828  64.727  1.00  0.00    -0.302 C  
HETATM    9  H   UNL     2     -12.553  12.723  64.786  1.00  0.00     0.000 HD 
HETATM   10  O   UNL     2     -11.959  12.437  64.103  1.00  0.00    -0.376 OA 
BRANCH   8  11
HETATM   11  C   UNL     2     -10.230  12.827  65.753  1.00  0.00    -0.289 C  
HETATM   12  C   UNL     2      -9.232  12.371  66.786  1.00  0.00    -0.212 C  
HETATM   13  O   UNL     2     -11.344  13.070  66.620  1.00  0.00    -0.299 OA 
HETATM   14  O   UNL     2     -12.317  11.523  68.034  1.00  0.00    -0.445 OA 
HETATM   15  H   UNL     2      -8.533  10.862  68.985  1.00  0.00     0.000 HD 
HETATM   16  O   UNL     2      -8.061  12.836  66.732  1.00  0.00    -0.047 OA 
HETATM   17  C   UNL     2     -11.362  11.990  67.456  1.00  0.00    -0.319 C  
HETATM   18  C   UNL     2      -9.932  11.650  67.693  1.00  0.00    -0.188 C  
HETATM   19  O   UNL     2      -9.444  11.079  68.833  1.00  0.00    -0.195 OA 
ENDBRANCH   8  11
ENDBRANCH   3   8
BRANCH   7  20
HETATM   20  C   UNL     3     -10.104  16.792  68.852  1.00  0.00    -0.285 C  
HETATM   21  O   UNL     3     -11.189  16.561  67.955  1.00  0.00    -0.314 OA 
HETATM   22  H   UNL     3     -11.282  17.295  67.359  1.00  0.00     0.000 HD 
BRANCH  20  23
HETATM   23  C   UNL     3      -8.873  17.432  68.152  1.00  0.00    -0.253 C  
HETATM   24  O   UNL     3      -5.664  17.598  69.448  1.00  0.00    -0.194 OA 
HETATM   25  C   UNL     3      -6.795  16.613  67.583  1.00  0.00    -0.141 C  
HETATM   26  C   UNL     3      -8.034  16.779  67.103  1.00  0.00    -0.181 C  
HETATM   27  O   UNL     3      -5.713  16.104  66.901  1.00  0.00    -0.341 OA 
HETATM   28  O   UNL     3      -7.915  17.943  69.094  1.00  0.00    -0.119 OA 
HETATM   29  C   UNL     3      -6.695  17.356  68.841  1.00  0.00    -0.226 C  
HETATM   30  O   UNL     3      -8.591  16.649  65.989  1.00  0.00    -0.429 OA 
HETATM   31  H   UNL     3      -5.778  15.622  66.084  1.00  0.00     0.000 HD 
ENDBRANCH  20  23
ENDBRANCH   7  20
TORSDOF 4
ENDMDL
MODEL      170
REMARK 921   NORMALIZED FREE ENERGY PREDICTED BY IDOCK:   -4.91 KCAL/MOL
REMARK 922        TOTAL FREE ENERGY PREDICTED BY IDOCK:   -7.99 KCAL/MOL
REMARK 923 INTER-LIGAND FREE ENERGY PREDICTED BY IDOCK:   -7.78 KCAL/MOL
REMARK 924 INTRA-LIGAND FREE ENERGY PREDICTED BY IDOCK:   -0.21 KCAL/MOL
REMARK 927      BINDING AFFINITY PREDICTED BY RF-SCORE:    0.00 PKD
ROOT
HETATM    1 CA   UNL     1     -10.527  17.562  65.488  1.00  0.00    -0.313 Ca 
HETATM    2  O   UNL     2     -12.642  11.454  62.805  1.00  0.00    -0.952 OA 
HETATM    3  C   UNL     2     -12.187  12.795  63.019  1.00  0.00    -0.001 C  
HETATM    4  H   UNL     2     -12.672  11.312  61.866  1.00  0.00     0.000 HD 
HETATM    5  O   UNL     3      -6.743  14.078  67.285  1.00  0.00    -0.386 OA 
HETATM    6  H   UNL     3      -6.578  13.186  67.566  1.00  0.00     0.000 HD 
HETATM    7  C   UNL     3      -7.374  14.754  68.410  1.00  0.00    -0.116 C  
ENDROOT
BRANCH   3   8
HETATM    8  C   UNL     2     -12.138  13.021  64.513  1.00  0.00    -0.410 C  
HETATM    9  H   UNL     2     -13.163  12.389  66.065  1.00  0.00     0.000 HD 
HETATM   10  O   UNL     2     -13.193  12.247  65.126  1.00  0.00    -0.297 OA 
BRANCH   8  11
HETATM   11  C   UNL     2     -12.279  14.484  64.982  1.00  0.00    -0.373 C  
HETATM   12  C   UNL     2     -11.222  15.502  64.637  1.00  0.00    -0.371 C  
HETATM   13  O   UNL     2     -12.038  14.391  66.391  1.00  0.00    -0.414 OA 
HETATM   14  O   UNL     2     -10.032  13.818  67.383  1.00  0.00    -0.232 OA 
HETATM   15  H   UNL     2      -8.650  16.483  64.803  1.00  0.00     0.000 HD 
HETATM   16  O   UNL     2     -11.537  16.457  63.875  1.00  0.00    -1.100 OA 
HETATM   17  C   UNL     2     -10.678  14.330  66.497  1.00  0.00    -0.297 C  
HETATM   18  C   UNL     2     -10.157  15.221  65.424  1.00  0.00    -0.362 C  
HETATM   19  O   UNL     2      -8.983  15.915  65.487  1.00  0.00    -0.222 OA 
ENDBRANCH   8  11
ENDBRANCH   3   8
BRANCH   7  20
HETATM   20  C   UNL     3      -7.642  16.194  67.956  1.00  0.00    -0.133 C  
HETATM   21  O   UNL     3      -6.465  16.751  67.372  1.00  0.00    -0.133 OA 
HETATM   22  H   UNL     3      -6.631  17.643  67.091  1.00  0.00     0.000 HD 
BRANCH  20  23
HETATM   23  C   UNL     3      -8.399  17.205  68.861  1.00  0.00    -0.183 C  
HETATM   24  O   UNL     3      -8.361  20.652  68.520  1.00  0.00     0.380 OA 
HETATM   25  C   UNL     3      -9.941  18.858  68.411  1.00  0.00    -0.391 C  
HETATM   26  C   UNL     3      -9.843  17.564  68.742  1.00  0.00    -0.326 C  
HETATM   27  O   UNL     3     -11.103  19.583  68.268  1.00  0.00    -0.187 OA 
HETATM   28  O   UNL     3      -7.730  18.475  68.937  1.00  0.00    -0.295 OA 
HETATM   29  C   UNL     3      -8.612  19.458  68.542  1.00  0.00    -0.364 C  
HETATM   30  O   UNL     3     -10.640  16.664  69.092  1.00  0.00    -0.302 OA 
HETATM   31  H   UNL     3     -11.965  19.193  68.184  1.00  0.00     0.000 HD 
ENDBRANCH  20  23
ENDBRANCH   7  20
TORSDOF 4
ENDMDL
MODEL      171
REMARK 921   NORMALIZED FREE ENERGY PREDICTED BY IDOCK:   -4.90 KCAL/MOL
REMARK 922        TOTAL FREE ENERGY PREDICTED BY IDOCK:   -7.97 KCAL/MOL
REMARK 923 INTER-LIGAND FREE ENERGY PREDICTED BY IDOCK:   -7.27 KCAL/MOL
REMARK 924 INTRA-LIGAND FREE ENERGY PREDICTED BY IDOCK:   -0.70 KCAL/MOL
REMARK 927      BINDING AFFINITY PREDICTED BY RF-SCORE:    0.00 PKD
ROOT
HETATM    1 CA   UNL     1     -13.005  13.157  69.468  1.00  0.00    -0.123 Ca 
HETATM    2  O   UNL     2      -9.059  18.889  68.732  1.00  0.00    -0.345 OA 
HETATM    3  C   UNL     2      -9.929  17.851  69.197  1.00  0.00    -0.195 C  
HETATM    4  H   UNL     2      -8.954  19.510  69.443  1.00  0.00     0.000 HD 
HETATM    5  O   UNL     3      -8.020  11.101  68.687  1.00  0.00    -0.130 OA 
HETATM    6  H   UNL     3      -7.185  11.228  68.253  1.00  0.00     0.000 HD 
HETATM    7  C   UNL     3      -8.936  10.587  67.678  1.00  0.00    -0.138 C  
ENDROOT
BRANCH   3   8
HETATM    8  C   UNL     2     -10.096  16.864  68.065  1.00  0.00    -0.293 C  
HETATM    9  H   UNL     2      -9.516  15.021  67.708  1.00  0.00     0.000 HD 
HETATM   10  O   UNL     2      -9.411  15.642  68.420  1.00  0.00    -0.191 OA 
BRANCH   8  11
HETATM   11  C   UNL     2      -9.580  17.321  66.684  1.00  0.00    -0.276 C  
HETATM   12  C   UNL     2     -10.550  17.717  65.599  1.00  0.00    -0.135 C  
HETATM   13  O   UNL     2      -9.094  16.104  66.107  1.00  0.00    -0.304 OA 
HETATM   14  O   UNL     2     -10.385  14.288  65.497  1.00  0.00    -0.317 OA 
HETATM   15  H   UNL     2     -12.569  17.129  63.816  1.00  0.00     0.000 HD 
HETATM   16  O   UNL     2     -10.554  18.916  65.210  1.00  0.00    -0.439 OA 
HETATM   17  C   UNL     2     -10.216  15.477  65.648  1.00  0.00    -0.376 C  
HETATM   18  C   UNL     2     -11.103  16.565  65.151  1.00  0.00    -0.129 C  
HETATM   19  O   UNL     2     -12.004  16.435  64.133  1.00  0.00    -0.860 OA 
ENDBRANCH   8  11
ENDBRANCH   3   8
BRANCH   7  20
HETATM   20  C   UNL     3     -10.284  10.382  68.379  1.00  0.00    -0.165 C  
HETATM   21  O   UNL     3     -11.325  11.012  67.634  1.00  0.00    -0.348 OA 
HETATM   22  H   UNL     3     -12.160  10.884  68.068  1.00  0.00     0.000 HD 
BRANCH  20  23
HETATM   23  C   UNL     3     -10.442  10.576  69.913  1.00  0.00    -0.164 C  
HETATM   24  O   UNL     3     -13.393  10.267  71.701  1.00  0.00    -0.384 OA 
HETATM   25  C   UNL     3     -11.247   9.214  71.589  1.00  0.00    -0.377 C  
HETATM   26  C   UNL     3     -10.119   9.557  70.955  1.00  0.00    -0.260 C  
HETATM   27  O   UNL     3     -11.359   8.349  72.653  1.00  0.00    -0.372 OA 
HETATM   28  O   UNL     3     -11.756  11.035  70.272  1.00  0.00    -0.309 OA 
HETATM   29  C   UNL     3     -12.297  10.149  71.179  1.00  0.00    -0.385 C  
HETATM   30  O   UNL     3      -8.896   9.337  71.115  1.00  0.00    -0.257 OA 
HETATM   31  H   UNL     3     -10.678   7.742  72.919  1.00  0.00     0.000 HD 
ENDBRANCH  20  23
ENDBRANCH   7  20
TORSDOF 4
ENDMDL
MODEL      172
REMARK 921   NORMALIZED FREE ENERGY PREDICTED BY IDOCK:   -4.90 KCAL/MOL
REMARK 922        TOTAL FREE ENERGY PREDICTED BY IDOCK:   -7.97 KCAL/MOL
REMARK 923 INTER-LIGAND FREE ENERGY PREDICTED BY IDOCK:   -7.93 KCAL/MOL
REMARK 924 INTRA-LIGAND FREE ENERGY PREDICTED BY IDOCK:   -0.04 KCAL/MOL
REMARK 927      BINDING AFFINITY PREDICTED BY RF-SCORE:    0.00 PKD
ROOT
HETATM    1 CA   UNL     1      -8.533  13.707  69.772  1.00  0.00    -0.281 Ca 
HETATM    2  O   UNL     2      -6.443  20.323  68.858  1.00  0.00    -0.311 OA 
HETATM    3  C   UNL     2      -6.534  18.917  69.115  1.00  0.00    -0.287 C  
HETATM    4  H   UNL     2      -5.528  20.566  68.934  1.00  0.00     0.000 HD 
HETATM    5  O   UNL     3      -9.775  14.656  64.553  1.00  0.00    -0.421 OA 
HETATM    6  H   UNL     3     -10.052  15.313  63.926  1.00  0.00     0.000 HD 
HETATM    7  C   UNL     3     -10.968  14.255  65.285  1.00  0.00    -0.343 C  
ENDROOT
BRANCH   3   8
HETATM    8  C   UNL     2      -7.990  18.530  68.993  1.00  0.00    -0.115 C  
HETATM    9  H   UNL     2      -8.978  16.929  68.430  1.00  0.00     0.000 HD 
HETATM   10  O   UNL     2      -8.062  17.171  68.507  1.00  0.00    -0.241 OA 
BRANCH   8  11
HETATM   11  C   UNL     2      -8.851  19.418  68.069  1.00  0.00    -0.323 C  
HETATM   12  C   UNL     2     -10.053  18.843  67.362  1.00  0.00    -0.361 C  
HETATM   13  O   UNL     2      -8.003  19.612  66.932  1.00  0.00    -0.263 OA 
HETATM   14  O   UNL     2      -7.340  17.971  65.446  1.00  0.00    -0.495 OA 
HETATM   15  H   UNL     2     -11.205  17.125  65.539  1.00  0.00     0.000 HD 
HETATM   16  O   UNL     2     -11.195  19.280  67.673  1.00  0.00    -0.281 OA 
HETATM   17  C   UNL     2      -8.142  18.462  66.208  1.00  0.00    -0.221 C  
HETATM   18  C   UNL     2      -9.567  18.063  66.368  1.00  0.00    -0.295 C  
HETATM   19  O   UNL     2     -10.296  17.380  65.438  1.00  0.00    -0.631 OA 
ENDBRANCH   8  11
ENDBRANCH   3   8
BRANCH   7  20
HETATM   20  C   UNL     3     -10.520  13.194  66.297  1.00  0.00    -0.285 C  
HETATM   21  O   UNL     3     -11.129  11.940  65.994  1.00  0.00    -0.303 OA 
HETATM   22  H   UNL     3     -10.851  11.282  66.621  1.00  0.00     0.000 HD 
BRANCH  20  23
HETATM   23  C   UNL     3     -10.480  13.489  67.822  1.00  0.00    -0.240 C  
HETATM   24  O   UNL     3     -11.132  16.548  69.312  1.00  0.00    -0.308 OA 
HETATM   25  C   UNL     3     -12.039  14.334  69.294  1.00  0.00    -0.313 C  
HETATM   26  C   UNL     3     -11.571  13.183  68.794  1.00  0.00    -0.308 C  
HETATM   27  O   UNL     3     -13.005  14.473  70.265  1.00  0.00    -0.528 OA 
HETATM   28  O   UNL     3     -10.137  14.856  68.104  1.00  0.00    -0.217 OA 
HETATM   29  C   UNL     3     -11.134  15.407  68.878  1.00  0.00    -0.275 C  
HETATM   30  O   UNL     3     -11.731  11.966  69.041  1.00  0.00    -0.284 OA 
HETATM   31  H   UNL     3     -13.592  13.776  70.535  1.00  0.00     0.000 HD 
ENDBRANCH  20  23
ENDBRANCH   7  20
TORSDOF 4
ENDMDL
MODEL      173
REMARK 921   NORMALIZED FREE ENERGY PREDICTED BY IDOCK:   -4.89 KCAL/MOL
REMARK 922        TOTAL FREE ENERGY PREDICTED BY IDOCK:   -7.96 KCAL/MOL
REMARK 923 INTER-LIGAND FREE ENERGY PREDICTED BY IDOCK:   -6.31 KCAL/MOL
REMARK 924 INTRA-LIGAND FREE ENERGY PREDICTED BY IDOCK:   -1.65 KCAL/MOL
REMARK 927      BINDING AFFINITY PREDICTED BY RF-SCORE:    0.00 PKD
ROOT
HETATM    1 CA   UNL     1     -11.764   9.083  70.783  1.00  0.00    -0.253 Ca 
HETATM    2  O   UNL     2      -8.846   2.723  70.871  1.00  0.00    -0.070 OA 
HETATM    3  C   UNL     2      -9.731   3.847  70.931  1.00  0.00    -0.183 C  
HETATM    4  H   UNL     2      -9.367   1.943  71.023  1.00  0.00     0.000 HD 
HETATM    5  O   UNL     3      -9.917   8.530  65.687  1.00  0.00    -0.386 OA 
HETATM    6  H   UNL     3      -9.237   8.152  65.142  1.00  0.00     0.000 HD 
HETATM    7  C   UNL     3      -9.340   9.718  66.301  1.00  0.00    -0.180 C  
ENDROOT
BRANCH   3   8
HETATM    8  C   UNL     2      -8.902   5.086  70.689  1.00  0.00    -0.126 C  
HETATM    9  H   UNL     2      -7.513   6.064  71.675  1.00  0.00     0.000 HD 
HETATM   10  O   UNL     2      -8.034   5.285  71.827  1.00  0.00    -0.108 OA 
BRANCH   8  11
HETATM   11  C   UNL     2      -9.689   6.393  70.451  1.00  0.00    -0.165 C  
HETATM   12  C   UNL     2     -10.934   6.390  69.599  1.00  0.00    -0.358 C  
HETATM   13  O   UNL     2      -8.828   7.127  69.573  1.00  0.00    -0.137 OA 
HETATM   14  O   UNL     2      -8.301   6.547  67.399  1.00  0.00    -0.119 OA 
HETATM   15  H   UNL     2     -12.223   6.054  67.185  1.00  0.00     0.000 HD 
HETATM   16  O   UNL     2     -12.036   6.657  70.151  1.00  0.00    -0.323 OA 
HETATM   17  C   UNL     2      -9.061   6.585  68.341  1.00  0.00    -0.123 C  
HETATM   18  C   UNL     2     -10.513   6.262  68.318  1.00  0.00    -0.228 C  
HETATM   19  O   UNL     2     -11.296   6.260  67.200  1.00  0.00    -0.261 OA 
ENDBRANCH   8  11
ENDBRANCH   3   8
BRANCH   7  20
HETATM   20  C   UNL     3     -10.437  10.329  67.180  1.00  0.00    -0.254 C  
HETATM   21  O   UNL     3     -11.239   9.296  67.751  1.00  0.00    -0.484 OA 
HETATM   22  H   UNL     3     -11.919   9.675  68.295  1.00  0.00     0.000 HD 
BRANCH  20  23
HETATM   23  C   UNL     3     -11.275  11.548  66.706  1.00  0.00    -0.285 C  
HETATM   24  O   UNL     3     -12.293  14.200  68.688  1.00  0.00    -0.257 OA 
HETATM   25  C   UNL     3     -10.908  13.822  66.775  1.00  0.00    -0.284 C  
HETATM   26  C   UNL     3     -10.739  12.746  65.996  1.00  0.00    -0.272 C  
HETATM   27  O   UNL     3     -10.600  15.124  66.452  1.00  0.00    -0.291 OA 
HETATM   28  O   UNL     3     -12.078  12.101  67.763  1.00  0.00    -0.508 OA 
HETATM   29  C   UNL     3     -11.767  13.436  67.896  1.00  0.00    -0.361 C  
HETATM   30  O   UNL     3     -10.382  12.541  64.813  1.00  0.00    -0.292 OA 
HETATM   31  H   UNL     3     -10.043  15.374  65.724  1.00  0.00     0.000 HD 
ENDBRANCH  20  23
ENDBRANCH   7  20
TORSDOF 4
ENDMDL
MODEL      174
REMARK 921   NORMALIZED FREE ENERGY PREDICTED BY IDOCK:   -4.88 KCAL/MOL
REMARK 922        TOTAL FREE ENERGY PREDICTED BY IDOCK:   -7.95 KCAL/MOL
REMARK 923 INTER-LIGAND FREE ENERGY PREDICTED BY IDOCK:   -7.28 KCAL/MOL
REMARK 924 INTRA-LIGAND FREE ENERGY PREDICTED BY IDOCK:   -0.67 KCAL/MOL
REMARK 927      BINDING AFFINITY PREDICTED BY RF-SCORE:    0.00 PKD
ROOT
HETATM    1 CA   UNL     1      -8.778  11.118  65.139  1.00  0.00    -0.177 Ca 
HETATM    2  O   UNL     2      -6.735   5.942  69.382  1.00  0.00    -0.055 OA 
HETATM    3  C   UNL     2      -6.812   7.059  68.489  1.00  0.00    -0.073 C  
HETATM    4  H   UNL     2      -5.818   5.809  69.592  1.00  0.00     0.000 HD 
HETATM    5  O   UNL     3     -11.092  12.462  69.886  1.00  0.00    -0.476 OA 
HETATM    6  H   UNL     3     -11.478  12.127  70.686  1.00  0.00     0.000 HD 
HETATM    7  C   UNL     3     -12.109  12.337  68.852  1.00  0.00    -0.126 C  
ENDROOT
BRANCH   3   8
HETATM    8  C   UNL     2      -8.270   7.270  68.156  1.00  0.00    -0.124 C  
HETATM    9  H   UNL     2      -9.289   7.781  66.557  1.00  0.00     0.000 HD 
HETATM   10  O   UNL     2      -8.372   7.648  66.765  1.00  0.00    -0.119 OA 
BRANCH   8  11
HETATM   11  C   UNL     2      -9.010   8.331  68.998  1.00  0.00    -0.147 C  
HETATM   12  C   UNL     2      -9.050   8.222  70.502  1.00  0.00    -0.147 C  
HETATM   13  O   UNL     2     -10.388   8.051  68.724  1.00  0.00    -0.207 OA 
HETATM   14  O   UNL     2     -11.529   6.141  69.350  1.00  0.00    -0.423 OA 
HETATM   15  H   UNL     2      -9.805   6.939  72.823  1.00  0.00     0.000 HD 
HETATM   16  O   UNL     2      -8.468   9.110  71.181  1.00  0.00    -0.239 OA 
HETATM   17  C   UNL     2     -10.682   6.988  69.529  1.00  0.00    -0.241 C  
HETATM   18  C   UNL     2      -9.912   7.216  70.783  1.00  0.00    -0.189 C  
HETATM   19  O   UNL     2     -10.296   6.794  72.023  1.00  0.00    -0.196 OA 
ENDBRANCH   8  11
ENDBRANCH   3   8
BRANCH   7  20
HETATM   20  C   UNL     3     -11.486  12.878  67.560  1.00  0.00    -0.335 C  
HETATM   21  O   UNL     3     -10.081  12.629  67.552  1.00  0.00    -0.208 OA 
HETATM   22  H   UNL     3      -9.695  12.964  66.752  1.00  0.00     0.000 HD 
BRANCH  20  23
HETATM   23  C   UNL     3     -11.849  14.285  67.008  1.00  0.00    -0.428 C  
HETATM   24  O   UNL     3      -9.601  16.638  65.821  1.00  0.00    -0.492 OA 
HETATM   25  C   UNL     3     -11.431  15.334  64.999  1.00  0.00    -0.300 C  
HETATM   26  C   UNL     3     -12.338  14.576  65.628  1.00  0.00    -0.250 C  
HETATM   27  O   UNL     3     -11.541  15.863  63.734  1.00  0.00    -1.035 OA 
HETATM   28  O   UNL     3     -10.793  15.239  67.211  1.00  0.00    -0.305 OA 
HETATM   29  C   UNL     3     -10.448  15.776  65.990  1.00  0.00    -0.338 C  
HETATM   30  O   UNL     3     -13.505  14.189  65.391  1.00  0.00    -0.648 OA 
HETATM   31  H   UNL     3     -12.179  15.576  63.091  1.00  0.00     0.000 HD 
ENDBRANCH  20  23
ENDBRANCH   7  20
TORSDOF 4
ENDMDL
MODEL      175
REMARK 921   NORMALIZED FREE ENERGY PREDICTED BY IDOCK:   -4.88 KCAL/MOL
REMARK 922        TOTAL FREE ENERGY PREDICTED BY IDOCK:   -7.94 KCAL/MOL
REMARK 923 INTER-LIGAND FREE ENERGY PREDICTED BY IDOCK:   -7.29 KCAL/MOL
REMARK 924 INTRA-LIGAND FREE ENERGY PREDICTED BY IDOCK:   -0.65 KCAL/MOL
REMARK 927      BINDING AFFINITY PREDICTED BY RF-SCORE:    0.00 PKD
ROOT
HETATM    1 CA   UNL     1      -7.456  12.690  66.647  1.00  0.00    -0.255 Ca 
HETATM    2  O   UNL     2      -8.129   8.327  72.077  1.00  0.00    -0.119 OA 
HETATM    3  C   UNL     2      -7.703   9.318  71.134  1.00  0.00    -0.009 C  
HETATM    4  H   UNL     2      -7.510   8.338  72.798  1.00  0.00     0.000 HD 
HETATM    5  O   UNL     3     -12.184  14.242  68.866  1.00  0.00    -0.503 OA 
HETATM    6  H   UNL     3     -12.956  13.951  69.335  1.00  0.00     0.000 HD 
HETATM    7  C   UNL     3     -12.384  13.872  67.472  1.00  0.00    -0.078 C  
ENDROOT
BRANCH   3   8
HETATM    8  C   UNL     2      -8.687   9.300  69.988  1.00  0.00    -0.195 C  
HETATM    9  H   UNL     2      -9.548  10.652  68.851  1.00  0.00     0.000 HD 
HETATM   10  O   UNL     2      -8.929  10.663  69.572  1.00  0.00    -0.104 OA 
BRANCH   8  11
HETATM   11  C   UNL     2     -10.051   8.636  70.274  1.00  0.00    -0.187 C  
HETATM   12  C   UNL     2     -10.271   7.177  69.960  1.00  0.00    -0.196 C  
HETATM   13  O   UNL     2     -10.899   9.204  69.270  1.00  0.00    -0.213 OA 
HETATM   14  O   UNL     2     -10.724   8.849  66.994  1.00  0.00    -0.248 OA 
HETATM   15  H   UNL     2     -10.468   5.081  68.179  1.00  0.00     0.000 HD 
HETATM   16  O   UNL     2     -10.478   6.384  70.918  1.00  0.00    -0.215 OA 
HETATM   17  C   UNL     2     -10.616   8.486  68.144  1.00  0.00    -0.124 C  
HETATM   18  C   UNL     2     -10.372   7.094  68.612  1.00  0.00    -0.187 C  
HETATM   19  O   UNL     2     -10.623   5.969  67.881  1.00  0.00    -0.214 OA 
ENDBRANCH   8  11
ENDBRANCH   3   8
BRANCH   7  20
HETATM   20  C   UNL     3     -11.137  14.343  66.714  1.00  0.00    -0.323 C  
HETATM   21  O   UNL     3     -10.891  15.722  66.984  1.00  0.00    -0.318 OA 
HETATM   22  H   UNL     3     -10.119  16.013  66.515  1.00  0.00     0.000 HD 
BRANCH  20  23
HETATM   23  C   UNL     3     -10.902  13.972  65.223  1.00  0.00    -0.347 C  
HETATM   24  O   UNL     3     -10.051  10.834  64.026  1.00  0.00    -0.314 OA 
HETATM   25  C   UNL     3     -11.852  12.398  63.833  1.00  0.00    -0.466 C  
HETATM   26  C   UNL     3     -11.970  13.673  64.224  1.00  0.00    -0.445 C  
HETATM   27  O   UNL     3     -12.610  11.759  62.878  1.00  0.00    -0.840 OA 
HETATM   28  O   UNL     3      -9.972  12.886  65.072  1.00  0.00    -0.237 OA 
HETATM   29  C   UNL     3     -10.582  11.884  64.351  1.00  0.00    -0.319 C  
HETATM   30  O   UNL     3     -12.646  14.664  63.864  1.00  0.00    -0.834 OA 
HETATM   31  H   UNL     3     -13.434  12.093  62.542  1.00  0.00     0.000 HD 
ENDBRANCH  20  23
ENDBRANCH   7  20
TORSDOF 4
ENDMDL
MODEL      176
REMARK 921   NORMALIZED FREE ENERGY PREDICTED BY IDOCK:   -4.86 KCAL/MOL
REMARK 922        TOTAL FREE ENERGY PREDICTED BY IDOCK:   -7.93 KCAL/MOL
REMARK 923 INTER-LIGAND FREE ENERGY PREDICTED BY IDOCK:   -7.06 KCAL/MOL
REMARK 924 INTRA-LIGAND FREE ENERGY PREDICTED BY IDOCK:   -0.87 KCAL/MOL
REMARK 927      BINDING AFFINITY PREDICTED BY RF-SCORE:    0.00 PKD
ROOT
HETATM    1 CA   UNL     1     -12.587  10.103  68.905  1.00  0.00    -0.521 Ca 
HETATM    2  O   UNL     2      -9.693   4.429  66.007  1.00  0.00    -0.175 OA 
HETATM    3  C   UNL     2     -10.573   5.469  66.448  1.00  0.00    -0.228 C  
HETATM    4  H   UNL     2     -10.199   3.845  65.454  1.00  0.00     0.000 HD 
HETATM    5  O   UNL     3      -8.827  12.227  65.582  1.00  0.00    -0.393 OA 
HETATM    6  H   UNL     3      -7.971  12.098  65.192  1.00  0.00     0.000 HD 
HETATM    7  C   UNL     3      -8.595  12.673  66.949  1.00  0.00    -0.151 C  
ENDROOT
BRANCH   3   8
HETATM    8  C   UNL     2      -9.768   6.398  67.326  1.00  0.00    -0.130 C  
HETATM    9  H   UNL     2      -8.335   7.711  67.044  1.00  0.00     0.000 HD 
HETATM   10  O   UNL     2      -8.842   7.128  66.491  1.00  0.00    -0.129 OA 
BRANCH   8  11
HETATM   11  C   UNL     2      -8.967   5.730  68.464  1.00  0.00    -0.112 C  
HETATM   12  C   UNL     2      -9.677   4.962  69.550  1.00  0.00    -0.195 C  
HETATM   13  O   UNL     2      -8.526   6.848  69.242  1.00  0.00    -0.128 OA 
HETATM   14  O   UNL     2      -9.885   8.268  70.457  1.00  0.00    -0.180 OA 
HETATM   15  H   UNL     2     -11.401   4.829  71.698  1.00  0.00     0.000 HD 
HETATM   16  O   UNL     2      -9.477   3.720  69.633  1.00  0.00    -0.166 OA 
HETATM   17  C   UNL     2      -9.613   7.181  69.999  1.00  0.00    -0.164 C  
HETATM   18  C   UNL     2     -10.268   5.889  70.341  1.00  0.00    -0.213 C  
HETATM   19  O   UNL     2     -10.983   5.653  71.479  1.00  0.00    -0.252 OA 
ENDBRANCH   8  11
ENDBRANCH   3   8
BRANCH   7  20
HETATM   20  C   UNL     3      -9.977  12.881  67.578  1.00  0.00    -0.215 C  
HETATM   21  O   UNL     3     -10.533  11.627  67.966  1.00  0.00    -0.184 OA 
HETATM   22  H   UNL     3     -11.390  11.756  68.356  1.00  0.00     0.000 HD 
BRANCH  20  23
HETATM   23  C   UNL     3     -11.027  13.833  66.940  1.00  0.00    -0.290 C  
HETATM   24  O   UNL     3     -10.328  16.739  65.190  1.00  0.00    -0.639 OA 
HETATM   25  C   UNL     3     -11.337  14.606  64.792  1.00  0.00    -0.396 C  
HETATM   26  C   UNL     3     -11.701  13.624  65.625  1.00  0.00    -0.342 C  
HETATM   27  O   UNL     3     -11.791  14.802  63.507  1.00  0.00    -0.558 OA 
HETATM   28  O   UNL     3     -10.565  15.193  66.882  1.00  0.00    -0.285 OA 
HETATM   29  C   UNL     3     -10.625  15.620  65.573  1.00  0.00    -0.404 C  
HETATM   30  O   UNL     3     -12.541  12.695  65.606  1.00  0.00    -0.611 OA 
HETATM   31  H   UNL     3     -12.253  14.145  63.000  1.00  0.00     0.000 HD 
ENDBRANCH  20  23
ENDBRANCH   7  20
TORSDOF 4
ENDMDL
MODEL      177
REMARK 921   NORMALIZED FREE ENERGY PREDICTED BY IDOCK:   -4.86 KCAL/MOL
REMARK 922        TOTAL FREE ENERGY PREDICTED BY IDOCK:   -7.92 KCAL/MOL
REMARK 923 INTER-LIGAND FREE ENERGY PREDICTED BY IDOCK:   -6.64 KCAL/MOL
REMARK 924 INTRA-LIGAND FREE ENERGY PREDICTED BY IDOCK:   -1.28 KCAL/MOL
REMARK 927      BINDING AFFINITY PREDICTED BY RF-SCORE:    0.00 PKD
ROOT
HETATM    1 CA   UNL     1      -9.726   8.773  65.015  1.00  0.00    -0.385 Ca 
HETATM    2  O   UNL     2     -13.246  14.804  65.460  1.00  0.00    -0.222 OA 
HETATM    3  C   UNL     2     -12.835  13.445  65.273  1.00  0.00    -0.334 C  
HETATM    4  H   UNL     2     -14.181  14.843  65.296  1.00  0.00     0.000 HD 
HETATM    5  O   UNL     3      -9.194  10.097  70.273  1.00  0.00    -0.366 OA 
HETATM    6  H   UNL     3      -9.120  10.815  70.892  1.00  0.00     0.000 HD 
HETATM    7  C   UNL     3      -7.881   9.944  69.661  1.00  0.00    -0.154 C  
ENDROOT
BRANCH   3   8
HETATM    8  C   UNL     2     -11.348  13.384  65.534  1.00  0.00    -0.293 C  
HETATM    9  H   UNL     2      -9.773  12.738  64.553  1.00  0.00     0.000 HD 
HETATM   10  O   UNL     2     -10.708  12.777  64.389  1.00  0.00    -0.329 OA 
BRANCH   8  11
HETATM   11  C   UNL     2     -10.912  12.610  66.796  1.00  0.00    -0.262 C  
HETATM   12  C   UNL     2     -11.857  12.455  67.961  1.00  0.00    -0.316 C  
HETATM   13  O   UNL     2      -9.964  13.496  67.402  1.00  0.00    -0.228 OA 
HETATM   14  O   UNL     2     -10.441  15.564  68.316  1.00  0.00    -0.234 OA 
HETATM   15  H   UNL     2     -13.350  13.499  70.030  1.00  0.00     0.000 HD 
HETATM   16  O   UNL     2     -12.264  11.297  68.250  1.00  0.00    -0.611 OA 
HETATM   17  C   UNL     2     -10.733  14.420  68.050  1.00  0.00    -0.241 C  
HETATM   18  C   UNL     2     -11.907  13.665  68.568  1.00  0.00    -0.371 C  
HETATM   19  O   UNL     2     -12.602  13.981  69.699  1.00  0.00    -0.253 OA 
ENDBRANCH   8  11
ENDBRANCH   3   8
BRANCH   7  20
HETATM   20  C   UNL     3      -8.000   8.787  68.663  1.00  0.00    -0.107 C  
HETATM   21  O   UNL     3      -8.431   9.276  67.395  1.00  0.00    -0.121 OA 
HETATM   22  H   UNL     3      -8.505   8.558  66.776  1.00  0.00     0.000 HD 
BRANCH  20  23
HETATM   23  C   UNL     3      -8.678   7.443  69.051  1.00  0.00    -0.133 C  
HETATM   24  O   UNL     3     -10.287   6.777  72.046  1.00  0.00    -0.196 OA 
HETATM   25  C   UNL     3     -10.818   6.904  69.716  1.00  0.00    -0.259 C  
HETATM   26  C   UNL     3     -10.041   7.005  68.630  1.00  0.00    -0.166 C  
HETATM   27  O   UNL     3     -12.123   6.470  69.754  1.00  0.00    -0.579 OA 
HETATM   28  O   UNL     3      -8.663   7.216  70.471  1.00  0.00    -0.146 OA 
HETATM   29  C   UNL     3      -9.959   7.022  70.897  1.00  0.00    -0.193 C  
HETATM   30  O   UNL     3     -10.146   6.700  67.420  1.00  0.00    -0.138 OA 
HETATM   31  H   UNL     3     -12.680   6.394  68.987  1.00  0.00     0.000 HD 
ENDBRANCH  20  23
ENDBRANCH   7  20
TORSDOF 4
ENDMDL
MODEL      178
REMARK 921   NORMALIZED FREE ENERGY PREDICTED BY IDOCK:   -4.85 KCAL/MOL
REMARK 922        TOTAL FREE ENERGY PREDICTED BY IDOCK:   -7.91 KCAL/MOL
REMARK 923 INTER-LIGAND FREE ENERGY PREDICTED BY IDOCK:   -5.94 KCAL/MOL
REMARK 924 INTRA-LIGAND FREE ENERGY PREDICTED BY IDOCK:   -1.97 KCAL/MOL
REMARK 927      BINDING AFFINITY PREDICTED BY RF-SCORE:    0.00 PKD
ROOT
HETATM    1 CA   UNL     1      -7.040  10.511  67.328  1.00  0.00    -0.076 Ca 
HETATM    2  O   UNL     2     -11.907  13.112  63.025  1.00  0.00    -0.834 OA 
HETATM    3  C   UNL     2     -10.836  12.380  63.631  1.00  0.00    -0.462 C  
HETATM    4  H   UNL     2     -12.029  12.763  62.150  1.00  0.00     0.000 HD 
HETATM    5  O   UNL     3     -11.689   9.356  69.924  1.00  0.00    -0.451 OA 
HETATM    6  H   UNL     3     -12.577   9.644  70.094  1.00  0.00     0.000 HD 
HETATM    7  C   UNL     3     -10.824  10.155  70.780  1.00  0.00    -0.171 C  
ENDROOT
BRANCH   3   8
HETATM    8  C   UNL     2     -10.643  12.934  65.024  1.00  0.00    -0.315 C  
HETATM    9  H   UNL     2     -10.108  14.663  65.789  1.00  0.00     0.000 HD 
HETATM   10  O   UNL     2     -10.229  14.314  64.913  1.00  0.00    -0.413 OA 
BRANCH   8  11
HETATM   11  C   UNL     2      -9.621  12.195  65.913  1.00  0.00    -0.214 C  
HETATM   12  C   UNL     2      -9.621  10.689  65.986  1.00  0.00    -0.198 C  
HETATM   13  O   UNL     2     -10.088  12.475  67.237  1.00  0.00    -0.211 OA 
HETATM   14  O   UNL     2     -12.071  11.726  68.157  1.00  0.00    -0.556 OA 
HETATM   15  H   UNL     2     -10.807   8.291  66.651  1.00  0.00     0.000 HD 
HETATM   16  O   UNL     2      -8.618  10.069  65.536  1.00  0.00    -0.139 OA 
HETATM   17  C   UNL     2     -11.115  11.596  67.426  1.00  0.00    -0.281 C  
HETATM   18  C   UNL     2     -10.701  10.348  66.728  1.00  0.00    -0.168 C  
HETATM   19  O   UNL     2     -11.072   9.087  67.096  1.00  0.00     0.016 OA 
ENDBRANCH   8  11
ENDBRANCH   3   8
BRANCH   7  20
HETATM   20  C   UNL     3      -9.389   9.689  70.505  1.00  0.00    -0.166 C  
HETATM   21  O   UNL     3      -8.797  10.499  69.491  1.00  0.00    -0.335 OA 
HETATM   22  H   UNL     3      -7.908  10.211  69.321  1.00  0.00     0.000 HD 
BRANCH  20  23
HETATM   23  C   UNL     3      -9.038   8.183  70.352  1.00  0.00    -0.150 C  
HETATM   24  O   UNL     3      -6.106   6.670  71.409  1.00  0.00    -0.036 OA 
HETATM   25  C   UNL     3      -8.451   6.551  71.870  1.00  0.00    -0.119 C  
HETATM   26  C   UNL     3      -9.509   7.086  71.248  1.00  0.00    -0.164 C  
HETATM   27  O   UNL     3      -8.462   5.476  72.730  1.00  0.00    -0.119 OA 
HETATM   28  O   UNL     3      -7.621   7.963  70.249  1.00  0.00    -0.082 OA 
HETATM   29  C   UNL     3      -7.241   7.084  71.240  1.00  0.00    -0.075 C  
HETATM   30  O   UNL     3     -10.725   6.806  71.142  1.00  0.00    -0.222 OA 
HETATM   31  H   UNL     3      -9.248   5.130  73.138  1.00  0.00     0.000 HD 
ENDBRANCH  20  23
ENDBRANCH   7  20
TORSDOF 4
ENDMDL
MODEL      179
REMARK 921   NORMALIZED FREE ENERGY PREDICTED BY IDOCK:   -4.84 KCAL/MOL
REMARK 922        TOTAL FREE ENERGY PREDICTED BY IDOCK:   -7.90 KCAL/MOL
REMARK 923 INTER-LIGAND FREE ENERGY PREDICTED BY IDOCK:   -6.61 KCAL/MOL
REMARK 924 INTRA-LIGAND FREE ENERGY PREDICTED BY IDOCK:   -1.29 KCAL/MOL
REMARK 927      BINDING AFFINITY PREDICTED BY RF-SCORE:    0.00 PKD
ROOT
HETATM    1 CA   UNL     1     -10.857  11.173  70.745  1.00  0.00    -0.425 Ca 
HETATM    2  O   UNL     2      -9.073  17.425  68.157  1.00  0.00    -0.252 OA 
HETATM    3  C   UNL     2      -9.251  16.252  68.960  1.00  0.00    -0.253 C  
HETATM    4  H   UNL     2      -8.500  18.013  68.637  1.00  0.00     0.000 HD 
HETATM    5  O   UNL     3      -8.046   9.868  66.264  1.00  0.00    -0.112 OA 
HETATM    6  H   UNL     3      -7.825  10.134  65.379  1.00  0.00     0.000 HD 
HETATM    7  C   UNL     3      -9.383   9.293  66.201  1.00  0.00    -0.212 C  
ENDROOT
BRANCH   3   8
HETATM    8  C   UNL     2     -10.161  15.319  68.196  1.00  0.00    -0.229 C  
HETATM    9  H   UNL     2     -10.577  14.995  66.304  1.00  0.00     0.000 HD 
HETATM   10  O   UNL     2     -10.004  15.582  66.784  1.00  0.00    -0.239 OA 
BRANCH   8  11
HETATM   11  C   UNL     2     -11.663  15.406  68.538  1.00  0.00    -0.338 C  
HETATM   12  C   UNL     2     -12.145  15.128  69.940  1.00  0.00    -0.336 C  
HETATM   13  O   UNL     2     -12.205  14.250  67.890  1.00  0.00    -0.311 OA 
HETATM   14  O   UNL     2     -11.768  12.053  68.457  1.00  0.00    -0.295 OA 
HETATM   15  H   UNL     2     -12.520  13.440  72.088  1.00  0.00     0.000 HD 
HETATM   16  O   UNL     2     -12.662  16.075  70.593  1.00  0.00    -0.356 OA 
HETATM   17  C   UNL     2     -11.917  13.221  68.740  1.00  0.00    -0.300 C  
HETATM   18  C   UNL     2     -12.056  13.787  70.110  1.00  0.00    -0.359 C  
HETATM   19  O   UNL     2     -12.431  13.079  71.214  1.00  0.00    -0.331 OA 
ENDBRANCH   8  11
ENDBRANCH   3   8
BRANCH   7  20
HETATM   20  C   UNL     3      -9.739   8.865  67.629  1.00  0.00    -0.161 C  
HETATM   21  O   UNL     3     -11.014   8.224  67.644  1.00  0.00    -0.502 OA 
HETATM   22  H   UNL     3     -11.235   7.959  68.529  1.00  0.00     0.000 HD 
BRANCH  20  23
HETATM   23  C   UNL     3      -9.531   9.816  68.840  1.00  0.00    -0.161 C  
HETATM   24  O   UNL     3      -8.059   8.961  71.857  1.00  0.00    -0.338 OA 
HETATM   25  C   UNL     3      -7.661  10.451  70.027  1.00  0.00    -0.033 C  
HETATM   26  C   UNL     3      -8.423  10.806  68.986  1.00  0.00    -0.133 C  
HETATM   27  O   UNL     3      -6.578  11.141  70.524  1.00  0.00    -0.480 OA 
HETATM   28  O   UNL     3      -9.534   9.111  70.092  1.00  0.00    -0.179 OA 
HETATM   29  C   UNL     3      -8.355   9.385  70.752  1.00  0.00    -0.131 C  
HETATM   30  O   UNL     3      -8.502  11.800  68.228  1.00  0.00    -0.150 OA 
HETATM   31  H   UNL     3      -6.127  11.833  70.053  1.00  0.00     0.000 HD 
ENDBRANCH  20  23
ENDBRANCH   7  20
TORSDOF 4
ENDMDL
MODEL      180
REMARK 921   NORMALIZED FREE ENERGY PREDICTED BY IDOCK:   -4.83 KCAL/MOL
REMARK 922        TOTAL FREE ENERGY PREDICTED BY IDOCK:   -7.89 KCAL/MOL
REMARK 923 INTER-LIGAND FREE ENERGY PREDICTED BY IDOCK:   -6.94 KCAL/MOL
REMARK 924 INTRA-LIGAND FREE ENERGY PREDICTED BY IDOCK:   -0.95 KCAL/MOL
REMARK 927      BINDING AFFINITY PREDICTED BY RF-SCORE:    0.00 PKD
ROOT
HETATM    1 CA   UNL     1      -7.016  14.625  66.662  1.00  0.00    -0.201 Ca 
HETATM    2  O   UNL     2      -5.780  21.324  65.060  1.00  0.00    -0.221 OA 
HETATM    3  C   UNL     2      -5.741  19.901  65.208  1.00  0.00    -0.175 C  
HETATM    4  H   UNL     2      -5.043  21.573  64.515  1.00  0.00     0.000 HD 
HETATM    5  O   UNL     3     -11.409  16.001  63.746  1.00  0.00    -1.084 OA 
HETATM    6  H   UNL     3     -12.005  16.706  63.523  1.00  0.00     0.000 HD 
HETATM    7  C   UNL     3     -11.812  15.522  65.061  1.00  0.00     0.058 C  
ENDROOT
BRANCH   3   8
HETATM    8  C   UNL     2      -6.913  19.505  66.075  1.00  0.00    -0.265 C  
HETATM    9  H   UNL     2      -8.870  19.581  65.915  1.00  0.00     0.000 HD 
HETATM   10  O   UNL     2      -8.132  19.829  65.369  1.00  0.00    -0.285 OA 
BRANCH   8  11
HETATM   11  C   UNL     2      -6.976  20.161  67.470  1.00  0.00    -0.266 C  
HETATM   12  C   UNL     2      -6.039  19.717  68.566  1.00  0.00    -0.242 C  
HETATM   13  O   UNL     2      -8.198  19.645  68.010  1.00  0.00    -0.302 OA 
HETATM   14  O   UNL     2      -8.608  17.438  68.559  1.00  0.00    -0.259 OA 
HETATM   15  H   UNL     2      -5.086  17.820  70.324  1.00  0.00     0.000 HD 
HETATM   16  O   UNL     2      -5.186  20.543  68.993  1.00  0.00    -0.224 OA 
HETATM   17  C   UNL     2      -7.873  18.393  68.446  1.00  0.00    -0.306 C  
HETATM   18  C   UNL     2      -6.486  18.507  68.976  1.00  0.00    -0.252 C  
HETATM   19  O   UNL     2      -5.971  17.747  69.986  1.00  0.00    -0.249 OA 
ENDBRANCH   8  11
ENDBRANCH   3   8
BRANCH   7  20
HETATM   20  C   UNL     3     -10.850  14.384  65.422  1.00  0.00    -0.344 C  
HETATM   21  O   UNL     3     -10.883  13.376  64.414  1.00  0.00    -0.384 OA 
HETATM   22  H   UNL     3     -10.287  12.671  64.638  1.00  0.00     0.000 HD 
BRANCH  20  23
HETATM   23  C   UNL     3     -10.788  13.795  66.859  1.00  0.00    -0.285 C  
HETATM   24  O   UNL     3      -7.903  13.197  68.681  1.00  0.00    -0.126 OA 
HETATM   25  C   UNL     3      -9.863  14.561  68.826  1.00  0.00    -0.220 C  
HETATM   26  C   UNL     3     -11.002  14.563  68.121  1.00  0.00    -0.251 C  
HETATM   27  O   UNL     3      -9.671  15.109  70.074  1.00  0.00    -0.474 OA 
HETATM   28  O   UNL     3      -9.572  13.066  67.097  1.00  0.00    -0.217 OA 
HETATM   29  C   UNL     3      -8.946  13.607  68.199  1.00  0.00    -0.191 C  
HETATM   30  O   UNL     3     -12.184  14.920  68.326  1.00  0.00    -0.170 OA 
HETATM   31  H   UNL     3     -10.266  15.728  70.481  1.00  0.00     0.000 HD 
ENDBRANCH  20  23
ENDBRANCH   7  20
TORSDOF 4
ENDMDL
MODEL      181
REMARK 921   NORMALIZED FREE ENERGY PREDICTED BY IDOCK:   -4.83 KCAL/MOL
REMARK 922        TOTAL FREE ENERGY PREDICTED BY IDOCK:   -7.88 KCAL/MOL
REMARK 923 INTER-LIGAND FREE ENERGY PREDICTED BY IDOCK:   -6.98 KCAL/MOL
REMARK 924 INTRA-LIGAND FREE ENERGY PREDICTED BY IDOCK:   -0.90 KCAL/MOL
REMARK 927      BINDING AFFINITY PREDICTED BY RF-SCORE:    0.00 PKD
ROOT
HETATM    1 CA   UNL     1     -12.112  12.044  70.640  1.00  0.00    -0.270 Ca 
HETATM    2  O   UNL     2     -10.168  18.497  68.753  1.00  0.00    -0.379 OA 
HETATM    3  C   UNL     2     -10.411  17.262  69.438  1.00  0.00    -0.158 C  
HETATM    4  H   UNL     2      -9.661  19.049  69.336  1.00  0.00     0.000 HD 
HETATM    5  O   UNL     3      -8.813  11.122  66.402  1.00  0.00    -0.167 OA 
HETATM    6  H   UNL     3      -8.503  11.459  65.570  1.00  0.00     0.000 HD 
HETATM    7  C   UNL     3     -10.125  10.542  66.150  1.00  0.00    -0.246 C  
ENDROOT
BRANCH   3   8
HETATM    8  C   UNL     2     -11.217  16.384  68.510  1.00  0.00    -0.334 C  
HETATM    9  H   UNL     2     -12.688  15.098  68.715  1.00  0.00     0.000 HD 
HETATM   10  O   UNL     2     -12.181  15.651  69.299  1.00  0.00    -0.303 OA 
BRANCH   8  11
HETATM   11  C   UNL     2     -10.414  15.370  67.668  1.00  0.00    -0.272 C  
HETATM   12  C   UNL     2      -8.967  15.631  67.335  1.00  0.00    -0.194 C  
HETATM   13  O   UNL     2     -10.970  15.533  66.358  1.00  0.00    -0.309 OA 
HETATM   14  O   UNL     2     -10.788  17.420  65.038  1.00  0.00    -0.676 OA 
HETATM   15  H   UNL     2      -6.987  17.094  66.094  1.00  0.00     0.000 HD 
HETATM   16  O   UNL     2      -8.094  14.855  67.813  1.00  0.00    -0.133 OA 
HETATM   17  C   UNL     2     -10.359  16.652  65.869  1.00  0.00    -0.340 C  
HETATM   18  C   UNL     2      -8.967  16.603  66.393  1.00  0.00    -0.291 C  
HETATM   19  O   UNL     2      -7.876  17.125  65.760  1.00  0.00    -0.449 OA 
ENDBRANCH   8  11
ENDBRANCH   3   8
BRANCH   7  20
HETATM   20  C   UNL     3     -10.625   9.999  67.493  1.00  0.00    -0.280 C  
HETATM   21  O   UNL     3     -11.911  10.541  67.792  1.00  0.00    -0.679 OA 
HETATM   22  H   UNL     3     -12.221  10.205  68.625  1.00  0.00     0.000 HD 
BRANCH  20  23
HETATM   23  C   UNL     3      -9.699   9.929  68.739  1.00  0.00    -0.160 C  
HETATM   24  O   UNL     3     -10.632   8.862  71.900  1.00  0.00    -0.327 OA 
HETATM   25  C   UNL     3      -9.119   8.212  70.163  1.00  0.00    -0.147 C  
HETATM   26  C   UNL     3      -8.733   8.832  69.041  1.00  0.00    -0.133 C  
HETATM   27  O   UNL     3      -8.459   7.189  70.805  1.00  0.00    -0.130 OA 
HETATM   28  O   UNL     3     -10.425  10.101  69.968  1.00  0.00    -0.264 OA 
HETATM   29  C   UNL     3     -10.185   9.010  70.775  1.00  0.00    -0.244 C  
HETATM   30  O   UNL     3      -7.725   8.798  68.299  1.00  0.00    -0.098 OA 
HETATM   31  H   UNL     3      -7.767   6.672  70.408  1.00  0.00     0.000 HD 
ENDBRANCH  20  23
ENDBRANCH   7  20
TORSDOF 4
ENDMDL
MODEL      182
REMARK 921   NORMALIZED FREE ENERGY PREDICTED BY IDOCK:   -4.82 KCAL/MOL
REMARK 922        TOTAL FREE ENERGY PREDICTED BY IDOCK:   -7.88 KCAL/MOL
REMARK 923 INTER-LIGAND FREE ENERGY PREDICTED BY IDOCK:   -6.70 KCAL/MOL
REMARK 924 INTRA-LIGAND FREE ENERGY PREDICTED BY IDOCK:   -1.17 KCAL/MOL
REMARK 927      BINDING AFFINITY PREDICTED BY RF-SCORE:    0.00 PKD
ROOT
HETATM    1 CA   UNL     1      -8.769  18.330  65.627  1.00  0.00    -0.201 Ca 
HETATM    2  O   UNL     2     -11.321  11.924  64.432  1.00  0.00    -0.326 OA 
HETATM    3  C   UNL     2     -10.725  13.223  64.337  1.00  0.00    -0.415 C  
HETATM    4  H   UNL     2     -11.257  11.520  63.574  1.00  0.00     0.000 HD 
HETATM    5  O   UNL     3      -5.708  15.187  68.859  1.00  0.00    -0.092 OA 
HETATM    6  H   UNL     3      -5.694  14.403  69.395  1.00  0.00     0.000 HD 
HETATM    7  C   UNL     3      -6.376  16.214  69.647  1.00  0.00    -0.192 C  
ENDROOT
BRANCH   3   8
HETATM    8  C   UNL     2     -10.826  13.865  65.701  1.00  0.00    -0.292 C  
HETATM    9  H   UNL     2     -11.011  15.698  66.383  1.00  0.00     0.000 HD 
HETATM   10  O   UNL     2     -10.948  15.294  65.525  1.00  0.00    -0.336 OA 
BRANCH   8  11
HETATM   11  C   UNL     2      -9.651  13.597  66.665  1.00  0.00    -0.283 C  
HETATM   12  C   UNL     2      -9.256  12.184  67.013  1.00  0.00    -0.202 C  
HETATM   13  O   UNL     2     -10.184  13.992  67.934  1.00  0.00    -0.232 OA 
HETATM   14  O   UNL     2     -11.906  12.942  69.062  1.00  0.00    -0.299 OA 
HETATM   15  H   UNL     2      -9.775   9.731  68.159  1.00  0.00     0.000 HD 
HETATM   16  O   UNL     2      -8.123  11.772  66.642  1.00  0.00    -0.161 OA 
HETATM   17  C   UNL     2     -10.945  12.928  68.326  1.00  0.00    -0.256 C  
HETATM   18  C   UNL     2     -10.213  11.722  67.852  1.00  0.00    -0.191 C  
HETATM   19  O   UNL     2     -10.242  10.501  68.461  1.00  0.00    -0.160 OA 
ENDBRANCH   8  11
ENDBRANCH   3   8
BRANCH   7  20
HETATM   20  C   UNL     3      -6.399  17.479  68.781  1.00  0.00    -0.197 C  
HETATM   21  O   UNL     3      -5.755  18.553  69.465  1.00  0.00    -0.220 OA 
HETATM   22  H   UNL     3      -5.770  19.336  68.929  1.00  0.00     0.000 HD 
BRANCH  20  23
HETATM   23  C   UNL     3      -7.684  17.929  68.031  1.00  0.00    -0.245 C  
HETATM   24  O   UNL     3     -10.923  16.988  68.818  1.00  0.00    -0.289 OA 
HETATM   25  C   UNL     3      -9.611  18.986  68.724  1.00  0.00    -0.396 C  
HETATM   26  C   UNL     3      -8.392  19.229  68.226  1.00  0.00    -0.338 C  
HETATM   27  O   UNL     3     -10.591  19.917  68.984  1.00  0.00    -0.540 OA 
HETATM   28  O   UNL     3      -8.731  16.947  68.108  1.00  0.00    -0.213 OA 
HETATM   29  C   UNL     3      -9.851  17.544  68.646  1.00  0.00    -0.338 C  
HETATM   30  O   UNL     3      -7.788  20.230  67.777  1.00  0.00    -0.291 OA 
HETATM   31  H   UNL     3     -10.434  20.853  69.034  1.00  0.00     0.000 HD 
ENDBRANCH  20  23
ENDBRANCH   7  20
TORSDOF 4
ENDMDL
MODEL      183
REMARK 921   NORMALIZED FREE ENERGY PREDICTED BY IDOCK:   -4.82 KCAL/MOL
REMARK 922        TOTAL FREE ENERGY PREDICTED BY IDOCK:   -7.87 KCAL/MOL
REMARK 923 INTER-LIGAND FREE ENERGY PREDICTED BY IDOCK:   -6.04 KCAL/MOL
REMARK 924 INTRA-LIGAND FREE ENERGY PREDICTED BY IDOCK:   -1.83 KCAL/MOL
REMARK 927      BINDING AFFINITY PREDICTED BY RF-SCORE:    0.00 PKD
ROOT
HETATM    1 CA   UNL     1      -8.828  11.281  70.096  1.00  0.00    -0.277 Ca 
HETATM    2  O   UNL     2      -8.171   4.316  70.239  1.00  0.00    -0.061 OA 
HETATM    3  C   UNL     2      -8.548   5.681  70.451  1.00  0.00    -0.132 C  
HETATM    4  H   UNL     2      -8.732   3.778  70.786  1.00  0.00     0.000 HD 
HETATM    5  O   UNL     3     -10.102   9.843  64.997  1.00  0.00    -0.356 OA 
HETATM    6  H   UNL     3      -9.934   9.221  64.299  1.00  0.00     0.000 HD 
HETATM    7  C   UNL     3      -8.989  10.782  64.988  1.00  0.00    -0.194 C  
ENDROOT
BRANCH   3   8
HETATM    8  C   UNL     2      -7.657   6.534  69.579  1.00  0.00    -0.095 C  
HETATM    9  H   UNL     2      -5.748   6.995  69.543  1.00  0.00     0.000 HD 
HETATM   10  O   UNL     2      -6.308   6.458  70.091  1.00  0.00    -0.036 OA 
BRANCH   8  11
HETATM   11  C   UNL     2      -8.045   8.024  69.466  1.00  0.00    -0.120 C  
HETATM   12  C   UNL     2      -9.483   8.425  69.253  1.00  0.00    -0.155 C  
HETATM   13  O   UNL     2      -7.525   8.392  68.183  1.00  0.00    -0.093 OA 
HETATM   14  O   UNL     2      -8.274   7.603  66.145  1.00  0.00    -0.111 OA 
HETATM   15  H   UNL     2     -11.788   8.484  67.741  1.00  0.00     0.000 HD 
HETATM   16  O   UNL     2     -10.065   9.070  70.167  1.00  0.00    -0.177 OA 
HETATM   17  C   UNL     2      -8.454   7.928  67.297  1.00  0.00    -0.121 C  
HETATM   18  C   UNL     2      -9.771   8.123  67.964  1.00  0.00    -0.161 C  
HETATM   19  O   UNL     2     -10.948   8.358  67.315  1.00  0.00    -0.124 OA 
ENDBRANCH   8  11
ENDBRANCH   3   8
BRANCH   7  20
HETATM   20  C   UNL     3      -9.259  11.786  66.115  1.00  0.00    -0.210 C  
HETATM   21  O   UNL     3      -9.133  11.145  67.383  1.00  0.00    -0.142 OA 
HETATM   22  H   UNL     3      -9.301  11.767  68.081  1.00  0.00     0.000 HD 
BRANCH  20  23
HETATM   23  C   UNL     3     -10.459  12.772  66.056  1.00  0.00    -0.274 C  
HETATM   24  O   UNL     3     -10.415  15.937  64.649  1.00  0.00    -0.474 OA 
HETATM   25  C   UNL     3     -11.522  13.843  64.315  1.00  0.00    -0.318 C  
HETATM   26  C   UNL     3     -11.569  12.731  65.059  1.00  0.00    -0.337 C  
HETATM   27  O   UNL     3     -12.411  14.207  63.329  1.00  0.00    -1.146 OA 
HETATM   28  O   UNL     3     -10.036  14.145  66.049  1.00  0.00    -0.301 OA 
HETATM   29  C   UNL     3     -10.564  14.760  64.934  1.00  0.00    -0.406 C  
HETATM   30  O   UNL     3     -12.368  11.777  65.200  1.00  0.00    -0.219 OA 
HETATM   31  H   UNL     3     -13.033  13.612  62.927  1.00  0.00     0.000 HD 
ENDBRANCH  20  23
ENDBRANCH   7  20
TORSDOF 4
ENDMDL
MODEL      184
REMARK 921   NORMALIZED FREE ENERGY PREDICTED BY IDOCK:   -4.81 KCAL/MOL
REMARK 922        TOTAL FREE ENERGY PREDICTED BY IDOCK:   -7.86 KCAL/MOL
REMARK 923 INTER-LIGAND FREE ENERGY PREDICTED BY IDOCK:   -6.63 KCAL/MOL
REMARK 924 INTRA-LIGAND FREE ENERGY PREDICTED BY IDOCK:   -1.23 KCAL/MOL
REMARK 927      BINDING AFFINITY PREDICTED BY RF-SCORE:    0.00 PKD
ROOT
HETATM    1 CA   UNL     1      -7.401  13.102  66.936  1.00  0.00    -0.183 Ca 
HETATM    2  O   UNL     2      -7.961  19.999  65.894  1.00  0.00    -0.435 OA 
HETATM    3  C   UNL     2      -7.533  18.635  65.966  1.00  0.00    -0.230 C  
HETATM    4  H   UNL     2      -7.268  20.492  65.470  1.00  0.00     0.000 HD 
HETATM    5  O   UNL     3     -11.636  13.469  63.526  1.00  0.00    -0.652 OA 
HETATM    6  H   UNL     3     -12.379  13.999  63.263  1.00  0.00     0.000 HD 
HETATM    7  C   UNL     3     -12.033  12.778  64.744  1.00  0.00    -0.402 C  
ENDROOT
BRANCH   3   8
HETATM    8  C   UNL     2      -8.635  17.852  66.641  1.00  0.00    -0.262 C  
HETATM    9  H   UNL     2     -10.568  18.082  66.900  1.00  0.00     0.000 HD 
HETATM   10  O   UNL     2      -9.875  18.574  66.476  1.00  0.00    -0.328 OA 
BRANCH   8  11
HETATM   11  C   UNL     2      -8.441  17.566  68.145  1.00  0.00    -0.254 C  
HETATM   12  C   UNL     2      -7.843  16.259  68.603  1.00  0.00    -0.202 C  
HETATM   13  O   UNL     2      -9.782  17.363  68.606  1.00  0.00    -0.284 OA 
HETATM   14  O   UNL     2     -11.163  15.608  68.015  1.00  0.00    -0.329 OA 
HETATM   15  H   UNL     2      -7.911  13.515  68.855  1.00  0.00     0.000 HD 
HETATM   16  O   UNL     2      -6.724  16.286  69.184  1.00  0.00    -0.169 OA 
HETATM   17  C   UNL     2     -10.072  16.079  68.245  1.00  0.00    -0.229 C  
HETATM   18  C   UNL     2      -8.802  15.321  68.420  1.00  0.00    -0.179 C  
HETATM   19  O   UNL     2      -8.720  13.998  68.743  1.00  0.00    -0.134 OA 
ENDBRANCH   8  11
ENDBRANCH   3   8
BRANCH   7  20
HETATM   20  C   UNL     3     -10.834  11.923  65.170  1.00  0.00    -0.300 C  
HETATM   21  O   UNL     3     -10.897  10.643  64.543  1.00  0.00    -0.215 OA 
HETATM   22  H   UNL     3     -10.154  10.114  64.807  1.00  0.00     0.000 HD 
BRANCH  20  23
HETATM   23  C   UNL     3     -10.377  11.843  66.653  1.00  0.00    -0.211 C  
HETATM   24  O   UNL     3     -12.342  10.853  69.329  1.00  0.00    -0.395 OA 
HETATM   25  C   UNL     3     -10.362  10.132  68.197  1.00  0.00    -0.185 C  
HETATM   26  C   UNL     3      -9.604  10.722  67.264  1.00  0.00    -0.160 C  
HETATM   27  O   UNL     3      -9.986   9.099  69.025  1.00  0.00    -0.173 OA 
HETATM   28  O   UNL     3     -11.464  12.056  67.570  1.00  0.00    -0.298 OA 
HETATM   29  C   UNL     3     -11.542  10.971  68.415  1.00  0.00    -0.302 C  
HETATM   30  O   UNL     3      -8.408  10.647  66.899  1.00  0.00    -0.121 OA 
HETATM   31  H   UNL     3      -9.220   8.555  68.883  1.00  0.00     0.000 HD 
ENDBRANCH  20  23
ENDBRANCH   7  20
TORSDOF 4
ENDMDL
MODEL      185
REMARK 921   NORMALIZED FREE ENERGY PREDICTED BY IDOCK:   -4.81 KCAL/MOL
REMARK 922        TOTAL FREE ENERGY PREDICTED BY IDOCK:   -7.85 KCAL/MOL
REMARK 923 INTER-LIGAND FREE ENERGY PREDICTED BY IDOCK:   -6.11 KCAL/MOL
REMARK 924 INTRA-LIGAND FREE ENERGY PREDICTED BY IDOCK:   -1.74 KCAL/MOL
REMARK 927      BINDING AFFINITY PREDICTED BY RF-SCORE:    0.00 PKD
ROOT
HETATM    1 CA   UNL     1      -9.371  14.757  70.078  1.00  0.00    -0.356 Ca 
HETATM    2  O   UNL     2      -9.018  20.510  66.109  1.00  0.00    -0.579 OA 
HETATM    3  C   UNL     2      -8.764  19.421  67.004  1.00  0.00    -0.293 C  
HETATM    4  H   UNL     2      -8.219  21.021  66.051  1.00  0.00     0.000 HD 
HETATM    5  O   UNL     3     -10.123  12.803  65.047  1.00  0.00    -0.367 OA 
HETATM    6  H   UNL     3     -10.481  12.986  64.187  1.00  0.00     0.000 HD 
HETATM    7  C   UNL     3     -11.252  12.447  65.896  1.00  0.00    -0.336 C  
ENDROOT
BRANCH   3   8
HETATM    8  C   UNL     2     -10.035  18.609  67.096  1.00  0.00    -0.331 C  
HETATM    9  H   UNL     2     -11.863  18.924  67.744  1.00  0.00     0.000 HD 
HETATM   10  O   UNL     2     -11.064  19.435  67.685  1.00  0.00    -0.370 OA 
BRANCH   8  11
HETATM   11  C   UNL     2      -9.946  17.299  67.907  1.00  0.00    -0.297 C  
HETATM   12  C   UNL     2      -8.622  16.596  68.079  1.00  0.00    -0.193 C  
HETATM   13  O   UNL     2     -10.585  16.348  67.049  1.00  0.00    -0.305 OA 
HETATM   14  O   UNL     2      -9.795  15.632  64.998  1.00  0.00    -0.322 OA 
HETATM   15  H   UNL     2      -6.444  15.241  67.069  1.00  0.00     0.000 HD 
HETATM   16  O   UNL     2      -8.132  16.521  69.239  1.00  0.00    -0.216 OA 
HETATM   17  C   UNL     2      -9.627  16.023  66.132  1.00  0.00    -0.334 C  
HETATM   18  C   UNL     2      -8.343  16.023  66.885  1.00  0.00    -0.243 C  
HETATM   19  O   UNL     2      -7.264  15.241  66.589  1.00  0.00     0.012 OA 
ENDBRANCH   8  11
ENDBRANCH   3   8
BRANCH   7  20
HETATM   20  C   UNL     3     -10.675  12.151  67.285  1.00  0.00    -0.229 C  
HETATM   21  O   UNL     3     -10.295  13.367  67.927  1.00  0.00    -0.228 OA 
HETATM   22  H   UNL     3      -9.938  13.184  68.787  1.00  0.00     0.000 HD 
BRANCH  20  23
HETATM   23  C   UNL     3      -9.650  11.006  67.514  1.00  0.00    -0.164 C  
HETATM   24  O   UNL     3      -6.250  11.406  68.045  1.00  0.00    -0.049 OA 
HETATM   25  C   UNL     3      -8.158  10.557  69.212  1.00  0.00    -0.148 C  
HETATM   26  C   UNL     3      -9.409  10.303  68.808  1.00  0.00    -0.166 C  
HETATM   27  O   UNL     3      -7.536  10.042  70.327  1.00  0.00    -0.164 OA 
HETATM   28  O   UNL     3      -8.332  11.355  67.058  1.00  0.00    -0.148 OA 
HETATM   29  C   UNL     3      -7.453  11.213  68.110  1.00  0.00    -0.093 C  
HETATM   30  O   UNL     3     -10.333   9.539  69.172  1.00  0.00    -0.192 OA 
HETATM   31  H   UNL     3      -7.994   9.615  71.042  1.00  0.00     0.000 HD 
ENDBRANCH  20  23
ENDBRANCH   7  20
TORSDOF 4
ENDMDL
MODEL      186
REMARK 921   NORMALIZED FREE ENERGY PREDICTED BY IDOCK:   -4.78 KCAL/MOL
REMARK 922        TOTAL FREE ENERGY PREDICTED BY IDOCK:   -7.83 KCAL/MOL
REMARK 923 INTER-LIGAND FREE ENERGY PREDICTED BY IDOCK:   -6.81 KCAL/MOL
REMARK 924 INTRA-LIGAND FREE ENERGY PREDICTED BY IDOCK:   -1.01 KCAL/MOL
REMARK 927      BINDING AFFINITY PREDICTED BY RF-SCORE:    0.00 PKD
ROOT
HETATM    1 CA   UNL     1     -11.676  12.385  68.931  1.00  0.00    -0.204 Ca 
HETATM    2  O   UNL     2     -12.377   6.272  72.264  1.00  0.00    -0.512 OA 
HETATM    3  C   UNL     2     -12.581   7.521  71.594  1.00  0.00    -0.348 C  
HETATM    4  H   UNL     2     -13.234   5.905  72.448  1.00  0.00     0.000 HD 
HETATM    5  O   UNL     3      -9.386   8.853  65.472  1.00  0.00    -0.350 OA 
HETATM    6  H   UNL     3      -8.891   8.045  65.398  1.00  0.00     0.000 HD 
HETATM    7  C   UNL     3      -8.430   9.891  65.831  1.00  0.00    -0.130 C  
ENDROOT
BRANCH   3   8
HETATM    8  C   UNL     2     -11.218   8.103  71.302  1.00  0.00    -0.260 C  
HETATM    9  H   UNL     2     -10.137   9.582  72.011  1.00  0.00     0.000 HD 
HETATM   10  O   UNL     2     -10.995   9.216  72.195  1.00  0.00    -0.300 OA 
BRANCH   8  11
HETATM   11  C   UNL     2     -10.985   8.591  69.856  1.00  0.00    -0.165 C  
HETATM   12  C   UNL     2     -10.331   7.688  68.841  1.00  0.00    -0.212 C  
HETATM   13  O   UNL     2      -9.928   9.546  70.009  1.00  0.00    -0.205 OA 
HETATM   14  O   UNL     2      -7.760   9.069  70.650  1.00  0.00    -0.091 OA 
HETATM   15  H   UNL     2      -8.174   6.248  67.905  1.00  0.00     0.000 HD 
HETATM   16  O   UNL     2     -11.015   7.307  67.852  1.00  0.00    -0.144 OA 
HETATM   17  C   UNL     2      -8.797   8.785  70.095  1.00  0.00    -0.154 C  
HETATM   18  C   UNL     2      -9.018   7.640  69.169  1.00  0.00    -0.135 C  
HETATM   19  O   UNL     2      -8.033   6.979  68.495  1.00  0.00    -0.119 OA 
ENDBRANCH   8  11
ENDBRANCH   3   8
BRANCH   7  20
HETATM   20  C   UNL     3      -9.229  11.194  65.951  1.00  0.00    -0.206 C  
HETATM   21  O   UNL     3      -9.160  11.690  67.286  1.00  0.00    -0.162 OA 
HETATM   22  H   UNL     3      -9.655  12.498  67.360  1.00  0.00     0.000 HD 
BRANCH  20  23
HETATM   23  C   UNL     3     -10.644  11.341  65.327  1.00  0.00    -0.261 C  
HETATM   24  O   UNL     3     -12.672  14.141  65.543  1.00  0.00    -0.507 OA 
HETATM   25  C   UNL     3     -11.557  12.863  63.856  1.00  0.00    -0.453 C  
HETATM   26  C   UNL     3     -10.935  11.678  63.902  1.00  0.00    -0.407 C  
HETATM   27  O   UNL     3     -12.044  13.490  62.732  1.00  0.00    -0.746 OA 
HETATM   28  O   UNL     3     -11.477  12.244  66.074  1.00  0.00    -0.346 OA 
HETATM   29  C   UNL     3     -11.922  13.233  65.225  1.00  0.00    -0.388 C  
HETATM   30  O   UNL     3     -10.677  10.767  63.083  1.00  0.00    -0.008 OA 
HETATM   31  H   UNL     3     -11.808  13.248  61.844  1.00  0.00     0.000 HD 
ENDBRANCH  20  23
ENDBRANCH   7  20
TORSDOF 4
ENDMDL
MODEL      187
REMARK 921   NORMALIZED FREE ENERGY PREDICTED BY IDOCK:   -4.77 KCAL/MOL
REMARK 922        TOTAL FREE ENERGY PREDICTED BY IDOCK:   -7.81 KCAL/MOL
REMARK 923 INTER-LIGAND FREE ENERGY PREDICTED BY IDOCK:   -6.88 KCAL/MOL
REMARK 924 INTRA-LIGAND FREE ENERGY PREDICTED BY IDOCK:   -0.92 KCAL/MOL
REMARK 927      BINDING AFFINITY PREDICTED BY RF-SCORE:    0.00 PKD
ROOT
HETATM    1 CA   UNL     1      -8.098  12.279  69.270  1.00  0.00    -0.279 Ca 
HETATM    2  O   UNL     2     -11.450  12.786  63.148  1.00  0.00    -0.776 OA 
HETATM    3  C   UNL     2     -10.488  12.629  64.197  1.00  0.00    -0.413 C  
HETATM    4  H   UNL     2     -10.996  12.650  62.325  1.00  0.00     0.000 HD 
HETATM    5  O   UNL     3     -11.715   8.213  69.533  1.00  0.00    -0.122 OA 
HETATM    6  H   UNL     3     -12.583   7.925  69.275  1.00  0.00     0.000 HD 
HETATM    7  C   UNL     3     -11.899   9.118  70.658  1.00  0.00    -0.175 C  
ENDROOT
BRANCH   3   8
HETATM    8  C   UNL     2     -11.210  12.844  65.507  1.00  0.00    -0.288 C  
HETATM    9  H   UNL     2     -12.823  12.116  66.360  1.00  0.00     0.000 HD 
HETATM   10  O   UNL     2     -12.368  11.980  65.537  1.00  0.00    -0.460 OA 
BRANCH   8  11
HETATM   11  C   UNL     2     -11.678  14.286  65.794  1.00  0.00    -0.359 C  
HETATM   12  C   UNL     2     -10.810  15.460  65.416  1.00  0.00    -0.391 C  
HETATM   13  O   UNL     2     -11.562  14.381  67.218  1.00  0.00    -0.344 OA 
HETATM   14  O   UNL     2      -9.589  14.328  68.420  1.00  0.00    -0.211 OA 
HETATM   15  H   UNL     2      -8.507  16.956  65.665  1.00  0.00     0.000 HD 
HETATM   16  O   UNL     2     -11.229  16.252  64.529  1.00  0.00    -0.626 OA 
HETATM   17  C   UNL     2     -10.233  14.609  67.434  1.00  0.00    -0.240 C  
HETATM   18  C   UNL     2      -9.792  15.479  66.310  1.00  0.00    -0.294 C  
HETATM   19  O   UNL     2      -8.788  16.400  66.382  1.00  0.00    -0.254 OA 
ENDBRANCH   8  11
ENDBRANCH   3   8
BRANCH   7  20
HETATM   20  C   UNL     3     -10.498   9.583  71.075  1.00  0.00    -0.306 C  
HETATM   21  O   UNL     3      -9.981  10.501  70.114  1.00  0.00    -0.402 OA 
HETATM   22  H   UNL     3      -9.113  10.789  70.373  1.00  0.00     0.000 HD 
BRANCH  20  23
HETATM   23  C   UNL     3      -9.427   8.581  71.586  1.00  0.00    -0.246 C  
HETATM   24  O   UNL     3      -6.034   9.218  71.882  1.00  0.00    -0.120 OA 
HETATM   25  C   UNL     3      -7.886   8.674  73.297  1.00  0.00     0.120 C  
HETATM   26  C   UNL     3      -9.134   8.279  73.019  1.00  0.00    -0.249 C  
HETATM   27  O   UNL     3      -7.222   8.514  74.492  1.00  0.00    -0.201 OA 
HETATM   28  O   UNL     3      -8.132   8.827  71.011  1.00  0.00    -0.126 OA 
HETATM   29  C   UNL     3      -7.228   9.014  72.034  1.00  0.00     0.192 C  
HETATM   30  O   UNL     3     -10.021   7.621  73.610  1.00  0.00    -0.312 OA 
HETATM   31  H   UNL     3      -7.649   8.293  75.312  1.00  0.00     0.000 HD 
ENDBRANCH  20  23
ENDBRANCH   7  20
TORSDOF 4
ENDMDL
MODEL      188
REMARK 921   NORMALIZED FREE ENERGY PREDICTED BY IDOCK:   -4.76 KCAL/MOL
REMARK 922        TOTAL FREE ENERGY PREDICTED BY IDOCK:   -7.79 KCAL/MOL
REMARK 923 INTER-LIGAND FREE ENERGY PREDICTED BY IDOCK:   -7.08 KCAL/MOL
REMARK 924 INTRA-LIGAND FREE ENERGY PREDICTED BY IDOCK:   -0.71 KCAL/MOL
REMARK 927      BINDING AFFINITY PREDICTED BY RF-SCORE:    0.00 PKD
ROOT
HETATM    1 CA   UNL     1     -10.350  15.095  64.170  1.00  0.00    -0.519 Ca 
HETATM    2  O   UNL     2     -10.472  20.189  68.966  1.00  0.00    -0.558 OA 
HETATM    3  C   UNL     2     -10.773  19.251  67.927  1.00  0.00    -0.311 C  
HETATM    4  H   UNL     2     -11.259  20.697  69.127  1.00  0.00     0.000 HD 
HETATM    5  O   UNL     3      -9.484  12.395  68.823  1.00  0.00    -0.398 OA 
HETATM    6  H   UNL     3      -9.097  12.441  69.689  1.00  0.00     0.000 HD 
HETATM    7  C   UNL     3      -8.389  12.154  67.894  1.00  0.00    -0.161 C  
ENDROOT
BRANCH   3   8
HETATM    8  C   UNL     2      -9.522  18.443  67.673  1.00  0.00    -0.272 C  
HETATM    9  H   UNL     2      -8.741  16.793  68.397  1.00  0.00     0.000 HD 
HETATM   10  O   UNL     2      -9.528  17.300  68.556  1.00  0.00    -0.268 OA 
BRANCH   8  11
HETATM   11  C   UNL     2      -8.184  19.189  67.861  1.00  0.00    -0.290 C  
HETATM   12  C   UNL     2      -7.616  20.033  66.747  1.00  0.00    -0.275 C  
HETATM   13  O   UNL     2      -7.222  18.128  67.840  1.00  0.00    -0.215 OA 
HETATM   14  O   UNL     2      -6.715  16.799  66.019  1.00  0.00    -0.033 OA 
HETATM   15  H   UNL     2      -6.560  20.320  64.216  1.00  0.00     0.000 HD 
HETATM   16  O   UNL     2      -7.525  21.278  66.927  1.00  0.00    -0.273 OA 
HETATM   17  C   UNL     2      -7.054  17.851  66.514  1.00  0.00    -0.235 C  
HETATM   18  C   UNL     2      -7.146  19.165  65.820  1.00  0.00    -0.266 C  
HETATM   19  O   UNL     2      -6.502  19.482  64.659  1.00  0.00    -0.386 OA 
ENDBRANCH   8  11
ENDBRANCH   3   8
BRANCH   7  20
HETATM   20  C   UNL     3      -9.013  12.079  66.496  1.00  0.00    -0.193 C  
HETATM   21  O   UNL     3      -9.527  13.356  66.120  1.00  0.00    -0.415 OA 
HETATM   22  H   UNL     3      -9.914  13.309  65.254  1.00  0.00     0.000 HD 
BRANCH  20  23
HETATM   23  C   UNL     3      -9.949  10.910  66.084  1.00  0.00    -0.233 C  
HETATM   24  O   UNL     3      -9.006   7.599  65.698  1.00  0.00    -0.112 OA 
HETATM   25  C   UNL     3     -10.469   8.896  67.077  1.00  0.00    -0.256 C  
HETATM   26  C   UNL     3     -10.870  10.171  66.998  1.00  0.00    -0.151 C  
HETATM   27  O   UNL     3     -11.091   7.882  67.770  1.00  0.00    -0.490 OA 
HETATM   28  O   UNL     3      -9.246   9.869  65.384  1.00  0.00    -0.178 OA 
HETATM   29  C   UNL     3      -9.447   8.680  66.051  1.00  0.00    -0.208 C  
HETATM   30  O   UNL     3     -11.867  10.824  67.382  1.00  0.00    -0.382 OA 
HETATM   31  H   UNL     3     -11.754   8.022  68.436  1.00  0.00     0.000 HD 
ENDBRANCH  20  23
ENDBRANCH   7  20
TORSDOF 4
ENDMDL
MODEL      189
REMARK 921   NORMALIZED FREE ENERGY PREDICTED BY IDOCK:   -4.75 KCAL/MOL
REMARK 922        TOTAL FREE ENERGY PREDICTED BY IDOCK:   -7.79 KCAL/MOL
REMARK 923 INTER-LIGAND FREE ENERGY PREDICTED BY IDOCK:   -5.64 KCAL/MOL
REMARK 924 INTRA-LIGAND FREE ENERGY PREDICTED BY IDOCK:   -2.15 KCAL/MOL
REMARK 927      BINDING AFFINITY PREDICTED BY RF-SCORE:    0.00 PKD
ROOT
HETATM    1 CA   UNL     1      -7.682   5.577  70.030  1.00  0.00    -0.063 Ca 
HETATM    2  O   UNL     2      -9.374   4.719  63.294  1.00  0.00    -0.326 OA 
HETATM    3  C   UNL     2      -9.154   4.572  64.702  1.00  0.00    -0.151 C  
HETATM    4  H   UNL     2      -9.800   3.926  62.990  1.00  0.00     0.000 HD 
HETATM    5  O   UNL     3     -11.354   9.515  69.196  1.00  0.00    -0.446 OA 
HETATM    6  H   UNL     3     -11.708  10.128  68.562  1.00  0.00     0.000 HD 
HETATM    7  C   UNL     3     -10.104  10.090  69.672  1.00  0.00    -0.236 C  
ENDROOT
BRANCH   3   8
HETATM    8  C   UNL     2      -8.478   5.834  65.186  1.00  0.00    -0.138 C  
HETATM    9  H   UNL     2      -6.770   6.738  64.834  1.00  0.00     0.000 HD 
HETATM   10  O   UNL     2      -7.195   5.945  64.529  1.00  0.00    -0.058 OA 
BRANCH   8  11
HETATM   11  C   UNL     2      -8.249   5.939  66.709  1.00  0.00    -0.105 C  
HETATM   12  C   UNL     2      -9.310   5.473  67.674  1.00  0.00    -0.112 C  
HETATM   13  O   UNL     2      -8.343   7.348  66.948  1.00  0.00    -0.117 OA 
HETATM   14  O   UNL     2     -10.249   8.634  66.714  1.00  0.00    -0.270 OA 
HETATM   15  H   UNL     2     -11.822   5.656  68.794  1.00  0.00     0.000 HD 
HETATM   16  O   UNL     2      -9.051   4.486  68.415  1.00  0.00    -0.111 OA 
HETATM   17  C   UNL     2      -9.686   7.596  66.980  1.00  0.00    -0.195 C  
HETATM   18  C   UNL     2     -10.293   6.403  67.630  1.00  0.00    -0.197 C  
HETATM   19  O   UNL     2     -11.435   6.417  68.379  1.00  0.00    -0.205 OA 
ENDBRANCH   8  11
ENDBRANCH   3   8
BRANCH   7  20
HETATM   20  C   UNL     3      -9.533   9.102  70.695  1.00  0.00    -0.261 C  
HETATM   21  O   UNL     3      -8.854   8.041  70.025  1.00  0.00    -0.141 OA 
HETATM   22  H   UNL     3      -8.499   7.429  70.659  1.00  0.00     0.000 HD 
BRANCH  20  23
HETATM   23  C   UNL     3     -10.372   8.607  71.906  1.00  0.00    -0.335 C  
HETATM   24  O   UNL     3     -13.751   9.187  72.401  1.00  0.00    -0.464 OA 
HETATM   25  C   UNL     3     -12.282   7.328  72.068  1.00  0.00    -0.277 C  
HETATM   26  C   UNL     3     -10.947   7.238  72.063  1.00  0.00    -0.238 C  
HETATM   27  O   UNL     3     -13.173   6.295  72.254  1.00  0.00    -0.469 OA 
HETATM   28  O   UNL     3     -11.475   9.482  72.198  1.00  0.00    -0.152 OA 
HETATM   29  C   UNL     3     -12.638   8.745  72.167  1.00  0.00    -0.399 C  
HETATM   30  O   UNL     3     -10.106   6.337  72.286  1.00  0.00    -0.177 OA 
HETATM   31  H   UNL     3     -12.941   5.376  72.190  1.00  0.00     0.000 HD 
ENDBRANCH  20  23
ENDBRANCH   7  20
TORSDOF 4
ENDMDL
MODEL      190
REMARK 921   NORMALIZED FREE ENERGY PREDICTED BY IDOCK:   -4.75 KCAL/MOL
REMARK 922        TOTAL FREE ENERGY PREDICTED BY IDOCK:   -7.79 KCAL/MOL
REMARK 923 INTER-LIGAND FREE ENERGY PREDICTED BY IDOCK:   -6.48 KCAL/MOL
REMARK 924 INTRA-LIGAND FREE ENERGY PREDICTED BY IDOCK:   -1.30 KCAL/MOL
REMARK 927      BINDING AFFINITY PREDICTED BY RF-SCORE:    0.00 PKD
ROOT
HETATM    1 CA   UNL     1     -12.840   6.671  70.420  1.00  0.00    -0.393 Ca 
HETATM    2  O   UNL     2      -8.504   2.170  67.273  1.00  0.00    -0.078 OA 
HETATM    3  C   UNL     2      -9.635   2.896  67.766  1.00  0.00    -0.022 C  
HETATM    4  H   UNL     2      -8.833   1.479  66.711  1.00  0.00     0.000 HD 
HETATM    5  O   UNL     3      -9.960   9.890  67.098  1.00  0.00    -0.180 OA 
HETATM    6  H   UNL     3      -9.115  10.027  66.687  1.00  0.00     0.000 HD 
HETATM    7  C   UNL     3      -9.828  10.347  68.474  1.00  0.00    -0.167 C  
ENDROOT
BRANCH   3   8
HETATM    8  C   UNL     2      -9.111   3.995  68.660  1.00  0.00    -0.133 C  
HETATM    9  H   UNL     2      -8.770   4.203  70.583  1.00  0.00     0.000 HD 
HETATM   10  O   UNL     2      -9.100   3.511  70.021  1.00  0.00    -0.097 OA 
BRANCH   8  11
HETATM   11  C   UNL     2      -9.893   5.326  68.629  1.00  0.00    -0.155 C  
HETATM   12  C   UNL     2      -9.490   6.426  67.679  1.00  0.00    -0.119 C  
HETATM   13  O   UNL     2      -9.508   5.950  69.859  1.00  0.00    -0.146 OA 
HETATM   14  O   UNL     2      -7.391   6.714  70.382  1.00  0.00    -0.077 OA 
HETATM   15  H   UNL     2      -7.702   8.321  66.778  1.00  0.00     0.000 HD 
HETATM   16  O   UNL     2     -10.294   6.747  66.761  1.00  0.00    -0.230 OA 
HETATM   17  C   UNL     2      -8.282   6.490  69.594  1.00  0.00    -0.126 C  
HETATM   18  C   UNL     2      -8.353   6.961  68.183  1.00  0.00    -0.118 C  
HETATM   19  O   UNL     2      -7.656   8.020  67.677  1.00  0.00    -0.098 OA 
ENDBRANCH   8  11
ENDBRANCH   3   8
BRANCH   7  20
HETATM   20  C   UNL     3     -11.193  10.126  69.138  1.00  0.00    -0.183 C  
HETATM   21  O   UNL     3     -12.216  10.771  68.382  1.00  0.00    -0.832 OA 
HETATM   22  H   UNL     3     -13.061  10.633  68.793  1.00  0.00     0.000 HD 
BRANCH  20  23
HETATM   23  C   UNL     3     -11.388  10.286  70.671  1.00  0.00    -0.347 C  
HETATM   24  O   UNL     3     -13.799  12.237  72.214  1.00  0.00    -0.298 OA 
HETATM   25  C   UNL     3     -13.187   9.929  72.067  1.00  0.00    -0.456 C  
HETATM   26  C   UNL     3     -12.104   9.325  71.561  1.00  0.00    -0.361 C  
HETATM   27  O   UNL     3     -14.072   9.397  72.977  1.00  0.00    -0.936 OA 
HETATM   28  O   UNL     3     -11.948  11.564  71.018  1.00  0.00    -0.245 OA 
HETATM   29  C   UNL     3     -13.100  11.355  71.744  1.00  0.00    -0.418 C  
HETATM   30  O   UNL     3     -11.505   8.243  71.757  1.00  0.00    -0.262 OA 
HETATM   31  H   UNL     3     -14.128   8.472  73.186  1.00  0.00     0.000 HD 
ENDBRANCH  20  23
ENDBRANCH   7  20
TORSDOF 4
ENDMDL
MODEL      191
REMARK 921   NORMALIZED FREE ENERGY PREDICTED BY IDOCK:   -4.74 KCAL/MOL
REMARK 922        TOTAL FREE ENERGY PREDICTED BY IDOCK:   -7.78 KCAL/MOL
REMARK 923 INTER-LIGAND FREE ENERGY PREDICTED BY IDOCK:   -7.16 KCAL/MOL
REMARK 924 INTRA-LIGAND FREE ENERGY PREDICTED BY IDOCK:   -0.62 KCAL/MOL
REMARK 927      BINDING AFFINITY PREDICTED BY RF-SCORE:    0.00 PKD
ROOT
HETATM    1 CA   UNL     1      -8.590  12.868  69.813  1.00  0.00    -0.024 Ca 
HETATM    2  O   UNL     2     -11.935   7.306  72.429  1.00  0.00    -0.425 OA 
HETATM    3  C   UNL     2     -11.383   8.602  72.174  1.00  0.00    -0.364 C  
HETATM    4  H   UNL     2     -12.465   7.374  73.215  1.00  0.00     0.000 HD 
HETATM    5  O   UNL     3     -12.135  11.623  65.867  1.00  0.00    -0.252 OA 
HETATM    6  H   UNL     3     -12.600  10.918  65.433  1.00  0.00     0.000 HD 
HETATM    7  C   UNL     3     -10.777  11.605  65.342  1.00  0.00    -0.287 C  
ENDROOT
BRANCH   3   8
HETATM    8  C   UNL     2     -10.541   8.494  70.924  1.00  0.00    -0.208 C  
HETATM    9  H   UNL     2     -10.665   9.163  69.081  1.00  0.00     0.000 HD 
HETATM   10  O   UNL     2     -11.194   9.232  69.867  1.00  0.00    -0.217 OA 
BRANCH   8  11
HETATM   11  C   UNL     2     -10.266   7.064  70.413  1.00  0.00    -0.196 C  
HETATM   12  C   UNL     2      -9.467   6.095  71.248  1.00  0.00    -0.163 C  
HETATM   13  O   UNL     2      -9.316   7.277  69.362  1.00  0.00    -0.152 OA 
HETATM   14  O   UNL     2      -7.157   8.055  69.630  1.00  0.00    -0.058 OA 
HETATM   15  H   UNL     2      -7.128   5.302  72.474  1.00  0.00     0.000 HD 
HETATM   16  O   UNL     2     -10.048   5.067  71.691  1.00  0.00    -0.182 OA 
HETATM   17  C   UNL     2      -8.126   7.437  70.011  1.00  0.00    -0.129 C  
HETATM   18  C   UNL     2      -8.179   6.505  71.171  1.00  0.00    -0.121 C  
HETATM   19  O   UNL     2      -7.094   5.897  71.735  1.00  0.00    -0.080 OA 
ENDBRANCH   8  11
ENDBRANCH   3   8
BRANCH   7  20
HETATM   20  C   UNL     3     -10.025  12.743  66.043  1.00  0.00    -0.271 C  
HETATM   21  O   UNL     3      -9.396  12.258  67.227  1.00  0.00    -0.177 OA 
HETATM   22  H   UNL     3      -8.930  12.963  67.661  1.00  0.00     0.000 HD 
BRANCH  20  23
HETATM   23  C   UNL     3     -10.666  14.145  66.234  1.00  0.00    -0.293 C  
HETATM   24  O   UNL     3      -9.137  17.181  65.568  1.00  0.00    -0.343 OA 
HETATM   25  C   UNL     3     -11.017  15.916  64.801  1.00  0.00    -0.375 C  
HETATM   26  C   UNL     3     -11.602  14.810  65.279  1.00  0.00    -0.338 C  
HETATM   27  O   UNL     3     -11.578  16.834  63.943  1.00  0.00    -1.451 OA 
HETATM   28  O   UNL     3      -9.687  15.157  66.523  1.00  0.00    -0.243 OA 
HETATM   29  C   UNL     3      -9.806  16.161  65.587  1.00  0.00    -0.255 C  
HETATM   30  O   UNL     3     -12.745  14.303  65.223  1.00  0.00    -0.554 OA 
HETATM   31  H   UNL     3     -12.364  16.674  63.433  1.00  0.00     0.000 HD 
ENDBRANCH  20  23
ENDBRANCH   7  20
TORSDOF 4
ENDMDL
MODEL      192
REMARK 921   NORMALIZED FREE ENERGY PREDICTED BY IDOCK:   -4.73 KCAL/MOL
REMARK 922        TOTAL FREE ENERGY PREDICTED BY IDOCK:   -7.77 KCAL/MOL
REMARK 923 INTER-LIGAND FREE ENERGY PREDICTED BY IDOCK:   -6.91 KCAL/MOL
REMARK 924 INTRA-LIGAND FREE ENERGY PREDICTED BY IDOCK:   -0.85 KCAL/MOL
REMARK 927      BINDING AFFINITY PREDICTED BY RF-SCORE:    0.00 PKD
ROOT
HETATM    1 CA   UNL     1      -7.428  14.282  66.119  1.00  0.00    -0.098 Ca 
HETATM    2  O   UNL     2      -5.215  11.231  72.015  1.00  0.00    -0.328 OA 
HETATM    3  C   UNL     2      -5.631  12.146  70.995  1.00  0.00    -0.037 C  
HETATM    4  H   UNL     2      -5.039  11.740  72.798  1.00  0.00     0.000 HD 
HETATM    5  O   UNL     3     -11.623  11.078  67.470  1.00  0.00    -0.529 OA 
HETATM    6  H   UNL     3     -11.876  10.258  67.878  1.00  0.00     0.000 HD 
HETATM    7  C   UNL     3     -11.150  10.745  66.134  1.00  0.00     0.136 C  
ENDROOT
BRANCH   3   8
HETATM    8  C   UNL     2      -5.909  11.337  69.750  1.00  0.00    -0.091 C  
HETATM    9  H   UNL     2      -5.945  11.693  67.818  1.00  0.00     0.000 HD 
HETATM   10  O   UNL     2      -5.769  12.202  68.601  1.00  0.00    -0.052 OA 
BRANCH   8  11
HETATM   11  C   UNL     2      -7.295  10.661  69.677  1.00  0.00    -0.130 C  
HETATM   12  C   UNL     2      -7.546   9.355  70.388  1.00  0.00    -0.145 C  
HETATM   13  O   UNL     2      -7.347  10.185  68.327  1.00  0.00    -0.079 OA 
HETATM   14  O   UNL     2      -6.016   8.523  67.428  1.00  0.00    -0.045 OA 
HETATM   15  H   UNL     2      -7.082   6.662  70.754  1.00  0.00     0.000 HD 
HETATM   16  O   UNL     2      -8.373   9.343  71.341  1.00  0.00    -0.295 OA 
HETATM   17  C   UNL     2      -6.617   9.031  68.348  1.00  0.00    -0.059 C  
HETATM   18  C   UNL     2      -6.905   8.404  69.668  1.00  0.00    -0.044 C  
HETATM   19  O   UNL     2      -6.898   7.062  69.913  1.00  0.00    -0.051 OA 
ENDBRANCH   8  11
ENDBRANCH   3   8
BRANCH   7  20
HETATM   20  C   UNL     3     -10.741  12.067  65.475  1.00  0.00    -0.276 C  
HETATM   21  O   UNL     3      -9.375  12.358  65.767  1.00  0.00    -0.418 OA 
HETATM   22  H   UNL     3      -9.121  13.177  65.359  1.00  0.00     0.000 HD 
BRANCH  20  23
HETATM   23  C   UNL     3     -11.650  13.326  65.543  1.00  0.00    -0.326 C  
HETATM   24  O   UNL     3     -10.702  16.449  66.705  1.00  0.00    -0.278 OA 
HETATM   25  C   UNL     3     -11.453  15.448  64.665  1.00  0.00    -0.337 C  
HETATM   26  C   UNL     3     -11.958  14.236  64.401  1.00  0.00    -0.456 C  
HETATM   27  O   UNL     3     -11.579  16.576  63.888  1.00  0.00    -1.598 OA 
HETATM   28  O   UNL     3     -11.268  14.217  66.604  1.00  0.00    -0.316 OA 
HETATM   29  C   UNL     3     -11.021  15.461  66.064  1.00  0.00    -0.286 C  
HETATM   30  O   UNL     3     -12.711  13.748  63.527  1.00  0.00    -0.774 OA 
HETATM   31  H   UNL     3     -11.860  16.568  62.980  1.00  0.00     0.000 HD 
ENDBRANCH  20  23
ENDBRANCH   7  20
TORSDOF 4
ENDMDL
MODEL      193
REMARK 921   NORMALIZED FREE ENERGY PREDICTED BY IDOCK:   -4.72 KCAL/MOL
REMARK 922        TOTAL FREE ENERGY PREDICTED BY IDOCK:   -7.75 KCAL/MOL
REMARK 923 INTER-LIGAND FREE ENERGY PREDICTED BY IDOCK:   -7.22 KCAL/MOL
REMARK 924 INTRA-LIGAND FREE ENERGY PREDICTED BY IDOCK:   -0.53 KCAL/MOL
REMARK 927      BINDING AFFINITY PREDICTED BY RF-SCORE:    0.00 PKD
ROOT
HETATM    1 CA   UNL     1     -11.702   7.653  66.815  1.00  0.00    -0.371 Ca 
HETATM    2  O   UNL     2     -12.242  13.677  63.296  1.00  0.00    -0.959 OA 
HETATM    3  C   UNL     2     -12.398  12.351  63.813  1.00  0.00    -0.528 C  
HETATM    4  H   UNL     2     -12.923  13.810  62.647  1.00  0.00     0.000 HD 
HETATM    5  O   UNL     3     -12.824  11.253  70.748  1.00  0.00    -0.277 OA 
HETATM    6  H   UNL     3     -12.713  12.152  71.035  1.00  0.00     0.000 HD 
HETATM    7  C   UNL     3     -11.571  10.570  71.038  1.00  0.00    -0.227 C  
ENDROOT
BRANCH   3   8
HETATM    8  C   UNL     2     -11.314  12.140  64.845  1.00  0.00    -0.326 C  
HETATM    9  H   UNL     2     -10.102  10.673  65.332  1.00  0.00     0.000 HD 
HETATM   10  O   UNL     2     -10.783  10.806  64.683  1.00  0.00    -0.284 OA 
BRANCH   8  11
HETATM   11  C   UNL     2     -11.738  12.314  66.319  1.00  0.00    -0.366 C  
HETATM   12  C   UNL     2     -11.345  13.552  67.085  1.00  0.00    -0.321 C  
HETATM   13  O   UNL     2     -10.911  11.365  67.002  1.00  0.00    -0.264 OA 
HETATM   14  O   UNL     2      -8.612  11.475  67.205  1.00  0.00    -0.141 OA 
HETATM   15  H   UNL     2      -9.453  15.209  68.215  1.00  0.00     0.000 HD 
HETATM   16  O   UNL     2     -12.258  14.334  67.466  1.00  0.00    -0.354 OA 
HETATM   17  C   UNL     2      -9.703  11.992  67.118  1.00  0.00    -0.197 C  
HETATM   18  C   UNL     2     -10.023  13.427  67.349  1.00  0.00    -0.230 C  
HETATM   19  O   UNL     2      -9.250  14.293  68.067  1.00  0.00    -0.180 OA 
ENDBRANCH   8  11
ENDBRANCH   3   8
BRANCH   7  20
HETATM   20  C   UNL     3     -11.750   9.120  70.575  1.00  0.00    -0.152 C  
HETATM   21  O   UNL     3     -12.954   8.577  71.116  1.00  0.00    -0.487 OA 
HETATM   22  H   UNL     3     -13.064   7.679  70.828  1.00  0.00     0.000 HD 
BRANCH  20  23
HETATM   23  C   UNL     3     -10.572   8.107  70.597  1.00  0.00    -0.215 C  
HETATM   24  O   UNL     3     -10.704   4.872  71.828  1.00  0.00    -0.144 OA 
HETATM   25  C   UNL     3     -10.319   5.981  69.743  1.00  0.00    -0.228 C  
HETATM   26  C   UNL     3     -10.123   7.271  69.444  1.00  0.00    -0.183 C  
HETATM   27  O   UNL     3      -9.976   4.898  68.966  1.00  0.00    -0.181 OA 
HETATM   28  O   UNL     3     -10.678   7.171  71.683  1.00  0.00    -0.213 OA 
HETATM   29  C   UNL     3     -10.658   5.895  71.165  1.00  0.00    -0.246 C  
HETATM   30  O   UNL     3      -9.553   7.904  68.526  1.00  0.00    -0.148 OA 
HETATM   31  H   UNL     3      -9.755   4.955  68.043  1.00  0.00     0.000 HD 
ENDBRANCH  20  23
ENDBRANCH   7  20
TORSDOF 4
ENDMDL
MODEL      194
REMARK 921   NORMALIZED FREE ENERGY PREDICTED BY IDOCK:   -4.71 KCAL/MOL
REMARK 922        TOTAL FREE ENERGY PREDICTED BY IDOCK:   -7.74 KCAL/MOL
REMARK 923 INTER-LIGAND FREE ENERGY PREDICTED BY IDOCK:   -6.67 KCAL/MOL
REMARK 924 INTRA-LIGAND FREE ENERGY PREDICTED BY IDOCK:   -1.07 KCAL/MOL
REMARK 927      BINDING AFFINITY PREDICTED BY RF-SCORE:    0.00 PKD
ROOT
HETATM    1 CA   UNL     1     -12.705  12.498  69.511  1.00  0.00    -0.181 Ca 
HETATM    2  O   UNL     2      -9.931   6.339  67.681  1.00  0.00    -0.120 OA 
HETATM    3  C   UNL     2     -10.762   7.492  67.856  1.00  0.00    -0.133 C  
HETATM    4  H   UNL     2     -10.378   5.756  67.079  1.00  0.00     0.000 HD 
HETATM    5  O   UNL     3      -8.155  13.952  66.890  1.00  0.00    -0.388 OA 
HETATM    6  H   UNL     3      -7.258  13.709  66.695  1.00  0.00     0.000 HD 
HETATM    7  C   UNL     3      -8.150  14.498  68.240  1.00  0.00    -0.140 C  
ENDROOT
BRANCH   3   8
HETATM    8  C   UNL     2     -10.050   8.419  68.814  1.00  0.00    -0.196 C  
HETATM    9  H   UNL     2      -8.230   9.137  68.985  1.00  0.00     0.000 HD 
HETATM   10  O   UNL     2      -8.678   8.554  68.383  1.00  0.00    -0.140 OA 
BRANCH   8  11
HETATM   11  C   UNL     2     -10.049   7.992  70.297  1.00  0.00    -0.192 C  
HETATM   12  C   UNL     2     -11.262   7.331  70.902  1.00  0.00    -0.272 C  
HETATM   13  O   UNL     2     -10.118   9.244  70.989  1.00  0.00    -0.270 OA 
HETATM   14  O   UNL     2     -11.910  10.703  70.968  1.00  0.00    -0.336 OA 
HETATM   15  H   UNL     2     -13.904   7.361  71.689  1.00  0.00     0.000 HD 
HETATM   16  O   UNL     2     -11.160   6.135  71.288  1.00  0.00    -0.273 OA 
HETATM   17  C   UNL     2     -11.438   9.589  70.932  1.00  0.00    -0.334 C  
HETATM   18  C   UNL     2     -12.187   8.308  71.054  1.00  0.00    -0.174 C  
HETATM   19  O   UNL     2     -13.426   8.178  71.611  1.00  0.00    -0.336 OA 
ENDBRANCH   8  11
ENDBRANCH   3   8
BRANCH   7  20
HETATM   20  C   UNL     3      -9.598  14.890  68.555  1.00  0.00    -0.215 C  
HETATM   21  O   UNL     3     -10.438  13.738  68.514  1.00  0.00    -0.235 OA 
HETATM   22  H   UNL     3     -11.335  13.981  68.710  1.00  0.00     0.000 HD 
BRANCH  20  23
HETATM   23  C   UNL     3     -10.261  16.140  67.913  1.00  0.00    -0.261 C  
HETATM   24  O   UNL     3      -9.820  19.420  68.937  1.00  0.00    -0.424 OA 
HETATM   25  C   UNL     3      -9.401  18.075  67.003  1.00  0.00    -0.265 C  
HETATM   26  C   UNL     3      -9.790  16.835  66.679  1.00  0.00    -0.277 C  
HETATM   27  O   UNL     3      -8.961  19.049  66.136  1.00  0.00    -0.425 OA 
HETATM   28  O   UNL     3     -10.450  17.204  68.861  1.00  0.00    -0.332 OA 
HETATM   29  C   UNL     3      -9.823  18.334  68.381  1.00  0.00    -0.369 C  
HETATM   30  O   UNL     3      -9.972  16.201  65.615  1.00  0.00    -0.386 OA 
HETATM   31  H   UNL     3      -8.687  18.881  65.242  1.00  0.00     0.000 HD 
ENDBRANCH  20  23
ENDBRANCH   7  20
TORSDOF 4
ENDMDL
MODEL      195
REMARK 921   NORMALIZED FREE ENERGY PREDICTED BY IDOCK:   -4.71 KCAL/MOL
REMARK 922        TOTAL FREE ENERGY PREDICTED BY IDOCK:   -7.74 KCAL/MOL
REMARK 923 INTER-LIGAND FREE ENERGY PREDICTED BY IDOCK:   -5.43 KCAL/MOL
REMARK 924 INTRA-LIGAND FREE ENERGY PREDICTED BY IDOCK:   -2.31 KCAL/MOL
REMARK 927      BINDING AFFINITY PREDICTED BY RF-SCORE:    0.00 PKD
ROOT
HETATM    1 CA   UNL     1     -10.462  11.466  70.556  1.00  0.00    -0.397 Ca 
HETATM    2  O   UNL     2      -8.106  10.256  64.079  1.00  0.00    -0.156 OA 
HETATM    3  C   UNL     2      -8.272  10.639  65.449  1.00  0.00    -0.125 C  
HETATM    4  H   UNL     2      -7.216  10.473  63.829  1.00  0.00     0.000 HD 
HETATM    5  O   UNL     3     -10.713   6.037  70.173  1.00  0.00    -0.255 OA 
HETATM    6  H   UNL     3     -10.859   5.304  69.587  1.00  0.00     0.000 HD 
HETATM    7  C   UNL     3     -12.028   6.576  70.492  1.00  0.00    -0.256 C  
ENDROOT
BRANCH   3   8
HETATM    8  C   UNL     2      -9.688  10.294  65.845  1.00  0.00    -0.225 C  
HETATM    9  H   UNL     2     -11.479  10.961  65.390  1.00  0.00     0.000 HD 
HETATM   10  O   UNL     2     -10.588  11.178  65.141  1.00  0.00    -0.284 OA 
BRANCH   8  11
HETATM   11  C   UNL     2     -10.011  10.379  67.352  1.00  0.00    -0.187 C  
HETATM   12  C   UNL     2      -9.040   9.840  68.373  1.00  0.00    -0.123 C  
HETATM   13  O   UNL     2     -11.052   9.409  67.511  1.00  0.00    -0.137 OA 
HETATM   14  O   UNL     2     -10.820   7.124  67.255  1.00  0.00    -0.311 OA 
HETATM   15  H   UNL     2      -7.659   7.764  69.550  1.00  0.00     0.000 HD 
HETATM   16  O   UNL     2      -8.490  10.655  69.163  1.00  0.00    -0.153 OA 
HETATM   17  C   UNL     2     -10.394   8.214  67.565  1.00  0.00    -0.261 C  
HETATM   18  C   UNL     2      -9.130   8.491  68.302  1.00  0.00    -0.138 C  
HETATM   19  O   UNL     2      -8.465   7.588  69.079  1.00  0.00    -0.131 OA 
ENDBRANCH   8  11
ENDBRANCH   3   8
BRANCH   7  20
HETATM   20  C   UNL     3     -11.793   7.759  71.439  1.00  0.00    -0.297 C  
HETATM   21  O   UNL     3     -11.673   8.968  70.691  1.00  0.00    -0.358 OA 
HETATM   22  H   UNL     3     -11.528   9.701  71.278  1.00  0.00     0.000 HD 
BRANCH  20  23
HETATM   23  C   UNL     3     -10.778   7.675  72.612  1.00  0.00    -0.321 C  
HETATM   24  O   UNL     3      -9.637   4.761  74.098  1.00  0.00    -0.120 OA 
HETATM   25  C   UNL     3      -8.752   6.603  72.854  1.00  0.00    -0.121 C  
HETATM   26  C   UNL     3      -9.294   7.770  72.484  1.00  0.00    -0.178 C  
HETATM   27  O   UNL     3      -7.409   6.311  72.935  1.00  0.00    -0.093 OA 
HETATM   28  O   UNL     3     -10.982   6.507  73.426  1.00  0.00    -0.250 OA 
HETATM   29  C   UNL     3      -9.805   5.792  73.467  1.00  0.00    -0.166 C  
HETATM   30  O   UNL     3      -8.862   8.912  72.202  1.00  0.00    -0.381 OA 
HETATM   31  H   UNL     3      -6.726   6.839  72.537  1.00  0.00     0.000 HD 
ENDBRANCH  20  23
ENDBRANCH   7  20
TORSDOF 4
ENDMDL
MODEL      196
REMARK 921   NORMALIZED FREE ENERGY PREDICTED BY IDOCK:   -4.71 KCAL/MOL
REMARK 922        TOTAL FREE ENERGY PREDICTED BY IDOCK:   -7.74 KCAL/MOL
REMARK 923 INTER-LIGAND FREE ENERGY PREDICTED BY IDOCK:   -7.20 KCAL/MOL
REMARK 924 INTRA-LIGAND FREE ENERGY PREDICTED BY IDOCK:   -0.54 KCAL/MOL
REMARK 927      BINDING AFFINITY PREDICTED BY RF-SCORE:    0.00 PKD
ROOT
HETATM    1 CA   UNL     1     -10.170  17.843  65.108  1.00  0.00    -0.173 Ca 
HETATM    2  O   UNL     2     -12.678  11.602  63.176  1.00  0.00    -0.875 OA 
HETATM    3  C   UNL     2     -12.164  12.938  63.229  1.00  0.00    -0.397 C  
HETATM    4  H   UNL     2     -12.783  11.375  62.259  1.00  0.00     0.000 HD 
HETATM    5  O   UNL     3      -6.379  14.392  66.955  1.00  0.00    -0.271 OA 
HETATM    6  H   UNL     3      -6.222  13.525  67.308  1.00  0.00     0.000 HD 
HETATM    7  C   UNL     3      -6.902  15.195  68.053  1.00  0.00    -0.141 C  
ENDROOT
BRANCH   3   8
HETATM    8  C   UNL     2     -11.998  13.298  64.686  1.00  0.00    -0.394 C  
HETATM    9  H   UNL     2     -11.742  14.959  65.705  1.00  0.00     0.000 HD 
HETATM   10  O   UNL     2     -11.847  14.732  64.788  1.00  0.00    -0.407 OA 
BRANCH   8  11
HETATM   11  C   UNL     2     -10.810  12.637  65.417  1.00  0.00    -0.287 C  
HETATM   12  C   UNL     2     -11.006  11.360  66.194  1.00  0.00    -0.236 C  
HETATM   13  O   UNL     2     -10.577  13.525  66.516  1.00  0.00    -0.277 OA 
HETATM   14  O   UNL     2     -12.016  13.888  68.288  1.00  0.00    -0.359 OA 
HETATM   15  H   UNL     2     -12.113   9.931  68.276  1.00  0.00     0.000 HD 
HETATM   16  O   UNL     2     -10.424  10.317  65.787  1.00  0.00    -0.196 OA 
HETATM   17  C   UNL     2     -11.528  13.182  67.434  1.00  0.00    -0.332 C  
HETATM   18  C   UNL     2     -11.671  11.704  67.322  1.00  0.00    -0.175 C  
HETATM   19  O   UNL     2     -12.022  10.874  68.347  1.00  0.00    -0.543 OA 
ENDBRANCH   8  11
ENDBRANCH   3   8
BRANCH   7  20
HETATM   20  C   UNL     3      -7.155  16.596  67.484  1.00  0.00    -0.144 C  
HETATM   21  O   UNL     3      -6.272  16.849  66.393  1.00  0.00    -0.265 OA 
HETATM   22  H   UNL     3      -6.429  17.717  66.041  1.00  0.00     0.000 HD 
BRANCH  20  23
HETATM   23  C   UNL     3      -7.334  17.830  68.411  1.00  0.00    -0.257 C  
HETATM   24  O   UNL     3      -5.374  18.600  71.161  1.00  0.00    -0.270 OA 
HETATM   25  C   UNL     3      -5.919  19.541  69.030  1.00  0.00    -0.243 C  
HETATM   26  C   UNL     3      -6.845  19.211  68.122  1.00  0.00    -0.248 C  
HETATM   27  O   UNL     3      -5.274  20.752  69.141  1.00  0.00    -0.274 OA 
HETATM   28  O   UNL     3      -6.881  17.575  69.751  1.00  0.00    -0.056 OA 
HETATM   29  C   UNL     3      -5.935  18.521  70.081  1.00  0.00    -0.143 C  
HETATM   30  O   UNL     3      -7.468  19.810  67.215  1.00  0.00    -0.236 OA 
HETATM   31  H   UNL     3      -5.264  21.413  68.459  1.00  0.00     0.000 HD 
ENDBRANCH  20  23
ENDBRANCH   7  20
TORSDOF 4
ENDMDL
MODEL      197
REMARK 921   NORMALIZED FREE ENERGY PREDICTED BY IDOCK:   -4.71 KCAL/MOL
REMARK 922        TOTAL FREE ENERGY PREDICTED BY IDOCK:   -7.73 KCAL/MOL
REMARK 923 INTER-LIGAND FREE ENERGY PREDICTED BY IDOCK:   -6.08 KCAL/MOL
REMARK 924 INTRA-LIGAND FREE ENERGY PREDICTED BY IDOCK:   -1.66 KCAL/MOL
REMARK 927      BINDING AFFINITY PREDICTED BY RF-SCORE:    0.00 PKD
ROOT
HETATM    1 CA   UNL     1     -10.584  11.591  70.590  1.00  0.00    -0.367 Ca 
HETATM    2  O   UNL     2      -8.062  10.871  64.102  1.00  0.00    -0.364 OA 
HETATM    3  C   UNL     2      -8.263  11.150  65.492  1.00  0.00     0.102 C  
HETATM    4  H   UNL     2      -7.166  11.106  63.892  1.00  0.00     0.000 HD 
HETATM    5  O   UNL     3     -10.815   6.205  69.795  1.00  0.00    -0.280 OA 
HETATM    6  H   UNL     3     -10.943   5.519  69.152  1.00  0.00     0.000 HD 
HETATM    7  C   UNL     3     -12.138   6.719  70.120  1.00  0.00    -0.079 C  
ENDROOT
BRANCH   3   8
HETATM    8  C   UNL     2      -9.689  10.776  65.826  1.00  0.00    -0.228 C  
HETATM    9  H   UNL     2     -10.947   9.379  65.254  1.00  0.00     0.000 HD 
HETATM   10  O   UNL     2     -10.050   9.615  65.045  1.00  0.00    -0.136 OA 
BRANCH   8  11
HETATM   11  C   UNL     2     -10.751  11.868  65.583  1.00  0.00    -0.280 C  
HETATM   12  C   UNL     2     -10.634  13.211  66.258  1.00  0.00    -0.284 C  
HETATM   13  O   UNL     2     -11.890  11.368  66.293  1.00  0.00    -0.256 OA 
HETATM   14  O   UNL     2     -12.052  11.120  68.584  1.00  0.00    -0.556 OA 
HETATM   15  H   UNL     2     -10.597  14.801  68.511  1.00  0.00     0.000 HD 
HETATM   16  O   UNL     2     -10.443  14.228  65.537  1.00  0.00    -0.309 OA 
HETATM   17  C   UNL     2     -11.641  11.687  67.597  1.00  0.00    -0.279 C  
HETATM   18  C   UNL     2     -10.957  13.009  67.558  1.00  0.00    -0.259 C  
HETATM   19  O   UNL     2     -11.033  13.957  68.536  1.00  0.00    -0.240 OA 
ENDBRANCH   8  11
ENDBRANCH   3   8
BRANCH   7  20
HETATM   20  C   UNL     3     -11.930   7.828  71.158  1.00  0.00    -0.291 C  
HETATM   21  O   UNL     3     -11.718   9.078  70.504  1.00  0.00    -0.397 OA 
HETATM   22  H   UNL     3     -11.589   9.765  71.148  1.00  0.00     0.000 HD 
BRANCH  20  23
HETATM   23  C   UNL     3     -11.001   7.628  72.388  1.00  0.00    -0.301 C  
HETATM   24  O   UNL     3      -9.718   4.604  73.488  1.00  0.00    -0.126 OA 
HETATM   25  C   UNL     3      -8.911   6.689  72.634  1.00  0.00    -0.123 C  
HETATM   26  C   UNL     3      -9.525   7.856  72.407  1.00  0.00    -0.192 C  
HETATM   27  O   UNL     3      -7.557   6.491  72.785  1.00  0.00    -0.096 OA 
HETATM   28  O   UNL     3     -11.160   6.331  72.985  1.00  0.00    -0.252 OA 
HETATM   29  C   UNL     3      -9.930   5.710  73.016  1.00  0.00    -0.173 C  
HETATM   30  O   UNL     3      -9.178   9.058  72.348  1.00  0.00    -0.307 OA 
HETATM   31  H   UNL     3      -6.896   7.127  72.537  1.00  0.00     0.000 HD 
ENDBRANCH  20  23
ENDBRANCH   7  20
TORSDOF 4
ENDMDL
MODEL      198
REMARK 921   NORMALIZED FREE ENERGY PREDICTED BY IDOCK:   -4.70 KCAL/MOL
REMARK 922        TOTAL FREE ENERGY PREDICTED BY IDOCK:   -7.72 KCAL/MOL
REMARK 923 INTER-LIGAND FREE ENERGY PREDICTED BY IDOCK:   -5.98 KCAL/MOL
REMARK 924 INTRA-LIGAND FREE ENERGY PREDICTED BY IDOCK:   -1.74 KCAL/MOL
REMARK 927      BINDING AFFINITY PREDICTED BY RF-SCORE:    0.00 PKD
ROOT
HETATM    1 CA   UNL     1      -9.751  13.917  64.655  1.00  0.00    -0.436 Ca 
HETATM    2  O   UNL     2     -10.522  19.882  68.233  1.00  0.00    -0.426 OA 
HETATM    3  C   UNL     2     -10.711  18.668  67.497  1.00  0.00    -0.394 C  
HETATM    4  H   UNL     2     -11.383  20.214  68.460  1.00  0.00     0.000 HD 
HETATM    5  O   UNL     3      -7.415  12.766  69.441  1.00  0.00    -0.310 OA 
HETATM    6  H   UNL     3      -6.921  13.120  70.171  1.00  0.00     0.000 HD 
HETATM    7  C   UNL     3      -6.463  12.564  68.359  1.00  0.00    -0.066 C  
ENDROOT
BRANCH   3   8
HETATM    8  C   UNL     2      -9.342  18.141  67.137  1.00  0.00    -0.263 C  
HETATM    9  H   UNL     2      -8.122  18.322  65.608  1.00  0.00     0.000 HD 
HETATM   10  O   UNL     2      -8.983  18.654  65.835  1.00  0.00    -0.470 OA 
BRANCH   8  11
HETATM   11  C   UNL     2      -9.192  16.605  67.108  1.00  0.00    -0.222 C  
HETATM   12  C   UNL     2      -8.736  15.859  68.336  1.00  0.00    -0.183 C  
HETATM   13  O   UNL     2      -8.030  16.414  66.294  1.00  0.00    -0.308 OA 
HETATM   14  O   UNL     2      -5.875  17.040  66.847  1.00  0.00    -0.161 OA 
HETATM   15  H   UNL     2      -6.841  15.257  70.246  1.00  0.00     0.000 HD 
HETATM   16  O   UNL     2      -9.545  15.064  68.887  1.00  0.00    -0.208 OA 
HETATM   17  C   UNL     2      -6.984  16.651  67.139  1.00  0.00    -0.191 C  
HETATM   18  C   UNL     2      -7.411  16.111  68.459  1.00  0.00    -0.161 C  
HETATM   19  O   UNL     2      -6.568  15.602  69.404  1.00  0.00    -0.144 OA 
ENDBRANCH   8  11
ENDBRANCH   3   8
BRANCH   7  20
HETATM   20  C   UNL     3      -7.259  11.992  67.180  1.00  0.00    -0.131 C  
HETATM   21  O   UNL     3      -8.125  12.992  66.644  1.00  0.00    -0.402 OA 
HETATM   22  H   UNL     3      -8.618  12.638  65.913  1.00  0.00     0.000 HD 
BRANCH  20  23
HETATM   23  C   UNL     3      -7.931  10.593  67.253  1.00  0.00    -0.116 C  
HETATM   24  O   UNL     3      -9.154   9.080  70.119  1.00  0.00    -0.160 OA 
HETATM   25  C   UNL     3      -9.983   9.879  68.022  1.00  0.00    -0.152 C  
HETATM   26  C   UNL     3      -9.353  10.294  66.915  1.00  0.00    -0.158 C  
HETATM   27  O   UNL     3     -11.288   9.450  68.111  1.00  0.00    -0.497 OA 
HETATM   28  O   UNL     3      -7.737   9.962  68.530  1.00  0.00    -0.079 OA 
HETATM   29  C   UNL     3      -8.972   9.650  69.056  1.00  0.00    -0.148 C  
HETATM   30  O   UNL     3      -9.628  10.354  65.695  1.00  0.00    -0.196 OA 
HETATM   31  H   UNL     3     -11.943   9.599  67.439  1.00  0.00     0.000 HD 
ENDBRANCH  20  23
ENDBRANCH   7  20
TORSDOF 4
ENDMDL
MODEL      199
REMARK 921   NORMALIZED FREE ENERGY PREDICTED BY IDOCK:   -4.69 KCAL/MOL
REMARK 922        TOTAL FREE ENERGY PREDICTED BY IDOCK:   -7.71 KCAL/MOL
REMARK 923 INTER-LIGAND FREE ENERGY PREDICTED BY IDOCK:   -7.46 KCAL/MOL
REMARK 924 INTRA-LIGAND FREE ENERGY PREDICTED BY IDOCK:   -0.25 KCAL/MOL
REMARK 927      BINDING AFFINITY PREDICTED BY RF-SCORE:    0.00 PKD
ROOT
HETATM    1 CA   UNL     1      -9.180  11.305  68.551  1.00  0.00    -0.135 Ca 
HETATM    2  O   UNL     2     -12.361  13.528  62.728  1.00  0.00    -0.855 OA 
HETATM    3  C   UNL     2     -11.479  13.319  63.837  1.00  0.00    -0.362 C  
HETATM    4  H   UNL     2     -11.976  14.205  62.184  1.00  0.00     0.000 HD 
HETATM    5  O   UNL     3      -9.196   6.854  65.409  1.00  0.00    -0.360 OA 
HETATM    6  H   UNL     3      -9.671   6.376  64.740  1.00  0.00     0.000 HD 
HETATM    7  C   UNL     3      -9.870   6.578  66.670  1.00  0.00    -0.148 C  
ENDROOT
BRANCH   3   8
HETATM    8  C   UNL     2     -12.091  12.242  64.702  1.00  0.00    -0.374 C  
HETATM    9  H   UNL     2     -13.885  11.478  64.939  1.00  0.00     0.000 HD 
HETATM   10  O   UNL     2     -13.500  12.155  64.394  1.00  0.00    -0.675 OA 
BRANCH   8  11
HETATM   11  C   UNL     2     -11.942  12.432  66.227  1.00  0.00    -0.298 C  
HETATM   12  C   UNL     2     -11.190  13.616  66.779  1.00  0.00    -0.314 C  
HETATM   13  O   UNL     2     -11.017  11.400  66.587  1.00  0.00    -0.281 OA 
HETATM   14  O   UNL     2      -8.797  11.295  65.954  1.00  0.00    -0.195 OA 
HETATM   15  H   UNL     2      -8.876  15.074  67.127  1.00  0.00     0.000 HD 
HETATM   16  O   UNL     2     -11.831  14.473  67.446  1.00  0.00    -0.389 OA 
HETATM   17  C   UNL     2      -9.795  11.911  66.252  1.00  0.00    -0.225 C  
HETATM   18  C   UNL     2      -9.878  13.366  66.556  1.00  0.00    -0.286 C  
HETATM   19  O   UNL     2      -8.824  14.146  66.933  1.00  0.00    -0.227 OA 
ENDBRANCH   8  11
ENDBRANCH   3   8
BRANCH   7  20
HETATM   20  C   UNL     3      -9.104   7.350  67.750  1.00  0.00    -0.129 C  
HETATM   21  O   UNL     3      -7.701   7.134  67.605  1.00  0.00    -0.107 OA 
HETATM   22  H   UNL     3      -7.226   7.613  68.274  1.00  0.00     0.000 HD 
BRANCH  20  23
HETATM   23  C   UNL     3      -9.562   7.345  69.234  1.00  0.00    -0.154 C  
HETATM   24  O   UNL     3     -11.533   9.754  70.756  1.00  0.00    -0.288 OA 
HETATM   25  C   UNL     3     -11.638   7.421  70.232  1.00  0.00    -0.128 C  
HETATM   26  C   UNL     3     -10.710   6.566  69.786  1.00  0.00    -0.269 C  
HETATM   27  O   UNL     3     -12.816   7.096  70.866  1.00  0.00    -0.572 OA 
HETATM   28  O   UNL     3      -9.765   8.672  69.747  1.00  0.00    -0.172 OA 
HETATM   29  C   UNL     3     -11.053   8.764  70.228  1.00  0.00    -0.222 C  
HETATM   30  O   UNL     3     -10.527   5.328  69.845  1.00  0.00    -0.297 OA 
HETATM   31  H   UNL     3     -13.195   6.225  70.868  1.00  0.00     0.000 HD 
ENDBRANCH  20  23
ENDBRANCH   7  20
TORSDOF 4
ENDMDL
MODEL      200
REMARK 921   NORMALIZED FREE ENERGY PREDICTED BY IDOCK:   -4.68 KCAL/MOL
REMARK 922        TOTAL FREE ENERGY PREDICTED BY IDOCK:   -7.70 KCAL/MOL
REMARK 923 INTER-LIGAND FREE ENERGY PREDICTED BY IDOCK:   -7.46 KCAL/MOL
REMARK 924 INTRA-LIGAND FREE ENERGY PREDICTED BY IDOCK:   -0.24 KCAL/MOL
REMARK 927      BINDING AFFINITY PREDICTED BY RF-SCORE:    0.00 PKD
ROOT
HETATM    1 CA   UNL     1      -7.765  12.976  66.101  1.00  0.00    -0.348 Ca 
HETATM    2  O   UNL     2      -9.377  18.999  69.277  1.00  0.00    -0.185 OA 
HETATM    3  C   UNL     2      -8.786  17.954  68.497  1.00  0.00    -0.292 C  
HETATM    4  H   UNL     2      -8.874  19.790  69.120  1.00  0.00     0.000 HD 
HETATM    5  O   UNL     3     -12.723  14.089  64.135  1.00  0.00    -0.662 OA 
HETATM    6  H   UNL     3     -13.566  14.483  64.327  1.00  0.00     0.000 HD 
HETATM    7  C   UNL     3     -12.723  12.783  64.780  1.00  0.00    -0.393 C  
ENDROOT
BRANCH   3   8
HETATM    8  C   UNL     2      -9.586  16.697  68.747  1.00  0.00    -0.254 C  
HETATM    9  H   UNL     2      -9.279  14.768  68.537  1.00  0.00     0.000 HD 
HETATM   10  O   UNL     2      -8.775  15.559  68.381  1.00  0.00    -0.165 OA 
BRANCH   8  11
HETATM   11  C   UNL     2     -10.932  16.591  67.998  1.00  0.00    -0.320 C  
HETATM   12  C   UNL     2     -11.099  15.611  66.864  1.00  0.00    -0.181 C  
HETATM   13  O   UNL     2     -10.972  17.806  67.241  1.00  0.00    -0.218 OA 
HETATM   14  O   UNL     2      -9.559  18.361  65.499  1.00  0.00    -0.173 OA 
HETATM   15  H   UNL     2     -10.476  14.689  64.341  1.00  0.00     0.000 HD 
HETATM   16  O   UNL     2     -11.911  14.658  67.012  1.00  0.00    -0.382 OA 
HETATM   17  C   UNL     2     -10.178  17.556  66.159  1.00  0.00    -0.335 C  
HETATM   18  C   UNL     2     -10.413  16.127  65.816  1.00  0.00    -0.367 C  
HETATM   19  O   UNL     2     -10.326  15.600  64.560  1.00  0.00    -0.237 OA 
ENDBRANCH   8  11
ENDBRANCH   3   8
BRANCH   7  20
HETATM   20  C   UNL     3     -11.363  12.146  64.471  1.00  0.00    -0.334 C  
HETATM   21  O   UNL     3     -11.477  11.264  63.357  1.00  0.00    -0.741 OA 
HETATM   22  H   UNL     3     -10.635  10.869  63.165  1.00  0.00     0.000 HD 
BRANCH  20  23
HETATM   23  C   UNL     3     -10.456  11.577  65.598  1.00  0.00    -0.266 C  
HETATM   24  O   UNL     3     -11.550  10.255  68.606  1.00  0.00    -0.173 OA 
HETATM   25  C   UNL     3     -10.370   9.531  66.655  1.00  0.00    -0.210 C  
HETATM   26  C   UNL     3      -9.856  10.211  65.622  1.00  0.00    -0.280 C  
HETATM   27  O   UNL     3     -10.027   8.259  67.052  1.00  0.00    -0.203 OA 
HETATM   28  O   UNL     3     -11.050  11.719  66.899  1.00  0.00    -0.276 OA 
HETATM   29  C   UNL     3     -11.121  10.475  67.486  1.00  0.00    -0.290 C  
HETATM   30  O   UNL     3      -8.934  10.026  64.795  1.00  0.00    -0.177 OA 
HETATM   31  H   UNL     3      -9.539   7.647  66.512  1.00  0.00     0.000 HD 
ENDBRANCH  20  23
ENDBRANCH   7  20
TORSDOF 4
ENDMDL
MODEL      201
REMARK 921   NORMALIZED FREE ENERGY PREDICTED BY IDOCK:   -4.68 KCAL/MOL
REMARK 922        TOTAL FREE ENERGY PREDICTED BY IDOCK:   -7.70 KCAL/MOL
REMARK 923 INTER-LIGAND FREE ENERGY PREDICTED BY IDOCK:   -6.88 KCAL/MOL
REMARK 924 INTRA-LIGAND FREE ENERGY PREDICTED BY IDOCK:   -0.82 KCAL/MOL
REMARK 927      BINDING AFFINITY PREDICTED BY RF-SCORE:    0.00 PKD
ROOT
HETATM    1 CA   UNL     1     -10.030   7.683  65.336  1.00  0.00    -0.402 Ca 
HETATM    2  O   UNL     2     -12.423  13.918  63.247  1.00  0.00    -1.113 OA 
HETATM    3  C   UNL     2     -12.256  12.540  63.598  1.00  0.00    -0.550 C  
HETATM    4  H   UNL     2     -13.328  14.036  62.984  1.00  0.00     0.000 HD 
HETATM    5  O   UNL     3      -9.487  10.746  69.809  1.00  0.00    -0.397 OA 
HETATM    6  H   UNL     3      -9.311  11.620  70.138  1.00  0.00     0.000 HD 
HETATM    7  C   UNL     3      -8.199  10.181  69.432  1.00  0.00    -0.166 C  
ENDROOT
BRANCH   3   8
HETATM    8  C   UNL     2     -10.816  12.353  64.016  1.00  0.00    -0.397 C  
HETATM    9  H   UNL     2      -9.339  11.171  63.486  1.00  0.00     0.000 HD 
HETATM   10  O   UNL     2     -10.244  11.289  63.222  1.00  0.00    -0.349 OA 
BRANCH   8  11
HETATM   11  C   UNL     2     -10.581  12.022  65.505  1.00  0.00    -0.273 C  
HETATM   12  C   UNL     2     -11.534  12.525  66.560  1.00  0.00    -0.362 C  
HETATM   13  O   UNL     2      -9.446  12.830  65.836  1.00  0.00    -0.189 OA 
HETATM   14  O   UNL     2      -9.405  15.139  65.902  1.00  0.00    -0.317 OA 
HETATM   15  H   UNL     2     -12.728  14.568  67.976  1.00  0.00     0.000 HD 
HETATM   16  O   UNL     2     -12.210  11.680  67.207  1.00  0.00    -0.414 OA 
HETATM   17  C   UNL     2      -9.967  14.076  66.039  1.00  0.00    -0.315 C  
HETATM   18  C   UNL     2     -11.288  13.851  66.686  1.00  0.00    -0.331 C  
HETATM   19  O   UNL     2     -11.885  14.711  67.563  1.00  0.00    -0.380 OA 
ENDBRANCH   8  11
ENDBRANCH   3   8
BRANCH   7  20
HETATM   20  C   UNL     3      -8.482   8.770  68.902  1.00  0.00    -0.131 C  
HETATM   21  O   UNL     3      -9.157   8.000  69.895  1.00  0.00    -0.144 OA 
HETATM   22  H   UNL     3      -9.333   7.126  69.566  1.00  0.00     0.000 HD 
BRANCH  20  23
HETATM   23  C   UNL     3      -7.401   7.954  68.141  1.00  0.00    -0.099 C  
HETATM   24  O   UNL     3      -7.247   4.500  67.927  1.00  0.00    -0.063 OA 
HETATM   25  C   UNL     3      -7.521   6.375  66.466  1.00  0.00    -0.086 C  
HETATM   26  C   UNL     3      -7.385   7.691  66.672  1.00  0.00    -0.088 C  
HETATM   27  O   UNL     3      -7.493   5.727  65.252  1.00  0.00    -0.073 OA 
HETATM   28  O   UNL     3      -7.182   6.660  68.728  1.00  0.00    -0.079 OA 
HETATM   29  C   UNL     3      -7.382   5.701  67.759  1.00  0.00    -0.077 C  
HETATM   30  O   UNL     3      -7.122   8.689  65.961  1.00  0.00    -0.081 OA 
HETATM   31  H   UNL     3      -7.583   6.165  64.414  1.00  0.00     0.000 HD 
ENDBRANCH  20  23
ENDBRANCH   7  20
TORSDOF 4
ENDMDL
MODEL      202
REMARK 921   NORMALIZED FREE ENERGY PREDICTED BY IDOCK:   -4.68 KCAL/MOL
REMARK 922        TOTAL FREE ENERGY PREDICTED BY IDOCK:   -7.70 KCAL/MOL
REMARK 923 INTER-LIGAND FREE ENERGY PREDICTED BY IDOCK:   -6.34 KCAL/MOL
REMARK 924 INTRA-LIGAND FREE ENERGY PREDICTED BY IDOCK:   -1.36 KCAL/MOL
REMARK 927      BINDING AFFINITY PREDICTED BY RF-SCORE:    0.00 PKD
ROOT
HETATM    1 CA   UNL     1      -7.143  13.273  67.508  1.00  0.00    -0.085 Ca 
HETATM    2  O   UNL     2     -11.064   7.513  68.157  1.00  0.00    -0.451 OA 
HETATM    3  C   UNL     2     -10.195   8.633  68.360  1.00  0.00    -0.200 C  
HETATM    4  H   UNL     2     -11.158   7.072  68.993  1.00  0.00     0.000 HD 
HETATM    5  O   UNL     3     -12.148  15.080  66.337  1.00  0.00    -0.073 OA 
HETATM    6  H   UNL     3     -12.987  14.854  65.954  1.00  0.00     0.000 HD 
HETATM    7  C   UNL     3     -11.247  15.351  65.226  1.00  0.00    -0.310 C  
ENDROOT
BRANCH   3   8
HETATM    8  C   UNL     2     -10.046   9.335  67.030  1.00  0.00    -0.247 C  
HETATM    9  H   UNL     2      -8.741   9.305  65.562  1.00  0.00     0.000 HD 
HETATM   10  O   UNL     2      -8.835   8.864  66.398  1.00  0.00    -0.138 OA 
BRANCH   8  11
HETATM   11  C   UNL     2      -9.995  10.877  67.079  1.00  0.00    -0.192 C  
HETATM   12  C   UNL     2     -11.263  11.686  66.973  1.00  0.00    -0.314 C  
HETATM   13  O   UNL     2      -9.415  11.216  65.814  1.00  0.00    -0.205 OA 
HETATM   14  O   UNL     2     -10.395  10.889  63.747  1.00  0.00    -0.354 OA 
HETATM   15  H   UNL     2     -13.482  12.550  65.584  1.00  0.00     0.000 HD 
HETATM   16  O   UNL     2     -11.620  12.370  67.971  1.00  0.00    -0.305 OA 
HETATM   17  C   UNL     2     -10.454  11.128  64.932  1.00  0.00    -0.308 C  
HETATM   18  C   UNL     2     -11.648  11.615  65.677  1.00  0.00    -0.016 C  
HETATM   19  O   UNL     2     -12.721  12.239  65.110  1.00  0.00    -0.571 OA 
ENDBRANCH   8  11
ENDBRANCH   3   8
BRANCH   7  20
HETATM   20  C   UNL     3      -9.892  15.716  65.845  1.00  0.00    -0.350 C  
HETATM   21  O   UNL     3      -8.959  14.657  65.639  1.00  0.00    -0.335 OA 
HETATM   22  H   UNL     3      -8.119  14.883  66.022  1.00  0.00     0.000 HD 
BRANCH  20  23
HETATM   23  C   UNL     3      -9.787  16.342  67.263  1.00  0.00    -0.243 C  
HETATM   24  O   UNL     3      -7.520  15.428  69.718  1.00  0.00    -0.195 OA 
HETATM   25  C   UNL     3      -8.059  17.354  68.404  1.00  0.00    -0.264 C  
HETATM   26  C   UNL     3      -9.095  17.621  67.598  1.00  0.00    -0.241 C  
HETATM   27  O   UNL     3      -7.211  18.271  68.981  1.00  0.00    -0.277 OA 
HETATM   28  O   UNL     3      -9.283  15.409  68.234  1.00  0.00    -0.183 OA 
HETATM   29  C   UNL     3      -8.168  15.957  68.829  1.00  0.00    -0.196 C  
HETATM   30  O   UNL     3      -9.674  18.655  67.193  1.00  0.00    -0.289 OA 
HETATM   31  H   UNL     3      -7.141  19.178  68.705  1.00  0.00     0.000 HD 
ENDBRANCH  20  23
ENDBRANCH   7  20
TORSDOF 4
ENDMDL
MODEL      203
REMARK 921   NORMALIZED FREE ENERGY PREDICTED BY IDOCK:   -4.66 KCAL/MOL
REMARK 922        TOTAL FREE ENERGY PREDICTED BY IDOCK:   -7.68 KCAL/MOL
REMARK 923 INTER-LIGAND FREE ENERGY PREDICTED BY IDOCK:   -6.25 KCAL/MOL
REMARK 924 INTRA-LIGAND FREE ENERGY PREDICTED BY IDOCK:   -1.43 KCAL/MOL
REMARK 927      BINDING AFFINITY PREDICTED BY RF-SCORE:    0.00 PKD
ROOT
HETATM    1 CA   UNL     1     -11.780   8.736  68.671  1.00  0.00    -0.408 Ca 
HETATM    2  O   UNL     2      -8.859  15.056  67.971  1.00  0.00    -0.159 OA 
HETATM    3  C   UNL     2      -9.747  13.949  68.158  1.00  0.00    -0.222 C  
HETATM    4  H   UNL     2      -9.370  15.850  68.073  1.00  0.00     0.000 HD 
HETATM    5  O   UNL     3      -8.196   8.872  72.773  1.00  0.00    -0.387 OA 
HETATM    6  H   UNL     3      -7.352   9.200  73.058  1.00  0.00     0.000 HD 
HETATM    7  C   UNL     3      -7.925   7.731  71.910  1.00  0.00    -0.103 C  
ENDROOT
BRANCH   3   8
HETATM    8  C   UNL     2      -8.933  12.686  67.996  1.00  0.00    -0.200 C  
HETATM    9  H   UNL     2      -7.046  12.190  68.225  1.00  0.00     0.000 HD 
HETATM   10  O   UNL     2      -7.558  12.984  68.327  1.00  0.00    -0.117 OA 
BRANCH   8  11
HETATM   11  C   UNL     2      -8.961  12.036  66.596  1.00  0.00    -0.204 C  
HETATM   12  C   UNL     2     -10.088  11.114  66.205  1.00  0.00    -0.232 C  
HETATM   13  O   UNL     2      -7.907  11.070  66.673  1.00  0.00    -0.141 OA 
HETATM   14  O   UNL     2      -7.894   9.188  68.014  1.00  0.00    -0.098 OA 
HETATM   15  H   UNL     2     -11.526   8.780  66.496  1.00  0.00     0.000 HD 
HETATM   16  O   UNL     2     -10.862  11.477  65.278  1.00  0.00    -0.287 OA 
HETATM   17  C   UNL     2      -8.464  10.016  67.339  1.00  0.00    -0.121 C  
HETATM   18  C   UNL     2      -9.877   9.957  66.876  1.00  0.00    -0.199 C  
HETATM   19  O   UNL     2     -10.624   8.818  66.791  1.00  0.00    -0.258 OA 
ENDBRANCH   8  11
ENDBRANCH   3   8
BRANCH   7  20
HETATM   20  C   UNL     3      -9.288   7.201  71.450  1.00  0.00    -0.154 C  
HETATM   21  O   UNL     3      -9.386   7.270  70.029  1.00  0.00    -0.155 OA 
HETATM   22  H   UNL     3     -10.230   6.942  69.743  1.00  0.00     0.000 HD 
BRANCH  20  23
HETATM   23  C   UNL     3     -10.605   7.613  72.164  1.00  0.00    -0.232 C  
HETATM   24  O   UNL     3     -12.470  10.453  71.492  1.00  0.00    -0.376 OA 
HETATM   25  C   UNL     3     -12.726   8.077  71.390  1.00  0.00    -0.280 C  
HETATM   26  C   UNL     3     -11.964   7.078  71.855  1.00  0.00    -0.320 C  
HETATM   27  O   UNL     3     -14.058   8.003  71.052  1.00  0.00    -0.626 OA 
HETATM   28  O   UNL     3     -10.789   9.038  72.186  1.00  0.00    -0.337 OA 
HETATM   29  C   UNL     3     -12.003   9.332  71.604  1.00  0.00    -0.378 C  
HETATM   30  O   UNL     3     -12.155   5.891  72.204  1.00  0.00    -0.252 OA 
HETATM   31  H   UNL     3     -14.527   7.188  70.914  1.00  0.00     0.000 HD 
ENDBRANCH  20  23
ENDBRANCH   7  20
TORSDOF 4
ENDMDL
MODEL      204
REMARK 921   NORMALIZED FREE ENERGY PREDICTED BY IDOCK:   -4.66 KCAL/MOL
REMARK 922        TOTAL FREE ENERGY PREDICTED BY IDOCK:   -7.67 KCAL/MOL
REMARK 923 INTER-LIGAND FREE ENERGY PREDICTED BY IDOCK:   -6.57 KCAL/MOL
REMARK 924 INTRA-LIGAND FREE ENERGY PREDICTED BY IDOCK:   -1.10 KCAL/MOL
REMARK 927      BINDING AFFINITY PREDICTED BY RF-SCORE:    0.00 PKD
ROOT
HETATM    1 CA   UNL     1      -9.519  13.269  63.582  1.00  0.00    -0.503 Ca 
HETATM    2  O   UNL     2      -7.056   7.046  65.623  1.00  0.00    -0.065 OA 
HETATM    3  C   UNL     2      -7.228   8.375  65.119  1.00  0.00    -0.080 C  
HETATM    4  H   UNL     2      -6.129   6.840  65.570  1.00  0.00     0.000 HD 
HETATM    5  O   UNL     3     -10.642  13.214  68.913  1.00  0.00    -0.342 OA 
HETATM    6  H   UNL     3     -10.875  12.667  69.654  1.00  0.00     0.000 HD 
HETATM    7  C   UNL     3     -11.864  13.414  68.147  1.00  0.00    -0.361 C  
ENDROOT
BRANCH   3   8
HETATM    8  C   UNL     2      -8.701   8.701  65.203  1.00  0.00    -0.144 C  
HETATM    9  H   UNL     2      -9.986   9.700  64.102  1.00  0.00     0.000 HD 
HETATM   10  O   UNL     2      -9.059   9.495  64.050  1.00  0.00    -0.228 OA 
BRANCH   8  11
HETATM   11  C   UNL     2      -9.157   9.457  66.468  1.00  0.00    -0.153 C  
HETATM   12  C   UNL     2      -8.637   9.058  67.826  1.00  0.00    -0.121 C  
HETATM   13  O   UNL     2     -10.515   9.029  66.623  1.00  0.00    -0.246 OA 
HETATM   14  O   UNL     2     -11.206   6.885  67.137  1.00  0.00    -0.352 OA 
HETATM   15  H   UNL     2      -8.395   7.256  69.899  1.00  0.00     0.000 HD 
HETATM   16  O   UNL     2      -7.913   9.878  68.453  1.00  0.00    -0.094 OA 
HETATM   17  C   UNL     2     -10.417   7.800  67.210  1.00  0.00    -0.322 C  
HETATM   18  C   UNL     2      -9.261   7.898  68.142  1.00  0.00    -0.136 C  
HETATM   19  O   UNL     2      -9.132   7.194  69.304  1.00  0.00    -0.139 OA 
ENDBRANCH   8  11
ENDBRANCH   3   8
BRANCH   7  20
HETATM   20  C   UNL     3     -11.489  14.297  66.952  1.00  0.00    -0.363 C  
HETATM   21  O   UNL     3     -10.768  13.533  65.986  1.00  0.00    -0.275 OA 
HETATM   22  H   UNL     3     -10.536  14.080  65.245  1.00  0.00     0.000 HD 
BRANCH  20  23
HETATM   23  C   UNL     3     -10.905  15.724  67.145  1.00  0.00    -0.289 C  
HETATM   24  O   UNL     3      -7.934  16.498  68.749  1.00  0.00    -0.213 OA 
HETATM   25  C   UNL     3      -8.892  16.684  66.564  1.00  0.00    -0.279 C  
HETATM   26  C   UNL     3     -10.141  16.496  66.121  1.00  0.00    -0.348 C  
HETATM   27  O   UNL     3      -7.899  17.402  65.938  1.00  0.00    -0.514 OA 
HETATM   28  O   UNL     3     -10.098  15.826  68.331  1.00  0.00    -0.217 OA 
HETATM   29  C   UNL     3      -8.847  16.278  67.971  1.00  0.00    -0.182 C  
HETATM   30  O   UNL     3     -10.826  16.914  65.159  1.00  0.00    -0.602 OA 
HETATM   31  H   UNL     3      -7.929  17.667  65.025  1.00  0.00     0.000 HD 
ENDBRANCH  20  23
ENDBRANCH   7  20
TORSDOF 4
ENDMDL
MODEL      205
REMARK 921   NORMALIZED FREE ENERGY PREDICTED BY IDOCK:   -4.65 KCAL/MOL
REMARK 922        TOTAL FREE ENERGY PREDICTED BY IDOCK:   -7.66 KCAL/MOL
REMARK 923 INTER-LIGAND FREE ENERGY PREDICTED BY IDOCK:   -5.90 KCAL/MOL
REMARK 924 INTRA-LIGAND FREE ENERGY PREDICTED BY IDOCK:   -1.76 KCAL/MOL
REMARK 927      BINDING AFFINITY PREDICTED BY RF-SCORE:    0.00 PKD
ROOT
HETATM    1 CA   UNL     1     -12.321   8.827  70.993  1.00  0.00    -0.285 Ca 
HETATM    2  O   UNL     2      -8.772   2.795  71.036  1.00  0.00    -0.061 OA 
HETATM    3  C   UNL     2      -9.774   3.818  71.043  1.00  0.00    -0.178 C  
HETATM    4  H   UNL     2      -9.222   1.958  71.037  1.00  0.00     0.000 HD 
HETATM    5  O   UNL     3      -9.663   8.954  66.238  1.00  0.00    -0.240 OA 
HETATM    6  H   UNL     3      -8.871   8.697  65.783  1.00  0.00     0.000 HD 
HETATM    7  C   UNL     3      -9.322  10.125  67.033  1.00  0.00    -0.154 C  
ENDROOT
BRANCH   3   8
HETATM    8  C   UNL     2      -9.058   5.149  71.041  1.00  0.00    -0.145 C  
HETATM    9  H   UNL     2      -7.877   6.113  72.279  1.00  0.00     0.000 HD 
HETATM   10  O   UNL     2      -8.327   5.276  72.280  1.00  0.00    -0.119 OA 
BRANCH   8  11
HETATM   11  C   UNL     2      -9.950   6.398  70.878  1.00  0.00    -0.185 C  
HETATM   12  C   UNL     2     -11.070   6.411  69.868  1.00  0.00    -0.381 C  
HETATM   13  O   UNL     2      -9.073   7.335  70.241  1.00  0.00    -0.151 OA 
HETATM   14  O   UNL     2      -8.216   7.144  68.104  1.00  0.00    -0.122 OA 
HETATM   15  H   UNL     2     -11.999   6.331  67.273  1.00  0.00     0.000 HD 
HETATM   16  O   UNL     2     -12.255   6.488  70.291  1.00  0.00    -0.278 OA 
HETATM   17  C   UNL     2      -9.087   6.968  68.926  1.00  0.00    -0.134 C  
HETATM   18  C   UNL     2     -10.480   6.520  68.654  1.00  0.00    -0.218 C  
HETATM   19  O   UNL     2     -11.111   6.617  67.447  1.00  0.00    -0.346 OA 
ENDBRANCH   8  11
ENDBRANCH   3   8
BRANCH   7  20
HETATM   20  C   UNL     3     -10.601  10.540  67.769  1.00  0.00    -0.243 C  
HETATM   21  O   UNL     3     -11.658  10.749  66.833  1.00  0.00    -0.255 OA 
HETATM   22  H   UNL     3     -12.451  11.006  67.289  1.00  0.00     0.000 HD 
BRANCH  20  23
HETATM   23  C   UNL     3     -10.581  11.604  68.901  1.00  0.00    -0.193 C  
HETATM   24  O   UNL     3     -10.200  15.019  68.464  1.00  0.00    -0.217 OA 
HETATM   25  C   UNL     3     -11.843  13.492  69.297  1.00  0.00    -0.341 C  
HETATM   26  C   UNL     3     -11.784  12.182  69.570  1.00  0.00    -0.336 C  
HETATM   27  O   UNL     3     -12.768  14.389  69.780  1.00  0.00    -0.526 OA 
HETATM   28  O   UNL     3      -9.790  12.753  68.554  1.00  0.00    -0.213 OA 
HETATM   29  C   UNL     3     -10.580  13.877  68.663  1.00  0.00    -0.257 C  
HETATM   30  O   UNL     3     -12.392  11.395  70.331  1.00  0.00    -0.324 OA 
HETATM   31  H   UNL     3     -13.587  14.138  70.191  1.00  0.00     0.000 HD 
ENDBRANCH  20  23
ENDBRANCH   7  20
TORSDOF 4
ENDMDL
MODEL      206
REMARK 921   NORMALIZED FREE ENERGY PREDICTED BY IDOCK:   -4.63 KCAL/MOL
REMARK 922        TOTAL FREE ENERGY PREDICTED BY IDOCK:   -7.64 KCAL/MOL
REMARK 923 INTER-LIGAND FREE ENERGY PREDICTED BY IDOCK:   -6.39 KCAL/MOL
REMARK 924 INTRA-LIGAND FREE ENERGY PREDICTED BY IDOCK:   -1.25 KCAL/MOL
REMARK 927      BINDING AFFINITY PREDICTED BY RF-SCORE:    0.00 PKD
ROOT
HETATM    1 CA   UNL     1      -9.561   4.491  70.501  1.00  0.00    -0.116 Ca 
HETATM    2  O   UNL     2      -8.212   2.751  63.858  1.00  0.00    -0.081 OA 
HETATM    3  C   UNL     2      -8.695   2.828  65.205  1.00  0.00    -0.115 C  
HETATM    4  H   UNL     2      -8.650   2.018  63.442  1.00  0.00     0.000 HD 
HETATM    5  O   UNL     3     -11.269   8.864  67.735  1.00  0.00    -0.442 OA 
HETATM    6  H   UNL     3     -11.123   9.407  66.969  1.00  0.00     0.000 HD 
HETATM    7  C   UNL     3     -10.263   9.253  68.713  1.00  0.00    -0.205 C  
ENDROOT
BRANCH   3   8
HETATM    8  C   UNL     2      -7.998   3.994  65.866  1.00  0.00    -0.094 C  
HETATM    9  H   UNL     2      -6.371   4.236  66.940  1.00  0.00     0.000 HD 
HETATM   10  O   UNL     2      -6.809   3.503  66.523  1.00  0.00    -0.051 OA 
BRANCH   8  11
HETATM   11  C   UNL     2      -8.829   4.781  66.902  1.00  0.00    -0.110 C  
HETATM   12  C   UNL     2      -9.736   5.903  66.460  1.00  0.00    -0.155 C  
HETATM   13  O   UNL     2      -7.838   5.560  67.581  1.00  0.00    -0.095 OA 
HETATM   14  O   UNL     2      -6.590   7.268  66.651  1.00  0.00    -0.052 OA 
HETATM   15  H   UNL     2     -10.154   8.389  65.345  1.00  0.00     0.000 HD 
HETATM   16  O   UNL     2     -10.979   5.762  66.615  1.00  0.00    -0.277 OA 
HETATM   17  C   UNL     2      -7.604   6.613  66.744  1.00  0.00    -0.091 C  
HETATM   18  C   UNL     2      -8.924   6.938  66.138  1.00  0.00    -0.134 C  
HETATM   19  O   UNL     2      -9.312   8.182  65.731  1.00  0.00    -0.113 OA 
ENDBRANCH   8  11
ENDBRANCH   3   8
BRANCH   7  20
HETATM   20  C   UNL     3     -10.498   8.379  69.950  1.00  0.00    -0.222 C  
HETATM   21  O   UNL     3     -11.254   7.222  69.596  1.00  0.00    -0.419 OA 
HETATM   22  H   UNL     3     -11.399   6.680  70.362  1.00  0.00     0.000 HD 
BRANCH  20  23
HETATM   23  C   UNL     3     -10.938   8.991  71.309  1.00  0.00    -0.313 C  
HETATM   24  O   UNL     3     -13.307  11.483  71.735  1.00  0.00    -0.403 OA 
HETATM   25  C   UNL     3     -12.987   9.191  72.344  1.00  0.00    -0.398 C  
HETATM   26  C   UNL     3     -11.921   8.386  72.255  1.00  0.00    -0.389 C  
HETATM   27  O   UNL     3     -14.082   9.015  73.160  1.00  0.00    -1.130 OA 
HETATM   28  O   UNL     3     -11.378  10.353  71.175  1.00  0.00    -0.268 OA 
HETATM   29  C   UNL     3     -12.657  10.451  71.676  1.00  0.00    -0.417 C  
HETATM   30  O   UNL     3     -11.514   7.365  72.856  1.00  0.00    -0.298 OA 
HETATM   31  H   UNL     3     -14.295   8.197  73.594  1.00  0.00     0.000 HD 
ENDBRANCH  20  23
ENDBRANCH   7  20
TORSDOF 4
ENDMDL
MODEL      207
REMARK 921   NORMALIZED FREE ENERGY PREDICTED BY IDOCK:   -4.63 KCAL/MOL
REMARK 922        TOTAL FREE ENERGY PREDICTED BY IDOCK:   -7.63 KCAL/MOL
REMARK 923 INTER-LIGAND FREE ENERGY PREDICTED BY IDOCK:   -6.83 KCAL/MOL
REMARK 924 INTRA-LIGAND FREE ENERGY PREDICTED BY IDOCK:   -0.80 KCAL/MOL
REMARK 927      BINDING AFFINITY PREDICTED BY RF-SCORE:    0.00 PKD
ROOT
HETATM    1 CA   UNL     1     -12.710  12.468  69.512  1.00  0.00    -0.181 Ca 
HETATM    2  O   UNL     2      -9.883   6.789  66.558  1.00  0.00    -0.281 OA 
HETATM    3  C   UNL     2     -10.751   7.836  67.008  1.00  0.00    -0.246 C  
HETATM    4  H   UNL     2     -10.395   6.219  65.996  1.00  0.00     0.000 HD 
HETATM    5  O   UNL     3      -8.905  14.579  66.232  1.00  0.00    -0.473 OA 
HETATM    6  H   UNL     3      -8.049  14.442  65.845  1.00  0.00     0.000 HD 
HETATM    7  C   UNL     3      -8.673  15.004  67.605  1.00  0.00    -0.176 C  
ENDROOT
BRANCH   3   8
HETATM    8  C   UNL     2      -9.936   8.743  67.901  1.00  0.00    -0.187 C  
HETATM    9  H   UNL     2      -8.291   9.798  67.710  1.00  0.00     0.000 HD 
HETATM   10  O   UNL     2      -8.803   9.228  67.148  1.00  0.00    -0.126 OA 
BRANCH   8  11
HETATM   11  C   UNL     2      -9.411   8.112  69.208  1.00  0.00    -0.151 C  
HETATM   12  C   UNL     2     -10.214   7.055  69.923  1.00  0.00    -0.201 C  
HETATM   13  O   UNL     2      -9.560   9.175  70.157  1.00  0.00    -0.179 OA 
HETATM   14  O   UNL     2     -11.564  10.062  70.889  1.00  0.00    -0.320 OA 
HETATM   15  H   UNL     2     -12.452   6.227  71.305  1.00  0.00     0.000 HD 
HETATM   16  O   UNL     2      -9.736   5.890  69.999  1.00  0.00    -0.159 OA 
HETATM   17  C   UNL     2     -10.882   9.142  70.495  1.00  0.00    -0.255 C  
HETATM   18  C   UNL     2     -11.253   7.701  70.505  1.00  0.00    -0.261 C  
HETATM   19  O   UNL     2     -12.216   7.147  71.298  1.00  0.00    -0.328 OA 
ENDBRANCH   8  11
ENDBRANCH   3   8
BRANCH   7  20
HETATM   20  C   UNL     3     -10.055  15.225  68.231  1.00  0.00    -0.225 C  
HETATM   21  O   UNL     3      -9.917  15.652  69.585  1.00  0.00    -0.266 OA 
HETATM   22  H   UNL     3     -10.773  15.789  69.973  1.00  0.00     0.000 HD 
BRANCH  20  23
HETATM   23  C   UNL     3     -11.209  14.203  68.039  1.00  0.00    -0.281 C  
HETATM   24  O   UNL     3     -13.225  13.928  65.235  1.00  0.00    -0.774 OA 
HETATM   25  C   UNL     3     -11.632  12.604  66.433  1.00  0.00    -0.384 C  
HETATM   26  C   UNL     3     -11.046  12.778  67.624  1.00  0.00    -0.258 C  
HETATM   27  O   UNL     3     -11.751  11.419  65.743  1.00  0.00    -0.148 OA 
HETATM   28  O   UNL     3     -12.239  14.702  67.169  1.00  0.00    -0.301 OA 
HETATM   29  C   UNL     3     -12.406  13.810  66.132  1.00  0.00    -0.452 C  
HETATM   30  O   UNL     3     -10.539  12.032  68.494  1.00  0.00    -0.218 OA 
HETATM   31  H   UNL     3     -11.249  10.637  65.939  1.00  0.00     0.000 HD 
ENDBRANCH  20  23
ENDBRANCH   7  20
TORSDOF 4
ENDMDL
MODEL      208
REMARK 921   NORMALIZED FREE ENERGY PREDICTED BY IDOCK:   -4.61 KCAL/MOL
REMARK 922        TOTAL FREE ENERGY PREDICTED BY IDOCK:   -7.62 KCAL/MOL
REMARK 923 INTER-LIGAND FREE ENERGY PREDICTED BY IDOCK:   -6.40 KCAL/MOL
REMARK 924 INTRA-LIGAND FREE ENERGY PREDICTED BY IDOCK:   -1.21 KCAL/MOL
REMARK 927      BINDING AFFINITY PREDICTED BY RF-SCORE:    0.00 PKD
ROOT
HETATM    1 CA   UNL     1      -9.442  12.352  69.743  1.00  0.00    -0.128 Ca 
HETATM    2  O   UNL     2     -12.721   6.473  71.657  1.00  0.00    -0.290 OA 
HETATM    3  C   UNL     2     -12.295   7.826  71.460  1.00  0.00    -0.320 C  
HETATM    4  H   UNL     2     -13.506   6.498  72.192  1.00  0.00     0.000 HD 
HETATM    5  O   UNL     3     -11.087  10.280  64.980  1.00  0.00     0.501 OA 
HETATM    6  H   UNL     3     -11.260   9.480  64.497  1.00  0.00     0.000 HD 
HETATM    7  C   UNL     3      -9.642  10.461  64.973  1.00  0.00    -0.280 C  
ENDROOT
BRANCH   3   8
HETATM    8  C   UNL     2     -11.047   7.786  70.609  1.00  0.00    -0.256 C  
HETATM    9  H   UNL     2     -10.620   7.276  68.761  1.00  0.00     0.000 HD 
HETATM   10  O   UNL     2     -11.405   7.302  69.296  1.00  0.00    -0.018 OA 
BRANCH   8  11
HETATM   11  C   UNL     2      -9.890   6.917  71.144  1.00  0.00    -0.177 C  
HETATM   12  C   UNL     2      -9.449   7.032  72.582  1.00  0.00    -0.142 C  
HETATM   13  O   UNL     2      -8.739   7.498  70.519  1.00  0.00    -0.143 OA 
HETATM   14  O   UNL     2      -7.904   9.613  70.925  1.00  0.00    -0.317 OA 
HETATM   15  H   UNL     2      -8.360   8.449  74.681  1.00  0.00     0.000 HD 
HETATM   16  O   UNL     2      -9.611   6.035  73.338  1.00  0.00    -0.142 OA 
HETATM   17  C   UNL     2      -8.463   8.599  71.277  1.00  0.00    -0.179 C  
HETATM   18  C   UNL     2      -8.779   8.204  72.678  1.00  0.00    -0.213 C  
HETATM   19  O   UNL     2      -8.159   8.701  73.788  1.00  0.00    -0.400 OA 
ENDBRANCH   8  11
ENDBRANCH   3   8
BRANCH   7  20
HETATM   20  C   UNL     3      -9.363  11.751  65.752  1.00  0.00    -0.185 C  
HETATM   21  O   UNL     3      -9.320  11.479  67.152  1.00  0.00    -0.168 OA 
HETATM   22  H   UNL     3      -9.146  12.278  67.635  1.00  0.00     0.000 HD 
BRANCH  20  23
HETATM   23  C   UNL     3     -10.101  13.078  65.421  1.00  0.00    -0.252 C  
HETATM   24  O   UNL     3     -12.530  13.492  62.987  1.00  0.00    -0.709 OA 
HETATM   25  C   UNL     3     -12.331  13.657  65.366  1.00  0.00    -0.476 C  
HETATM   26  C   UNL     3     -11.264  13.636  66.173  1.00  0.00    -0.302 C  
HETATM   27  O   UNL     3     -13.578  14.157  65.667  1.00  0.00    -0.671 OA 
HETATM   28  O   UNL     3     -10.513  13.143  64.046  1.00  0.00    -0.405 OA 
HETATM   29  C   UNL     3     -11.874  13.360  64.006  1.00  0.00    -0.445 C  
HETATM   30  O   UNL     3     -10.990  14.080  67.312  1.00  0.00    -0.287 OA 
HETATM   31  H   UNL     3     -13.874  14.350  66.549  1.00  0.00     0.000 HD 
ENDBRANCH  20  23
ENDBRANCH   7  20
TORSDOF 4
ENDMDL
MODEL      209
REMARK 921   NORMALIZED FREE ENERGY PREDICTED BY IDOCK:   -4.61 KCAL/MOL
REMARK 922        TOTAL FREE ENERGY PREDICTED BY IDOCK:   -7.61 KCAL/MOL
REMARK 923 INTER-LIGAND FREE ENERGY PREDICTED BY IDOCK:   -7.07 KCAL/MOL
REMARK 924 INTRA-LIGAND FREE ENERGY PREDICTED BY IDOCK:   -0.54 KCAL/MOL
REMARK 927      BINDING AFFINITY PREDICTED BY RF-SCORE:    0.00 PKD
ROOT
HETATM    1 CA   UNL     1     -10.419   8.081  65.627  1.00  0.00    -0.429 Ca 
HETATM    2  O   UNL     2     -12.305  14.425  63.356  1.00  0.00    -1.094 OA 
HETATM    3  C   UNL     2     -12.262  13.073  63.825  1.00  0.00    -0.460 C  
HETATM    4  H   UNL     2     -13.220  14.668  63.275  1.00  0.00     0.000 HD 
HETATM    5  O   UNL     3      -8.457  11.381  69.494  1.00  0.00    -0.266 OA 
HETATM    6  H   UNL     3      -8.089  12.238  69.672  1.00  0.00     0.000 HD 
HETATM    7  C   UNL     3      -7.380  10.581  68.926  1.00  0.00    -0.098 C  
ENDROOT
BRANCH   3   8
HETATM    8  C   UNL     2     -10.807  12.687  63.955  1.00  0.00    -0.429 C  
HETATM    9  H   UNL     2      -9.618  11.376  63.102  1.00  0.00     0.000 HD 
HETATM   10  O   UNL     2     -10.533  11.619  63.021  1.00  0.00    -0.311 OA 
BRANCH   8  11
HETATM   11  C   UNL     2     -10.348  12.230  65.356  1.00  0.00    -0.269 C  
HETATM   12  C   UNL     2     -11.276  12.346  66.539  1.00  0.00    -0.319 C  
HETATM   13  O   UNL     2      -9.400  13.238  65.725  1.00  0.00    -0.022 OA 
HETATM   14  O   UNL     2      -9.883  15.460  66.139  1.00  0.00    -0.268 OA 
HETATM   15  H   UNL     2     -12.752  13.836  68.329  1.00  0.00     0.000 HD 
HETATM   16  O   UNL     2     -11.671  11.286  67.095  1.00  0.00    -0.533 OA 
HETATM   17  C   UNL     2     -10.168  14.284  66.152  1.00  0.00    -0.307 C  
HETATM   18  C   UNL     2     -11.329  13.664  66.848  1.00  0.00    -0.327 C  
HETATM   19  O   UNL     2     -12.012  14.231  67.884  1.00  0.00    -0.356 OA 
ENDBRANCH   8  11
ENDBRANCH   3   8
BRANCH   7  20
HETATM   20  C   UNL     3      -7.973   9.197  68.638  1.00  0.00    -0.101 C  
HETATM   21  O   UNL     3      -8.827   9.257  67.497  1.00  0.00    -0.119 OA 
HETATM   22  H   UNL     3      -9.194   8.400  67.318  1.00  0.00     0.000 HD 
BRANCH  20  23
HETATM   23  C   UNL     3      -8.550   8.306  69.773  1.00  0.00    -0.129 C  
HETATM   24  O   UNL     3      -6.699   6.659  72.194  1.00  0.00    -0.058 OA 
HETATM   25  C   UNL     3      -8.359   8.377  72.069  1.00  0.00    -0.171 C  
HETATM   26  C   UNL     3      -9.127   8.802  71.057  1.00  0.00    -0.218 C  
HETATM   27  O   UNL     3      -8.590   8.573  73.411  1.00  0.00    -0.350 OA 
HETATM   28  O   UNL     3      -7.630   7.278  70.179  1.00  0.00    -0.086 OA 
HETATM   29  C   UNL     3      -7.410   7.399  71.534  1.00  0.00    -0.079 C  
HETATM   30  O   UNL     3     -10.237   9.371  70.950  1.00  0.00    -0.273 OA 
HETATM   31  H   UNL     3      -9.207   9.208  73.758  1.00  0.00     0.000 HD 
ENDBRANCH  20  23
ENDBRANCH   7  20
TORSDOF 4
ENDMDL
MODEL      210
REMARK 921   NORMALIZED FREE ENERGY PREDICTED BY IDOCK:   -4.61 KCAL/MOL
REMARK 922        TOTAL FREE ENERGY PREDICTED BY IDOCK:   -7.61 KCAL/MOL
REMARK 923 INTER-LIGAND FREE ENERGY PREDICTED BY IDOCK:   -6.37 KCAL/MOL
REMARK 924 INTRA-LIGAND FREE ENERGY PREDICTED BY IDOCK:   -1.25 KCAL/MOL
REMARK 927      BINDING AFFINITY PREDICTED BY RF-SCORE:    0.00 PKD
ROOT
HETATM    1 CA   UNL     1     -11.755  15.541  69.640  1.00  0.00    -0.231 Ca 
HETATM    2  O   UNL     2      -6.280  19.884  69.281  1.00  0.00    -0.281 OA 
HETATM    3  C   UNL     2      -7.225  18.865  69.624  1.00  0.00     0.126 C  
HETATM    4  H   UNL     2      -5.542  19.797  69.873  1.00  0.00     0.000 HD 
HETATM    5  O   UNL     3      -9.695  14.483  64.708  1.00  0.00    -0.405 OA 
HETATM    6  H   UNL     3      -9.243  14.851  63.958  1.00  0.00     0.000 HD 
HETATM    7  C   UNL     3     -11.088  14.891  64.591  1.00  0.00    -0.323 C  
ENDROOT
BRANCH   3   8
HETATM    8  C   UNL     2      -8.399  19.003  68.683  1.00  0.00    -0.361 C  
HETATM    9  H   UNL     2     -10.344  18.766  68.815  1.00  0.00     0.000 HD 
HETATM   10  O   UNL     2      -9.606  18.680  69.407  1.00  0.00    -0.057 OA 
BRANCH   8  11
HETATM   11  C   UNL     2      -8.353  18.131  67.410  1.00  0.00    -0.239 C  
HETATM   12  C   UNL     2      -7.318  18.388  66.345  1.00  0.00    -0.247 C  
HETATM   13  O   UNL     2      -9.515  18.557  66.690  1.00  0.00    -0.291 OA 
HETATM   14  O   UNL     2      -9.837  20.648  65.760  1.00  0.00    -0.041 OA 
HETATM   15  H   UNL     2      -6.184  19.973  64.394  1.00  0.00     0.000 HD 
HETATM   16  O   UNL     2      -6.446  17.501  66.132  1.00  0.00    -0.228 OA 
HETATM   17  C   UNL     2      -9.131  19.721  66.088  1.00  0.00    -0.343 C  
HETATM   18  C   UNL     2      -7.706  19.518  65.708  1.00  0.00    -0.192 C  
HETATM   19  O   UNL     2      -7.092  20.103  64.638  1.00  0.00    -0.237 OA 
ENDBRANCH   8  11
ENDBRANCH   3   8
BRANCH   7  20
HETATM   20  C   UNL     3     -11.818  14.296  65.801  1.00  0.00    -0.374 C  
HETATM   21  O   UNL     3     -11.343  14.899  67.004  1.00  0.00    -0.343 OA 
HETATM   22  H   UNL     3     -11.795  14.531  67.753  1.00  0.00     0.000 HD 
BRANCH  20  23
HETATM   23  C   UNL     3     -12.044  12.766  65.945  1.00  0.00    -0.426 C  
HETATM   24  O   UNL     3     -10.343  10.296  64.211  1.00  0.00    -0.198 OA 
HETATM   25  C   UNL     3     -10.636  11.019  66.473  1.00  0.00    -0.254 C  
HETATM   26  C   UNL     3     -11.478  11.902  67.023  1.00  0.00    -0.316 C  
HETATM   27  O   UNL     3      -9.962  10.012  67.125  1.00  0.00    -0.183 OA 
HETATM   28  O   UNL     3     -11.738  12.054  64.734  1.00  0.00    -0.333 OA 
HETATM   29  C   UNL     3     -10.796  11.090  65.019  1.00  0.00    -0.123 C  
HETATM   30  O   UNL     3     -11.983  12.076  68.156  1.00  0.00    -0.465 OA 
HETATM   31  H   UNL     3      -9.859   9.966  68.069  1.00  0.00     0.000 HD 
ENDBRANCH  20  23
ENDBRANCH   7  20
TORSDOF 4
ENDMDL
MODEL      211
REMARK 921   NORMALIZED FREE ENERGY PREDICTED BY IDOCK:   -4.60 KCAL/MOL
REMARK 922        TOTAL FREE ENERGY PREDICTED BY IDOCK:   -7.60 KCAL/MOL
REMARK 923 INTER-LIGAND FREE ENERGY PREDICTED BY IDOCK:   -7.44 KCAL/MOL
REMARK 924 INTRA-LIGAND FREE ENERGY PREDICTED BY IDOCK:   -0.16 KCAL/MOL
REMARK 927      BINDING AFFINITY PREDICTED BY RF-SCORE:    0.00 PKD
ROOT
HETATM    1 CA   UNL     1      -9.118  14.348  69.954  1.00  0.00    -0.372 Ca 
HETATM    2  O   UNL     2      -5.298  18.844  66.191  1.00  0.00    -0.148 OA 
HETATM    3  C   UNL     2      -5.788  17.897  67.147  1.00  0.00    -0.135 C  
HETATM    4  H   UNL     2      -4.384  19.005  66.394  1.00  0.00     0.000 HD 
HETATM    5  O   UNL     3      -9.044  12.036  65.021  1.00  0.00    -0.402 OA 
HETATM    6  H   UNL     3      -9.021  12.199  64.085  1.00  0.00     0.000 HD 
HETATM    7  C   UNL     3     -10.419  12.265  65.445  1.00  0.00    -0.269 C  
ENDROOT
BRANCH   3   8
HETATM    8  C   UNL     2      -7.241  17.641  66.823  1.00  0.00    -0.212 C  
HETATM    9  H   UNL     2      -8.266  17.195  65.208  1.00  0.00     0.000 HD 
HETATM   10  O   UNL     2      -7.352  17.356  65.411  1.00  0.00    -0.078 OA 
BRANCH   8  11
HETATM   11  C   UNL     2      -8.223  18.783  67.162  1.00  0.00    -0.265 C  
HETATM   12  C   UNL     2      -9.229  18.621  68.273  1.00  0.00    -0.322 C  
HETATM   13  O   UNL     2      -9.125  18.768  66.050  1.00  0.00    -0.479 OA 
HETATM   14  O   UNL     2     -10.608  17.072  65.536  1.00  0.00    -0.542 OA 
HETATM   15  H   UNL     2     -11.434  17.402  69.393  1.00  0.00     0.000 HD 
HETATM   16  O   UNL     2      -9.122  19.361  69.289  1.00  0.00    -0.248 OA 
HETATM   17  C   UNL     2      -9.985  17.744  66.327  1.00  0.00    -0.318 C  
HETATM   18  C   UNL     2     -10.177  17.777  67.803  1.00  0.00    -0.361 C  
HETATM   19  O   UNL     2     -11.311  17.381  68.452  1.00  0.00     0.016 OA 
ENDBRANCH   8  11
ENDBRANCH   3   8
BRANCH   7  20
HETATM   20  C   UNL     3     -10.457  12.002  66.955  1.00  0.00    -0.223 C  
HETATM   21  O   UNL     3      -9.887  10.727  67.244  1.00  0.00    -0.173 OA 
HETATM   22  H   UNL     3      -9.910  10.564  68.180  1.00  0.00     0.000 HD 
BRANCH  20  23
HETATM   23  C   UNL     3     -11.725  12.300  67.801  1.00  0.00    -0.337 C  
HETATM   24  O   UNL     3     -12.636  10.681  70.725  1.00  0.00    -0.334 OA 
HETATM   25  C   UNL     3     -12.033  12.883  70.009  1.00  0.00    -0.309 C  
HETATM   26  C   UNL     3     -11.869  13.409  68.789  1.00  0.00    -0.351 C  
HETATM   27  O   UNL     3     -12.260  13.575  71.177  1.00  0.00    -0.377 OA 
HETATM   28  O   UNL     3     -12.191  11.140  68.511  1.00  0.00    -0.600 OA 
HETATM   29  C   UNL     3     -12.252  11.444  69.853  1.00  0.00    -0.277 C  
HETATM   30  O   UNL     3     -11.944  14.555  68.287  1.00  0.00    -0.320 OA 
HETATM   31  H   UNL     3     -12.118  14.510  71.277  1.00  0.00     0.000 HD 
ENDBRANCH  20  23
ENDBRANCH   7  20
TORSDOF 4
ENDMDL
MODEL      212
REMARK 921   NORMALIZED FREE ENERGY PREDICTED BY IDOCK:   -4.59 KCAL/MOL
REMARK 922        TOTAL FREE ENERGY PREDICTED BY IDOCK:   -7.59 KCAL/MOL
REMARK 923 INTER-LIGAND FREE ENERGY PREDICTED BY IDOCK:   -7.15 KCAL/MOL
REMARK 924 INTRA-LIGAND FREE ENERGY PREDICTED BY IDOCK:   -0.44 KCAL/MOL
REMARK 927      BINDING AFFINITY PREDICTED BY RF-SCORE:    0.00 PKD
ROOT
HETATM    1 CA   UNL     1     -10.384  14.154  70.145  1.00  0.00    -0.416 Ca 
HETATM    2  O   UNL     2     -12.513   7.732  71.935  1.00  0.00    -0.304 OA 
HETATM    3  C   UNL     2     -12.293   9.143  71.823  1.00  0.00    -0.372 C  
HETATM    4  H   UNL     2     -13.168   7.600  72.610  1.00  0.00     0.000 HD 
HETATM    5  O   UNL     3     -12.736  12.343  65.575  1.00  0.00    -0.530 OA 
HETATM    6  H   UNL     3     -12.914  11.577  65.043  1.00  0.00     0.000 HD 
HETATM    7  C   UNL     3     -11.353  12.717  65.312  1.00  0.00    -0.315 C  
ENDROOT
BRANCH   3   8
HETATM    8  C   UNL     2     -11.251   9.353  70.749  1.00  0.00    -0.302 C  
HETATM    9  H   UNL     2     -11.075  10.502  69.166  1.00  0.00     0.000 HD 
HETATM   10  O   UNL     2     -11.730  10.371  69.842  1.00  0.00    -0.258 OA 
BRANCH   8  11
HETATM   11  C   UNL     2     -10.873   8.107  69.919  1.00  0.00    -0.215 C  
HETATM   12  C   UNL     2      -9.790   7.173  70.395  1.00  0.00    -0.176 C  
HETATM   13  O   UNL     2     -10.194   8.670  68.791  1.00  0.00    -0.198 OA 
HETATM   14  O   UNL     2      -8.164   9.774  68.849  1.00  0.00    -0.108 OA 
HETATM   15  H   UNL     2      -7.163   6.624  71.027  1.00  0.00     0.000 HD 
HETATM   16  O   UNL     2     -10.112   5.995  70.709  1.00  0.00    -0.185 OA 
HETATM   17  C   UNL     2      -8.935   8.932  69.252  1.00  0.00    -0.144 C  
HETATM   18  C   UNL     2      -8.618   7.820  70.190  1.00  0.00    -0.139 C  
HETATM   19  O   UNL     2      -7.365   7.334  70.430  1.00  0.00    -0.075 OA 
ENDBRANCH   8  11
ENDBRANCH   3   8
BRANCH   7  20
HETATM   20  C   UNL     3     -11.066  13.953  66.172  1.00  0.00    -0.299 C  
HETATM   21  O   UNL     3     -12.289  14.539  66.611  1.00  0.00    -0.467 OA 
HETATM   22  H   UNL     3     -12.111  15.305  67.144  1.00  0.00     0.000 HD 
BRANCH  20  23
HETATM   23  C   UNL     3     -10.010  15.012  65.748  1.00  0.00    -0.346 C  
HETATM   24  O   UNL     3     -10.565  18.418  65.451  1.00  0.00    -0.595 OA 
HETATM   25  C   UNL     3      -9.224  16.928  66.758  1.00  0.00    -0.247 C  
HETATM   26  C   UNL     3      -8.980  15.617  66.643  1.00  0.00    -0.284 C  
HETATM   27  O   UNL     3      -8.464  17.847  67.446  1.00  0.00    -0.230 OA 
HETATM   28  O   UNL     3     -10.607  16.142  65.091  1.00  0.00    -0.538 OA 
HETATM   29  C   UNL     3     -10.245  17.285  65.770  1.00  0.00    -0.198 C  
HETATM   30  O   UNL     3      -8.057  14.842  66.982  1.00  0.00    -0.205 OA 
HETATM   31  H   UNL     3      -7.801  17.615  68.086  1.00  0.00     0.000 HD 
ENDBRANCH  20  23
ENDBRANCH   7  20
TORSDOF 4
ENDMDL
MODEL      213
REMARK 921   NORMALIZED FREE ENERGY PREDICTED BY IDOCK:   -4.59 KCAL/MOL
REMARK 922        TOTAL FREE ENERGY PREDICTED BY IDOCK:   -7.59 KCAL/MOL
REMARK 923 INTER-LIGAND FREE ENERGY PREDICTED BY IDOCK:   -6.52 KCAL/MOL
REMARK 924 INTRA-LIGAND FREE ENERGY PREDICTED BY IDOCK:   -1.06 KCAL/MOL
REMARK 927      BINDING AFFINITY PREDICTED BY RF-SCORE:    0.00 PKD
ROOT
HETATM    1 CA   UNL     1      -8.738  14.500  65.483  1.00  0.00    -0.458 Ca 
HETATM    2  O   UNL     2      -5.747  13.689  71.757  1.00  0.00    -0.364 OA 
HETATM    3  C   UNL     2      -6.501  14.134  70.624  1.00  0.00     0.042 C  
HETATM    4  H   UNL     2      -5.942  14.277  72.477  1.00  0.00     0.000 HD 
HETATM    5  O   UNL     3     -10.639   9.660  67.111  1.00  0.00    -0.256 OA 
HETATM    6  H   UNL     3     -10.444   8.875  67.609  1.00  0.00     0.000 HD 
HETATM    7  C   UNL     3      -9.948   9.523  65.837  1.00  0.00    -0.272 C  
ENDROOT
BRANCH   3   8
HETATM    8  C   UNL     2      -6.190  13.197  69.480  1.00  0.00    -0.116 C  
HETATM    9  H   UNL     2      -5.122  13.292  67.834  1.00  0.00     0.000 HD 
HETATM   10  O   UNL     2      -5.317  13.881  68.554  1.00  0.00    -0.084 OA 
BRANCH   8  11
HETATM   11  C   UNL     2      -7.405  12.662  68.692  1.00  0.00    -0.101 C  
HETATM   12  C   UNL     2      -7.740  11.192  68.710  1.00  0.00    -0.136 C  
HETATM   13  O   UNL     2      -6.973  12.769  67.331  1.00  0.00    -0.147 OA 
HETATM   14  O   UNL     2      -5.266  11.554  66.356  1.00  0.00    -0.181 OA 
HETATM   15  H   UNL     2      -7.154   8.561  68.130  1.00  0.00     0.000 HD 
HETATM   16  O   UNL     2      -8.823  10.833  69.248  1.00  0.00    -0.128 OA 
HETATM   17  C   UNL     2      -6.178  11.674  67.143  1.00  0.00    -0.133 C  
HETATM   18  C   UNL     2      -6.811  10.584  67.935  1.00  0.00    -0.069 C  
HETATM   19  O   UNL     2      -6.750   9.257  67.625  1.00  0.00    -0.067 OA 
ENDBRANCH   8  11
ENDBRANCH   3   8
BRANCH   7  20
HETATM   20  C   UNL     3     -10.262  10.790  65.034  1.00  0.00    -0.306 C  
HETATM   21  O   UNL     3      -9.158  11.692  65.090  1.00  0.00    -0.407 OA 
HETATM   22  H   UNL     3      -9.353  12.477  64.592  1.00  0.00     0.000 HD 
BRANCH  20  23
HETATM   23  C   UNL     3     -11.633  11.510  65.153  1.00  0.00     0.051 C  
HETATM   24  O   UNL     3     -12.263  14.377  66.994  1.00  0.00    -0.400 OA 
HETATM   25  C   UNL     3     -12.312  13.668  64.709  1.00  0.00    -0.390 C  
HETATM   26  C   UNL     3     -12.208  12.456  64.150  1.00  0.00    -0.468 C  
HETATM   27  O   UNL     3     -12.852  14.794  64.131  1.00  0.00    -0.678 OA 
HETATM   28  O   UNL     3     -11.778  12.202  66.405  1.00  0.00    -0.489 OA 
HETATM   29  C   UNL     3     -12.056  13.526  66.144  1.00  0.00    -0.436 C  
HETATM   30  O   UNL     3     -12.588  11.923  63.083  1.00  0.00    -0.530 OA 
HETATM   31  H   UNL     3     -13.018  14.885  63.199  1.00  0.00     0.000 HD 
ENDBRANCH  20  23
ENDBRANCH   7  20
TORSDOF 4
ENDMDL
MODEL      214
REMARK 921   NORMALIZED FREE ENERGY PREDICTED BY IDOCK:   -4.58 KCAL/MOL
REMARK 922        TOTAL FREE ENERGY PREDICTED BY IDOCK:   -7.58 KCAL/MOL
REMARK 923 INTER-LIGAND FREE ENERGY PREDICTED BY IDOCK:   -6.71 KCAL/MOL
REMARK 924 INTRA-LIGAND FREE ENERGY PREDICTED BY IDOCK:   -0.87 KCAL/MOL
REMARK 927      BINDING AFFINITY PREDICTED BY RF-SCORE:    0.00 PKD
ROOT
HETATM    1 CA   UNL     1     -12.357  12.191  68.337  1.00  0.00    -0.305 Ca 
HETATM    2  O   UNL     2     -10.269   5.515  68.541  1.00  0.00    -0.169 OA 
HETATM    3  C   UNL     2     -10.996   6.747  68.612  1.00  0.00    -0.199 C  
HETATM    4  H   UNL     2     -10.868   4.818  68.781  1.00  0.00     0.000 HD 
HETATM    5  O   UNL     3     -11.071  11.168  63.142  1.00  0.00    -0.811 OA 
HETATM    6  H   UNL     3     -10.497  10.680  62.564  1.00  0.00     0.000 HD 
HETATM    7  C   UNL     3     -10.295  12.297  63.636  1.00  0.00    -0.432 C  
ENDROOT
BRANCH   3   8
HETATM    8  C   UNL     2     -10.043   7.855  68.229  1.00  0.00    -0.194 C  
HETATM    9  H   UNL     2      -8.501   8.032  67.025  1.00  0.00     0.000 HD 
HETATM   10  O   UNL     2      -9.101   7.335  67.265  1.00  0.00    -0.121 OA 
BRANCH   8  11
HETATM   11  C   UNL     2      -9.245   8.493  69.386  1.00  0.00    -0.153 C  
HETATM   12  C   UNL     2      -9.508   8.082  70.813  1.00  0.00    -0.161 C  
HETATM   13  O   UNL     2      -9.773   9.823  69.443  1.00  0.00    -0.179 OA 
HETATM   14  O   UNL     2     -11.928  10.396  70.048  1.00  0.00    -0.268 OA 
HETATM   15  H   UNL     2     -11.141   7.913  73.028  1.00  0.00     0.000 HD 
HETATM   16  O   UNL     2      -8.590   7.489  71.443  1.00  0.00    -0.118 OA 
HETATM   17  C   UNL     2     -10.948   9.690  70.126  1.00  0.00    -0.275 C  
HETATM   18  C   UNL     2     -10.692   8.644  71.154  1.00  0.00    -0.240 C  
HETATM   19  O   UNL     2     -11.304   8.580  72.372  1.00  0.00    -0.366 OA 
ENDBRANCH   8  11
ENDBRANCH   3   8
BRANCH   7  20
HETATM   20  C   UNL     3     -11.221  13.086  64.569  1.00  0.00    -0.339 C  
HETATM   21  O   UNL     3     -11.538  14.351  63.990  1.00  0.00    -0.632 OA 
HETATM   22  H   UNL     3     -12.112  14.839  64.568  1.00  0.00     0.000 HD 
BRANCH  20  23
HETATM   23  C   UNL     3     -10.954  13.175  66.097  1.00  0.00    -0.283 C  
HETATM   24  O   UNL     3      -8.111  12.050  67.725  1.00  0.00    -0.131 OA 
HETATM   25  C   UNL     3      -9.254  14.116  67.337  1.00  0.00    -0.204 C  
HETATM   26  C   UNL     3     -10.462  14.382  66.823  1.00  0.00    -0.273 C  
HETATM   27  O   UNL     3      -8.496  14.951  68.126  1.00  0.00    -0.138 OA 
HETATM   28  O   UNL     3     -10.099  12.117  66.563  1.00  0.00    -0.204 OA 
HETATM   29  C   UNL     3      -9.011  12.679  67.193  1.00  0.00    -0.205 C  
HETATM   30  O   UNL     3     -11.294  15.313  66.922  1.00  0.00    -0.307 OA 
HETATM   31  H   UNL     3      -8.655  15.883  68.219  1.00  0.00     0.000 HD 
ENDBRANCH  20  23
ENDBRANCH   7  20
TORSDOF 4
ENDMDL
MODEL      215
REMARK 921   NORMALIZED FREE ENERGY PREDICTED BY IDOCK:   -4.58 KCAL/MOL
REMARK 922        TOTAL FREE ENERGY PREDICTED BY IDOCK:   -7.58 KCAL/MOL
REMARK 923 INTER-LIGAND FREE ENERGY PREDICTED BY IDOCK:   -7.81 KCAL/MOL
REMARK 924 INTRA-LIGAND FREE ENERGY PREDICTED BY IDOCK:    0.23 KCAL/MOL
REMARK 927      BINDING AFFINITY PREDICTED BY RF-SCORE:    0.00 PKD
ROOT
HETATM    1 CA   UNL     1      -7.865  13.135  66.451  1.00  0.00    -0.374 Ca 
HETATM    2  O   UNL     2      -9.349   6.923  69.311  1.00  0.00    -0.145 OA 
HETATM    3  C   UNL     2      -8.721   8.114  68.823  1.00  0.00    -0.138 C  
HETATM    4  H   UNL     2      -8.677   6.402  69.735  1.00  0.00     0.000 HD 
HETATM    5  O   UNL     3     -11.317  14.444  70.459  1.00  0.00    -0.469 OA 
HETATM    6  H   UNL     3     -12.069  14.156  70.963  1.00  0.00     0.000 HD 
HETATM    7  C   UNL     3     -11.833  14.915  69.182  1.00  0.00    -0.307 C  
ENDROOT
BRANCH   3   8
HETATM    8  C   UNL     2      -9.791   8.943  68.151  1.00  0.00    -0.167 C  
HETATM    9  H   UNL     2     -10.999   8.708  66.620  1.00  0.00     0.000 HD 
HETATM   10  O   UNL     2     -10.327   8.186  67.043  1.00  0.00    -0.284 OA 
BRANCH   8  11
HETATM   11  C   UNL     2      -9.346  10.323  67.620  1.00  0.00    -0.144 C  
HETATM   12  C   UNL     2      -9.407  10.629  66.145  1.00  0.00    -0.177 C  
HETATM   13  O   UNL     2      -7.923  10.279  67.773  1.00  0.00    -0.101 OA 
HETATM   14  O   UNL     2      -6.481   8.894  66.616  1.00  0.00    -0.061 OA 
HETATM   15  H   UNL     2      -8.603  10.203  63.542  1.00  0.00     0.000 HD 
HETATM   16  O   UNL     2     -10.207  11.522  65.752  1.00  0.00    -0.231 OA 
HETATM   17  C   UNL     2      -7.490   9.558  66.698  1.00  0.00    -0.093 C  
HETATM   18  C   UNL     2      -8.388   9.942  65.575  1.00  0.00    -0.140 C  
HETATM   19  O   UNL     2      -8.030   9.958  64.258  1.00  0.00    -0.134 OA 
ENDBRANCH   8  11
ENDBRANCH   3   8
BRANCH   7  20
HETATM   20  C   UNL     3     -10.620  15.379  68.367  1.00  0.00    -0.247 C  
HETATM   21  O   UNL     3     -10.371  16.763  68.604  1.00  0.00    -0.276 OA 
HETATM   22  H   UNL     3      -9.619  17.050  68.100  1.00  0.00     0.000 HD 
BRANCH  20  23
HETATM   23  C   UNL     3     -10.441  14.983  66.875  1.00  0.00    -0.279 C  
HETATM   24  O   UNL     3     -12.994  14.213  64.664  1.00  0.00    -0.629 OA 
HETATM   25  C   UNL     3     -11.275  15.858  64.913  1.00  0.00    -0.337 C  
HETATM   26  C   UNL     3     -10.228  15.934  65.745  1.00  0.00    -0.365 C  
HETATM   27  O   UNL     3     -11.427  16.532  63.723  1.00  0.00    -1.615 OA 
HETATM   28  O   UNL     3     -11.493  14.121  66.411  1.00  0.00    -0.331 OA 
HETATM   29  C   UNL     3     -12.084  14.704  65.311  1.00  0.00    -0.276 C  
HETATM   30  O   UNL     3      -9.104  16.486  65.726  1.00  0.00    -0.487 OA 
HETATM   31  H   UNL     3     -10.902  17.281  63.465  1.00  0.00     0.000 HD 
ENDBRANCH  20  23
ENDBRANCH   7  20
TORSDOF 4
ENDMDL
MODEL      216
REMARK 921   NORMALIZED FREE ENERGY PREDICTED BY IDOCK:   -4.58 KCAL/MOL
REMARK 922        TOTAL FREE ENERGY PREDICTED BY IDOCK:   -7.58 KCAL/MOL
REMARK 923 INTER-LIGAND FREE ENERGY PREDICTED BY IDOCK:   -6.64 KCAL/MOL
REMARK 924 INTRA-LIGAND FREE ENERGY PREDICTED BY IDOCK:   -0.94 KCAL/MOL
REMARK 927      BINDING AFFINITY PREDICTED BY RF-SCORE:    0.00 PKD
ROOT
HETATM    1 CA   UNL     1      -7.749  12.181  65.871  1.00  0.00    -0.354 Ca 
HETATM    2  O   UNL     2     -10.872  18.411  66.515  1.00  0.00    -0.253 OA 
HETATM    3  C   UNL     2     -10.284  17.193  66.044  1.00  0.00    -0.321 C  
HETATM    4  H   UNL     2     -11.201  18.878  65.756  1.00  0.00     0.000 HD 
HETATM    5  O   UNL     3     -12.190  11.010  68.802  1.00  0.00    -0.693 OA 
HETATM    6  H   UNL     3     -12.800  11.334  69.454  1.00  0.00     0.000 HD 
HETATM    7  C   UNL     3     -10.993  10.602  69.524  1.00  0.00    -0.272 C  
ENDROOT
BRANCH   3   8
HETATM    8  C   UNL     2      -9.760  16.450  67.251  1.00  0.00    -0.239 C  
HETATM    9  H   UNL     2     -10.401  14.982  68.387  1.00  0.00     0.000 HD 
HETATM   10  O   UNL     2     -10.731  15.449  67.628  1.00  0.00    -0.278 OA 
BRANCH   8  11
HETATM   11  C   UNL     2      -9.448  17.310  68.494  1.00  0.00    -0.285 C  
HETATM   12  C   UNL     2      -8.143  18.058  68.598  1.00  0.00    -0.284 C  
HETATM   13  O   UNL     2      -9.217  16.329  69.511  1.00  0.00    -0.171 OA 
HETATM   14  O   UNL     2      -7.453  14.838  69.574  1.00  0.00    -0.166 OA 
HETATM   15  H   UNL     2      -5.393  18.125  68.789  1.00  0.00     0.000 HD 
HETATM   16  O   UNL     2      -8.175  19.319  68.605  1.00  0.00    -0.356 OA 
HETATM   17  C   UNL     2      -7.936  15.912  69.292  1.00  0.00    -0.229 C  
HETATM   18  C   UNL     2      -7.194  17.125  68.851  1.00  0.00    -0.242 C  
HETATM   19  O   UNL     2      -5.866  17.352  69.070  1.00  0.00    -0.176 OA 
ENDBRANCH   8  11
ENDBRANCH   3   8
BRANCH   7  20
HETATM   20  C   UNL     3     -10.009  10.079  68.472  1.00  0.00    -0.162 C  
HETATM   21  O   UNL     3      -8.847  10.905  68.435  1.00  0.00    -0.134 OA 
HETATM   22  H   UNL     3      -8.237  10.581  67.783  1.00  0.00     0.000 HD 
BRANCH  20  23
HETATM   23  C   UNL     3     -10.483   9.646  67.057  1.00  0.00    -0.232 C  
HETATM   24  O   UNL     3     -10.190  11.521  64.160  1.00  0.00    -0.271 OA 
HETATM   25  C   UNL     3      -9.395   9.441  65.036  1.00  0.00    -0.191 C  
HETATM   26  C   UNL     3      -9.736   8.747  66.128  1.00  0.00    -0.250 C  
HETATM   27  O   UNL     3      -8.752   8.953  63.921  1.00  0.00    -0.383 OA 
HETATM   28  O   UNL     3     -10.846  10.769  66.237  1.00  0.00    -0.183 OA 
HETATM   29  C   UNL     3     -10.101  10.724  65.079  1.00  0.00    -0.313 C  
HETATM   30  O   UNL     3      -9.699   7.544  66.476  1.00  0.00    -0.203 OA 
HETATM   31  H   UNL     3      -8.295   8.120  63.894  1.00  0.00     0.000 HD 
ENDBRANCH  20  23
ENDBRANCH   7  20
TORSDOF 4
ENDMDL
MODEL      217
REMARK 921   NORMALIZED FREE ENERGY PREDICTED BY IDOCK:   -4.57 KCAL/MOL
REMARK 922        TOTAL FREE ENERGY PREDICTED BY IDOCK:   -7.56 KCAL/MOL
REMARK 923 INTER-LIGAND FREE ENERGY PREDICTED BY IDOCK:   -6.24 KCAL/MOL
REMARK 924 INTRA-LIGAND FREE ENERGY PREDICTED BY IDOCK:   -1.32 KCAL/MOL
REMARK 927      BINDING AFFINITY PREDICTED BY RF-SCORE:    0.00 PKD
ROOT
HETATM    1 CA   UNL     1      -7.908  11.938  67.980  1.00  0.00    -0.098 Ca 
HETATM    2  O   UNL     2     -12.456  14.005  63.081  1.00  0.00    -1.137 OA 
HETATM    3  C   UNL     2     -11.291  13.704  63.857  1.00  0.00    -0.108 C  
HETATM    4  H   UNL     2     -12.160  14.373  62.256  1.00  0.00     0.000 HD 
HETATM    5  O   UNL     3     -10.391   7.289  66.599  1.00  0.00    -0.425 OA 
HETATM    6  H   UNL     3     -11.206   6.900  66.305  1.00  0.00     0.000 HD 
HETATM    7  C   UNL     3     -10.542   7.531  68.027  1.00  0.00    -0.155 C  
ENDROOT
BRANCH   3   8
HETATM    8  C   UNL     2     -11.763  13.119  65.168  1.00  0.00    -0.336 C  
HETATM    9  H   UNL     2     -13.347  12.131  65.778  1.00  0.00     0.000 HD 
HETATM   10  O   UNL     2     -13.050  12.498  64.954  1.00  0.00    -0.833 OA 
BRANCH   8  11
HETATM   11  C   UNL     2     -11.896  14.109  66.344  1.00  0.00    -0.423 C  
HETATM   12  C   UNL     2     -10.712  14.933  66.786  1.00  0.00    -0.312 C  
HETATM   13  O   UNL     2     -11.993  13.243  67.480  1.00  0.00    -0.356 OA 
HETATM   14  O   UNL     2     -10.320  11.863  68.275  1.00  0.00    -0.189 OA 
HETATM   15  H   UNL     2      -8.181  15.166  67.854  1.00  0.00     0.000 HD 
HETATM   16  O   UNL     2     -10.770  16.185  66.647  1.00  0.00    -0.306 OA 
HETATM   17  C   UNL     2     -10.703  12.877  67.737  1.00  0.00    -0.224 C  
HETATM   18  C   UNL     2      -9.882  14.081  67.434  1.00  0.00    -0.240 C  
HETATM   19  O   UNL     2      -8.705  14.398  68.047  1.00  0.00    -0.156 OA 
ENDBRANCH   8  11
ENDBRANCH   3   8
BRANCH   7  20
HETATM   20  C   UNL     3      -9.226   8.159  68.502  1.00  0.00    -0.136 C  
HETATM   21  O   UNL     3      -8.554   8.775  67.405  1.00  0.00    -0.124 OA 
HETATM   22  H   UNL     3      -7.739   9.165  67.699  1.00  0.00     0.000 HD 
BRANCH  20  23
HETATM   23  C   UNL     3      -8.258   7.401  69.451  1.00  0.00    -0.131 C  
HETATM   24  O   UNL     3      -8.807   4.269  70.826  1.00  0.00    -0.088 OA 
HETATM   25  C   UNL     3      -7.260   5.326  69.338  1.00  0.00    -0.061 C  
HETATM   26  C   UNL     3      -7.064   6.613  69.025  1.00  0.00    -0.089 C  
HETATM   27  O   UNL     3      -6.367   4.294  69.164  1.00  0.00    -0.030 OA 
HETATM   28  O   UNL     3      -8.954   6.519  70.348  1.00  0.00    -0.150 OA 
HETATM   29  C   UNL     3      -8.449   5.246  70.190  1.00  0.00    -0.109 C  
HETATM   30  O   UNL     3      -6.104   7.298  68.604  1.00  0.00    -0.025 OA 
HETATM   31  H   UNL     3      -5.595   4.346  68.611  1.00  0.00     0.000 HD 
ENDBRANCH  20  23
ENDBRANCH   7  20
TORSDOF 4
ENDMDL
MODEL      218
REMARK 921   NORMALIZED FREE ENERGY PREDICTED BY IDOCK:   -4.55 KCAL/MOL
REMARK 922        TOTAL FREE ENERGY PREDICTED BY IDOCK:   -7.54 KCAL/MOL
REMARK 923 INTER-LIGAND FREE ENERGY PREDICTED BY IDOCK:   -6.34 KCAL/MOL
REMARK 924 INTRA-LIGAND FREE ENERGY PREDICTED BY IDOCK:   -1.19 KCAL/MOL
REMARK 927      BINDING AFFINITY PREDICTED BY RF-SCORE:    0.00 PKD
ROOT
HETATM    1 CA   UNL     1      -8.836   6.652  69.319  1.00  0.00    -0.123 Ca 
HETATM    2  O   UNL     2      -7.260  10.650  63.796  1.00  0.00    -0.348 OA 
HETATM    3  C   UNL     2      -7.617   9.584  64.684  1.00  0.00    -0.113 C  
HETATM    4  H   UNL     2      -7.288  10.303  62.912  1.00  0.00     0.000 HD 
HETATM    5  O   UNL     3     -12.735  10.456  69.429  1.00  0.00    -0.658 OA 
HETATM    6  H   UNL     3     -12.943  11.363  69.240  1.00  0.00     0.000 HD 
HETATM    7  C   UNL     3     -12.004  10.453  70.688  1.00  0.00    -0.351 C  
ENDROOT
BRANCH   3   8
HETATM    8  C   UNL     2      -7.572  10.137  66.090  1.00  0.00    -0.114 C  
HETATM    9  H   UNL     2      -6.232  10.229  67.524  1.00  0.00     0.000 HD 
HETATM   10  O   UNL     2      -6.260   9.882  66.639  1.00  0.00    -0.065 OA 
BRANCH   8  11
HETATM   11  C   UNL     2      -8.622   9.577  67.072  1.00  0.00    -0.128 C  
HETATM   12  C   UNL     2     -10.093   9.669  66.752  1.00  0.00    -0.236 C  
HETATM   13  O   UNL     2      -8.578  10.513  68.155  1.00  0.00    -0.118 OA 
HETATM   14  O   UNL     2      -9.230  12.728  68.053  1.00  0.00    -0.196 OA 
HETATM   15  H   UNL     2     -12.391  11.121  66.294  1.00  0.00     0.000 HD 
HETATM   16  O   UNL     2     -10.732   8.598  66.562  1.00  0.00    -0.104 OA 
HETATM   17  C   UNL     2      -9.327  11.568  67.719  1.00  0.00    -0.168 C  
HETATM   18  C   UNL     2     -10.436  10.967  66.929  1.00  0.00    -0.249 C  
HETATM   19  O   UNL     2     -11.684  11.505  66.798  1.00  0.00    -0.510 OA 
ENDBRANCH   8  11
ENDBRANCH   3   8
BRANCH   7  20
HETATM   20  C   UNL     3     -11.669   8.989  70.993  1.00  0.00    -0.296 C  
HETATM   21  O   UNL     3     -12.832   8.177  70.836  1.00  0.00    -0.509 OA 
HETATM   22  H   UNL     3     -12.624   7.270  71.025  1.00  0.00     0.000 HD 
BRANCH  20  23
HETATM   23  C   UNL     3     -10.820   8.588  72.231  1.00  0.00    -0.348 C  
HETATM   24  O   UNL     3     -10.871   5.507  73.813  1.00  0.00    -0.282 OA 
HETATM   25  C   UNL     3      -9.321   6.881  72.615  1.00  0.00    -0.138 C  
HETATM   26  C   UNL     3      -9.393   8.152  72.201  1.00  0.00    -0.206 C  
HETATM   27  O   UNL     3      -8.175   6.138  72.787  1.00  0.00    -0.116 OA 
HETATM   28  O   UNL     3     -11.471   7.593  73.039  1.00  0.00    -0.342 OA 
HETATM   29  C   UNL     3     -10.627   6.511  73.164  1.00  0.00    -0.265 C  
HETATM   30  O   UNL     3      -8.570   9.059  71.938  1.00  0.00    -0.361 OA 
HETATM   31  H   UNL     3      -7.327   6.378  72.431  1.00  0.00     0.000 HD 
ENDBRANCH  20  23
ENDBRANCH   7  20
TORSDOF 4
ENDMDL
MODEL      219
REMARK 921   NORMALIZED FREE ENERGY PREDICTED BY IDOCK:   -4.52 KCAL/MOL
REMARK 922        TOTAL FREE ENERGY PREDICTED BY IDOCK:   -7.50 KCAL/MOL
REMARK 923 INTER-LIGAND FREE ENERGY PREDICTED BY IDOCK:   -5.66 KCAL/MOL
REMARK 924 INTRA-LIGAND FREE ENERGY PREDICTED BY IDOCK:   -1.84 KCAL/MOL
REMARK 927      BINDING AFFINITY PREDICTED BY RF-SCORE:    0.00 PKD
ROOT
HETATM    1 CA   UNL     1      -9.148  11.462  66.432  1.00  0.00    -0.155 Ca 
HETATM    2  O   UNL     2      -6.052   8.388  71.903  1.00  0.00    -0.045 OA 
HETATM    3  C   UNL     2      -6.359   9.093  70.695  1.00  0.00    -0.058 C  
HETATM    4  H   UNL     2      -5.110   8.426  72.023  1.00  0.00     0.000 HD 
HETATM    5  O   UNL     3     -11.184  14.210  70.673  1.00  0.00    -0.503 OA 
HETATM    6  H   UNL     3     -11.448  14.152  71.584  1.00  0.00     0.000 HD 
HETATM    7  C   UNL     3     -12.265  13.624  69.893  1.00  0.00    -0.304 C  
ENDROOT
BRANCH   3   8
HETATM    8  C   UNL     2      -7.856   9.032  70.506  1.00  0.00    -0.130 C  
HETATM    9  H   UNL     2      -9.421   8.930  71.689  1.00  0.00     0.000 HD 
HETATM   10  O   UNL     2      -8.479   8.968  71.808  1.00  0.00    -0.351 OA 
BRANCH   8  11
HETATM   11  C   UNL     2      -8.386   7.854  69.661  1.00  0.00    -0.131 C  
HETATM   12  C   UNL     2      -7.909   7.655  68.244  1.00  0.00    -0.121 C  
HETATM   13  O   UNL     2      -9.736   8.244  69.382  1.00  0.00    -0.173 OA 
HETATM   14  O   UNL     2     -10.382  10.032  68.069  1.00  0.00    -0.175 OA 
HETATM   15  H   UNL     2      -7.698   8.466  65.618  1.00  0.00     0.000 HD 
HETATM   16  O   UNL     2      -7.236   6.622  67.980  1.00  0.00    -0.085 OA 
HETATM   17  C   UNL     2      -9.624   9.131  68.350  1.00  0.00    -0.151 C  
HETATM   18  C   UNL     2      -8.510   8.618  67.506  1.00  0.00    -0.124 C  
HETATM   19  O   UNL     2      -8.408   8.794  66.156  1.00  0.00    -0.115 OA 
ENDBRANCH   8  11
ENDBRANCH   3   8
BRANCH   7  20
HETATM   20  C   UNL     3     -11.839  13.717  68.423  1.00  0.00    -0.376 C  
HETATM   21  O   UNL     3     -10.743  12.839  68.174  1.00  0.00    -0.213 OA 
HETATM   22  H   UNL     3     -10.479  12.897  67.263  1.00  0.00     0.000 HD 
BRANCH  20  23
HETATM   23  C   UNL     3     -11.686  15.087  67.705  1.00  0.00    -0.262 C  
HETATM   24  O   UNL     3     -10.274  17.942  69.067  1.00  0.00    -0.378 OA 
HETATM   25  C   UNL     3      -9.864  16.427  67.261  1.00  0.00    -0.245 C  
HETATM   26  C   UNL     3     -10.607  15.444  66.737  1.00  0.00    -0.309 C  
HETATM   27  O   UNL     3      -8.813  17.073  66.652  1.00  0.00    -0.225 OA 
HETATM   28  O   UNL     3     -11.705  16.190  68.627  1.00  0.00    -0.362 OA 
HETATM   29  C   UNL     3     -10.551  16.924  68.455  1.00  0.00    -0.365 C  
HETATM   30  O   UNL     3     -10.691  14.877  65.623  1.00  0.00    -0.305 OA 
HETATM   31  H   UNL     3      -8.367  16.751  65.877  1.00  0.00     0.000 HD 
ENDBRANCH  20  23
ENDBRANCH   7  20
TORSDOF 4
ENDMDL
MODEL      220
REMARK 921   NORMALIZED FREE ENERGY PREDICTED BY IDOCK:   -4.51 KCAL/MOL
REMARK 922        TOTAL FREE ENERGY PREDICTED BY IDOCK:   -7.50 KCAL/MOL
REMARK 923 INTER-LIGAND FREE ENERGY PREDICTED BY IDOCK:   -6.31 KCAL/MOL
REMARK 924 INTRA-LIGAND FREE ENERGY PREDICTED BY IDOCK:   -1.19 KCAL/MOL
REMARK 927      BINDING AFFINITY PREDICTED BY RF-SCORE:    0.00 PKD
ROOT
HETATM    1 CA   UNL     1     -11.957   7.162  69.239  1.00  0.00    -0.477 Ca 
HETATM    2  O   UNL     2      -7.843   9.887  64.277  1.00  0.00    -0.128 OA 
HETATM    3  C   UNL     2      -8.847   9.186  65.020  1.00  0.00    -0.189 C  
HETATM    4  H   UNL     2      -8.015   9.734  63.355  1.00  0.00     0.000 HD 
HETATM    5  O   UNL     3     -12.657  12.524  69.900  1.00  0.00     0.019 OA 
HETATM    6  H   UNL     3     -12.244  13.377  69.836  1.00  0.00     0.000 HD 
HETATM    7  C   UNL     3     -12.180  11.927  71.139  1.00  0.00    -0.065 C  
ENDROOT
BRANCH   3   8
HETATM    8  C   UNL     2      -8.573   9.429  66.486  1.00  0.00    -0.134 C  
HETATM    9  H   UNL     2      -7.873   8.366  67.982  1.00  0.00     0.000 HD 
HETATM   10  O   UNL     2      -8.045   8.213  67.060  1.00  0.00    -0.106 OA 
BRANCH   8  11
HETATM   11  C   UNL     2      -9.781   9.877  67.336  1.00  0.00    -0.162 C  
HETATM   12  C   UNL     2     -10.563  11.112  66.962  1.00  0.00    -0.252 C  
HETATM   13  O   UNL     2      -9.165  10.366  68.533  1.00  0.00    -0.134 OA 
HETATM   14  O   UNL     2      -7.818  12.237  68.691  1.00  0.00    -0.123 OA 
HETATM   15  H   UNL     2     -10.767  13.836  66.591  1.00  0.00     0.000 HD 
HETATM   16  O   UNL     2     -11.764  10.972  66.603  1.00  0.00    -0.201 OA 
HETATM   17  C   UNL     2      -8.739  11.621  68.204  1.00  0.00    -0.159 C  
HETATM   18  C   UNL     2      -9.781  12.167  67.291  1.00  0.00    -0.191 C  
HETATM   19  O   UNL     2     -10.102  13.488  67.173  1.00  0.00    -0.239 OA 
ENDBRANCH   8  11
ENDBRANCH   3   8
BRANCH   7  20
HETATM   20  C   UNL     3     -12.848  10.550  71.242  1.00  0.00    -0.431 C  
HETATM   21  O   UNL     3     -13.762  10.530  72.337  1.00  0.00    -0.525 OA 
HETATM   22  H   UNL     3     -14.176   9.678  72.401  1.00  0.00     0.000 HD 
BRANCH  20  23
HETATM   23  C   UNL     3     -12.027   9.236  71.121  1.00  0.00    -0.322 C  
HETATM   24  O   UNL     3      -8.954   8.623  72.598  1.00  0.00    -0.351 OA 
HETATM   25  C   UNL     3     -11.187   7.766  72.684  1.00  0.00    -0.381 C  
HETATM   26  C   UNL     3     -12.258   7.993  71.913  1.00  0.00    -0.319 C  
HETATM   27  O   UNL     3     -10.986   6.686  73.513  1.00  0.00    -0.471 OA 
HETATM   28  O   UNL     3     -10.613   9.465  71.237  1.00  0.00    -0.313 OA 
HETATM   29  C   UNL     3     -10.125   8.682  72.261  1.00  0.00    -0.292 C  
HETATM   30  O   UNL     3     -13.298   7.362  71.613  1.00  0.00    -0.362 OA 
HETATM   31  H   UNL     3     -11.675   6.091  73.787  1.00  0.00     0.000 HD 
ENDBRANCH  20  23
ENDBRANCH   7  20
TORSDOF 4
ENDMDL
MODEL      221
REMARK 921   NORMALIZED FREE ENERGY PREDICTED BY IDOCK:   -4.51 KCAL/MOL
REMARK 922        TOTAL FREE ENERGY PREDICTED BY IDOCK:   -7.49 KCAL/MOL
REMARK 923 INTER-LIGAND FREE ENERGY PREDICTED BY IDOCK:   -6.37 KCAL/MOL
REMARK 924 INTRA-LIGAND FREE ENERGY PREDICTED BY IDOCK:   -1.12 KCAL/MOL
REMARK 927      BINDING AFFINITY PREDICTED BY RF-SCORE:    0.00 PKD
ROOT
HETATM    1 CA   UNL     1      -7.492  13.384  70.246  1.00  0.00    -0.295 Ca 
HETATM    2  O   UNL     2      -8.075   7.064  73.194  1.00  0.00    -0.101 OA 
HETATM    3  C   UNL     2      -7.965   8.466  72.921  1.00  0.00    -0.091 C  
HETATM    4  H   UNL     2      -8.168   6.965  74.135  1.00  0.00     0.000 HD 
HETATM    5  O   UNL     3     -12.186  11.523  68.198  1.00  0.00    -0.576 OA 
HETATM    6  H   UNL     3     -12.661  10.749  67.918  1.00  0.00     0.000 HD 
HETATM    7  C   UNL     3     -11.267  11.855  67.118  1.00  0.00    -0.319 C  
ENDROOT
BRANCH   3   8
HETATM    8  C   UNL     2      -7.818   8.622  71.425  1.00  0.00    -0.129 C  
HETATM    9  H   UNL     2      -6.747   9.752  70.228  1.00  0.00     0.000 HD 
HETATM   10  O   UNL     2      -6.839   9.654  71.168  1.00  0.00    -0.287 OA 
BRANCH   8  11
HETATM   11  C   UNL     2      -9.105   8.977  70.651  1.00  0.00    -0.235 C  
HETATM   12  C   UNL     2     -10.377   8.201  70.888  1.00  0.00    -0.190 C  
HETATM   13  O   UNL     2      -8.816   8.518  69.325  1.00  0.00    -0.139 OA 
HETATM   14  O   UNL     2      -8.531   6.315  68.690  1.00  0.00    -0.121 OA 
HETATM   15  H   UNL     2     -11.855   5.876  70.794  1.00  0.00     0.000 HD 
HETATM   16  O   UNL     2     -11.359   8.806  71.398  1.00  0.00    -0.255 OA 
HETATM   17  C   UNL     2      -9.038   7.172  69.378  1.00  0.00    -0.145 C  
HETATM   18  C   UNL     2     -10.200   6.998  70.292  1.00  0.00    -0.193 C  
HETATM   19  O   UNL     2     -11.114   5.987  70.211  1.00  0.00    -0.328 OA 
ENDBRANCH   8  11
ENDBRANCH   3   8
BRANCH   7  20
HETATM   20  C   UNL     3     -10.500  13.103  67.569  1.00  0.00    -0.228 C  
HETATM   21  O   UNL     3      -9.630  12.780  68.652  1.00  0.00    -0.383 OA 
HETATM   22  H   UNL     3      -9.155  13.554  68.931  1.00  0.00     0.000 HD 
BRANCH  20  23
HETATM   23  C   UNL     3     -11.212  14.471  67.758  1.00  0.00    -0.298 C  
HETATM   24  O   UNL     3     -12.911  15.495  70.598  1.00  0.00    -0.462 OA 
HETATM   25  C   UNL     3     -10.993  16.147  69.326  1.00  0.00    -0.315 C  
HETATM   26  C   UNL     3     -10.544  15.754  68.127  1.00  0.00    -0.275 C  
HETATM   27  O   UNL     3     -10.665  17.310  69.984  1.00  0.00    -0.255 OA 
HETATM   28  O   UNL     3     -12.324  14.386  68.666  1.00  0.00    -0.202 OA 
HETATM   29  C   UNL     3     -12.133  15.298  69.680  1.00  0.00    -0.312 C  
HETATM   30  O   UNL     3      -9.835  16.256  67.225  1.00  0.00    -0.236 OA 
HETATM   31  H   UNL     3      -9.925  17.861  69.753  1.00  0.00     0.000 HD 
ENDBRANCH  20  23
ENDBRANCH   7  20
TORSDOF 4
ENDMDL
MODEL      222
REMARK 921   NORMALIZED FREE ENERGY PREDICTED BY IDOCK:   -4.50 KCAL/MOL
REMARK 922        TOTAL FREE ENERGY PREDICTED BY IDOCK:   -7.48 KCAL/MOL
REMARK 923 INTER-LIGAND FREE ENERGY PREDICTED BY IDOCK:   -8.34 KCAL/MOL
REMARK 924 INTRA-LIGAND FREE ENERGY PREDICTED BY IDOCK:    0.86 KCAL/MOL
REMARK 927      BINDING AFFINITY PREDICTED BY RF-SCORE:    0.00 PKD
ROOT
HETATM    1 CA   UNL     1      -9.888  15.009  64.072  1.00  0.00    -0.209 Ca 
HETATM    2  O   UNL     2      -7.566  20.951  66.948  1.00  0.00    -0.523 OA 
HETATM    3  C   UNL     2      -8.162  19.951  66.115  1.00  0.00    -0.322 C  
HETATM    4  H   UNL     2      -7.752  21.796  66.554  1.00  0.00     0.000 HD 
HETATM    5  O   UNL     3     -12.480  15.126  68.863  1.00  0.00    -0.588 OA 
HETATM    6  H   UNL     3     -12.423  15.394  69.772  1.00  0.00     0.000 HD 
HETATM    7  C   UNL     3     -11.702  13.900  68.745  1.00  0.00    -0.357 C  
ENDROOT
BRANCH   3   8
HETATM    8  C   UNL     2      -7.866  18.608  66.742  1.00  0.00    -0.245 C  
HETATM    9  H   UNL     2      -6.960  16.960  66.176  1.00  0.00     0.000 HD 
HETATM   10  O   UNL     2      -7.145  17.804  65.782  1.00  0.00    -0.422 OA 
BRANCH   8  11
HETATM   11  C   UNL     2      -9.090  17.800  67.224  1.00  0.00    -0.246 C  
HETATM   12  C   UNL     2      -9.708  16.749  66.337  1.00  0.00    -0.290 C  
HETATM   13  O   UNL     2     -10.146  18.766  67.182  1.00  0.00    -0.320 OA 
HETATM   14  O   UNL     2     -11.008  19.745  65.274  1.00  0.00    -0.410 OA 
HETATM   15  H   UNL     2     -11.043  15.981  64.050  1.00  0.00     0.000 HD 
HETATM   16  O   UNL     2      -9.653  15.545  66.709  1.00  0.00    -0.219 OA 
HETATM   17  C   UNL     2     -10.507  18.815  65.866  1.00  0.00    -0.376 C  
HETATM   18  C   UNL     2     -10.375  17.419  65.367  1.00  0.00     0.071 C  
HETATM   19  O   UNL     2     -11.126  16.872  64.368  1.00  0.00    -1.128 OA 
ENDBRANCH   8  11
ENDBRANCH   3   8
BRANCH   7  20
HETATM   20  C   UNL     3     -11.794  13.467  67.277  1.00  0.00    -0.376 C  
HETATM   21  O   UNL     3     -12.905  14.102  66.648  1.00  0.00    -0.454 OA 
HETATM   22  H   UNL     3     -12.962  13.834  65.738  1.00  0.00     0.000 HD 
BRANCH  20  23
HETATM   23  C   UNL     3     -11.634  11.980  66.856  1.00  0.00    -0.318 C  
HETATM   24  O   UNL     3     -10.329  10.855  63.851  1.00  0.00    -0.346 OA 
HETATM   25  C   UNL     3      -9.818  10.730  66.185  1.00  0.00    -0.221 C  
HETATM   26  C   UNL     3     -10.521  11.075  67.271  1.00  0.00    -0.231 C  
HETATM   27  O   UNL     3      -8.752   9.860  66.141  1.00  0.00    -0.132 OA 
HETATM   28  O   UNL     3     -11.711  11.806  65.431  1.00  0.00    -0.232 OA 
HETATM   29  C   UNL     3     -10.563  11.173  65.005  1.00  0.00    -0.273 C  
HETATM   30  O   UNL     3     -10.548  10.724  68.473  1.00  0.00    -0.173 OA 
HETATM   31  H   UNL     3      -8.269   9.572  66.907  1.00  0.00     0.000 HD 
ENDBRANCH  20  23
ENDBRANCH   7  20
TORSDOF 4
ENDMDL
MODEL      223
REMARK 921   NORMALIZED FREE ENERGY PREDICTED BY IDOCK:   -4.49 KCAL/MOL
REMARK 922        TOTAL FREE ENERGY PREDICTED BY IDOCK:   -7.46 KCAL/MOL
REMARK 923 INTER-LIGAND FREE ENERGY PREDICTED BY IDOCK:   -6.06 KCAL/MOL
REMARK 924 INTRA-LIGAND FREE ENERGY PREDICTED BY IDOCK:   -1.40 KCAL/MOL
REMARK 927      BINDING AFFINITY PREDICTED BY RF-SCORE:    0.00 PKD
ROOT
HETATM    1 CA   UNL     1      -6.628  14.674  70.079  1.00  0.00    -0.106 Ca 
HETATM    2  O   UNL     2     -12.228  11.913  66.917  1.00  0.00    -0.493 OA 
HETATM    3  C   UNL     2     -11.294  12.488  67.839  1.00  0.00    -0.291 C  
HETATM    4  H   UNL     2     -13.054  11.815  67.375  1.00  0.00     0.000 HD 
HETATM    5  O   UNL     3      -7.669  18.263  66.113  1.00  0.00    -0.335 OA 
HETATM    6  H   UNL     3      -7.999  18.372  65.229  1.00  0.00     0.000 HD 
HETATM    7  C   UNL     3      -6.309  17.757  65.985  1.00  0.00    -0.234 C  
ENDROOT
BRANCH   3   8
HETATM    8  C   UNL     2      -9.980  12.644  67.110  1.00  0.00    -0.217 C  
HETATM    9  H   UNL     2      -9.432  13.019  65.261  1.00  0.00     0.000 HD 
HETATM   10  O   UNL     2     -10.258  12.921  65.720  1.00  0.00    -0.280 OA 
BRANCH   8  11
HETATM   11  C   UNL     2      -9.020  11.436  67.177  1.00  0.00    -0.162 C  
HETATM   12  C   UNL     2      -8.424  11.007  68.494  1.00  0.00    -0.153 C  
HETATM   13  O   UNL     2      -7.832  11.939  66.555  1.00  0.00    -0.064 OA 
HETATM   14  O   UNL     2      -6.472  13.609  67.392  1.00  0.00    -0.278 OA 
HETATM   15  H   UNL     2      -6.819  11.450  70.692  1.00  0.00     0.000 HD 
HETATM   16  O   UNL     2      -8.746   9.878  68.956  1.00  0.00    -0.133 OA 
HETATM   17  C   UNL     2      -7.223  12.670  67.534  1.00  0.00    -0.155 C  
HETATM   18  C   UNL     2      -7.483  11.931  68.800  1.00  0.00    -0.100 C  
HETATM   19  O   UNL     2      -6.654  11.922  69.884  1.00  0.00    -0.090 OA 
ENDBRANCH   8  11
ENDBRANCH   3   8
BRANCH   7  20
HETATM   20  C   UNL     3      -5.776  17.581  67.412  1.00  0.00    -0.139 C  
HETATM   21  O   UNL     3      -5.459  16.211  67.651  1.00  0.00    -0.127 OA 
HETATM   22  H   UNL     3      -5.128  16.102  68.534  1.00  0.00     0.000 HD 
BRANCH  20  23
HETATM   23  C   UNL     3      -6.465  18.259  68.628  1.00  0.00    -0.225 C  
HETATM   24  O   UNL     3      -5.164  18.478  71.831  1.00  0.00    -0.665 OA 
HETATM   25  C   UNL     3      -5.813  19.946  70.057  1.00  0.00    -0.306 C  
HETATM   26  C   UNL     3      -6.475  19.724  68.915  1.00  0.00    -0.303 C  
HETATM   27  O   UNL     3      -5.654  21.157  70.691  1.00  0.00    -0.515 OA 
HETATM   28  O   UNL     3      -6.074  17.664  69.877  1.00  0.00    -0.244 OA 
HETATM   29  C   UNL     3      -5.561  18.650  70.690  1.00  0.00    -0.178 C  
HETATM   30  O   UNL     3      -7.185  20.407  68.141  1.00  0.00    -0.271 OA 
HETATM   31  H   UNL     3      -5.818  21.998  70.279  1.00  0.00     0.000 HD 
ENDBRANCH  20  23
ENDBRANCH   7  20
TORSDOF 4
ENDMDL
MODEL      224
REMARK 921   NORMALIZED FREE ENERGY PREDICTED BY IDOCK:   -4.48 KCAL/MOL
REMARK 922        TOTAL FREE ENERGY PREDICTED BY IDOCK:   -7.46 KCAL/MOL
REMARK 923 INTER-LIGAND FREE ENERGY PREDICTED BY IDOCK:   -6.92 KCAL/MOL
REMARK 924 INTRA-LIGAND FREE ENERGY PREDICTED BY IDOCK:   -0.54 KCAL/MOL
REMARK 927      BINDING AFFINITY PREDICTED BY RF-SCORE:    0.00 PKD
ROOT
HETATM    1 CA   UNL     1      -9.623  13.387  64.588  1.00  0.00    -0.463 Ca 
HETATM    2  O   UNL     2      -9.718   7.309  68.055  1.00  0.00    -0.138 OA 
HETATM    3  C   UNL     2      -9.467   8.387  67.146  1.00  0.00    -0.163 C  
HETATM    4  H   UNL     2      -9.151   6.590  67.804  1.00  0.00     0.000 HD 
HETATM    5  O   UNL     3      -7.922  14.809  69.565  1.00  0.00    -0.356 OA 
HETATM    6  H   UNL     3      -7.995  14.626  70.494  1.00  0.00     0.000 HD 
HETATM    7  C   UNL     3      -9.105  15.577  69.203  1.00  0.00    -0.248 C  
ENDROOT
BRANCH   3   8
HETATM    8  C   UNL     2     -10.369   9.532  67.546  1.00  0.00    -0.248 C  
HETATM    9  H   UNL     2     -11.288  10.993  66.608  1.00  0.00     0.000 HD 
HETATM   10  O   UNL     2     -10.722  10.273  66.356  1.00  0.00    -0.144 OA 
BRANCH   8  11
HETATM   11  C   UNL     2      -9.789  10.524  68.576  1.00  0.00    -0.168 C  
HETATM   12  C   UNL     2      -9.180  10.022  69.861  1.00  0.00    -0.158 C  
HETATM   13  O   UNL     2     -10.962  11.141  69.120  1.00  0.00    -0.214 OA 
HETATM   14  O   UNL     2     -12.571  10.089  70.402  1.00  0.00    -0.197 OA 
HETATM   15  H   UNL     2      -9.365   8.756  72.303  1.00  0.00     0.000 HD 
HETATM   16  O   UNL     2      -7.945  10.201  70.047  1.00  0.00    -0.172 OA 
HETATM   17  C   UNL     2     -11.428  10.236  70.029  1.00  0.00    -0.296 C  
HETATM   18  C   UNL     2     -10.215   9.626  70.639  1.00  0.00    -0.278 C  
HETATM   19  O   UNL     2     -10.139   9.144  71.914  1.00  0.00    -0.322 OA 
ENDBRANCH   8  11
ENDBRANCH   3   8
BRANCH   7  20
HETATM   20  C   UNL     3      -8.988  15.873  67.703  1.00  0.00    -0.190 C  
HETATM   21  O   UNL     3      -8.166  14.892  67.073  1.00  0.00    -0.206 OA 
HETATM   22  H   UNL     3      -8.094  15.076  66.144  1.00  0.00     0.000 HD 
BRANCH  20  23
HETATM   23  C   UNL     3      -8.720  17.310  67.176  1.00  0.00    -0.218 C  
HETATM   24  O   UNL     3     -10.901  19.206  65.265  1.00  0.00    -0.528 OA 
HETATM   25  C   UNL     3      -9.854  19.302  67.415  1.00  0.00    -0.336 C  
HETATM   26  C   UNL     3      -8.878  18.568  67.964  1.00  0.00    -0.298 C  
HETATM   27  O   UNL     3     -10.259  20.556  67.812  1.00  0.00    -0.328 OA 
HETATM   28  O   UNL     3      -9.419  17.579  65.949  1.00  0.00    -0.515 OA 
HETATM   29  C   UNL     3     -10.202  18.698  66.127  1.00  0.00    -0.416 C  
HETATM   30  O   UNL     3      -8.016  18.742  68.855  1.00  0.00    -0.317 OA 
HETATM   31  H   UNL     3     -10.032  20.948  68.648  1.00  0.00     0.000 HD 
ENDBRANCH  20  23
ENDBRANCH   7  20
TORSDOF 4
ENDMDL
MODEL      225
REMARK 921   NORMALIZED FREE ENERGY PREDICTED BY IDOCK:   -4.48 KCAL/MOL
REMARK 922        TOTAL FREE ENERGY PREDICTED BY IDOCK:   -7.46 KCAL/MOL
REMARK 923 INTER-LIGAND FREE ENERGY PREDICTED BY IDOCK:   -6.79 KCAL/MOL
REMARK 924 INTRA-LIGAND FREE ENERGY PREDICTED BY IDOCK:   -0.67 KCAL/MOL
REMARK 927      BINDING AFFINITY PREDICTED BY RF-SCORE:    0.00 PKD
ROOT
HETATM    1 CA   UNL     1      -7.428  11.302  67.927  1.00  0.00    -0.080 Ca 
HETATM    2  O   UNL     2     -12.206  14.294  63.781  1.00  0.00    -0.893 OA 
HETATM    3  C   UNL     2     -11.129  13.529  64.334  1.00  0.00    -0.380 C  
HETATM    4  H   UNL     2     -12.264  14.076  62.858  1.00  0.00     0.000 HD 
HETATM    5  O   UNL     3     -12.133   9.557  70.051  1.00  0.00    -0.462 OA 
HETATM    6  H   UNL     3     -13.043   9.776  70.210  1.00  0.00     0.000 HD 
HETATM    7  C   UNL     3     -11.356  10.258  71.064  1.00  0.00    -0.226 C  
ENDROOT
BRANCH   3   8
HETATM    8  C   UNL     2     -11.037  13.876  65.801  1.00  0.00    -0.294 C  
HETATM    9  H   UNL     2      -9.913  15.053  66.902  1.00  0.00     0.000 HD 
HETATM   10  O   UNL     2      -9.971  14.835  65.979  1.00  0.00    -0.279 OA 
BRANCH   8  11
HETATM   11  C   UNL     2     -10.786  12.695  66.763  1.00  0.00    -0.250 C  
HETATM   12  C   UNL     2     -11.758  12.398  67.877  1.00  0.00    -0.360 C  
HETATM   13  O   UNL     2      -9.685  13.155  67.553  1.00  0.00    -0.205 OA 
HETATM   14  O   UNL     2      -9.737  14.916  69.048  1.00  0.00    -0.216 OA 
HETATM   15  H   UNL     2     -13.032  13.068  70.229  1.00  0.00     0.000 HD 
HETATM   16  O   UNL     2     -12.399  11.313  67.838  1.00  0.00    -0.363 OA 
HETATM   17  C   UNL     2     -10.255  13.983  68.477  1.00  0.00    -0.237 C  
HETATM   18  C   UNL     2     -11.566  13.361  68.810  1.00  0.00    -0.325 C  
HETATM   19  O   UNL     2     -12.196  13.464  70.016  1.00  0.00    -0.327 OA 
ENDBRANCH   8  11
ENDBRANCH   3   8
BRANCH   7  20
HETATM   20  C   UNL     3      -9.887   9.905  70.806  1.00  0.00     0.130 C  
HETATM   21  O   UNL     3      -9.562  10.129  69.436  1.00  0.00    -0.210 OA 
HETATM   22  H   UNL     3      -8.652   9.911  69.276  1.00  0.00     0.000 HD 
BRANCH  20  23
HETATM   23  C   UNL     3      -9.252   8.603  71.369  1.00  0.00    -0.235 C  
HETATM   24  O   UNL     3     -10.220   6.962  74.263  1.00  0.00    -0.349 OA 
HETATM   25  C   UNL     3     -10.128   6.541  71.909  1.00  0.00    -0.182 C  
HETATM   26  C   UNL     3      -9.557   7.217  70.905  1.00  0.00    -0.170 C  
HETATM   27  O   UNL     3     -10.500   5.215  71.898  1.00  0.00    -0.211 OA 
HETATM   28  O   UNL     3      -9.356   8.520  72.800  1.00  0.00    -0.254 OA 
HETATM   29  C   UNL     3      -9.998   7.346  73.125  1.00  0.00    -0.268 C  
HETATM   30  O   UNL     3      -9.115   6.934  69.768  1.00  0.00    -0.144 OA 
HETATM   31  H   UNL     3     -10.583   4.693  71.108  1.00  0.00     0.000 HD 
ENDBRANCH  20  23
ENDBRANCH   7  20
TORSDOF 4
ENDMDL
MODEL      226
REMARK 921   NORMALIZED FREE ENERGY PREDICTED BY IDOCK:   -4.46 KCAL/MOL
REMARK 922        TOTAL FREE ENERGY PREDICTED BY IDOCK:   -7.43 KCAL/MOL
REMARK 923 INTER-LIGAND FREE ENERGY PREDICTED BY IDOCK:   -6.43 KCAL/MOL
REMARK 924 INTRA-LIGAND FREE ENERGY PREDICTED BY IDOCK:   -1.00 KCAL/MOL
REMARK 927      BINDING AFFINITY PREDICTED BY RF-SCORE:    0.00 PKD
ROOT
HETATM    1 CA   UNL     1     -11.945  11.978  71.018  1.00  0.00    -0.313 Ca 
HETATM    2  O   UNL     2      -8.825  16.728  66.936  1.00  0.00    -0.199 OA 
HETATM    3  C   UNL     2      -9.338  15.955  68.027  1.00  0.00    -0.201 C  
HETATM    4  H   UNL     2      -8.321  17.443  67.307  1.00  0.00     0.000 HD 
HETATM    5  O   UNL     3      -8.297   9.003  68.274  1.00  0.00    -0.119 OA 
HETATM    6  H   UNL     3      -7.834   8.906  67.450  1.00  0.00     0.000 HD 
HETATM    7  C   UNL     3      -9.636   8.474  68.058  1.00  0.00    -0.149 C  
ENDROOT
BRANCH   3   8
HETATM    8  C   UNL     2     -10.138  14.819  67.435  1.00  0.00    -0.231 C  
HETATM    9  H   UNL     2     -10.657  14.254  65.627  1.00  0.00     0.000 HD 
HETATM   10  O   UNL     2     -10.153  14.969  65.998  1.00  0.00    -0.266 OA 
BRANCH   8  11
HETATM   11  C   UNL     2     -11.598  14.693  67.921  1.00  0.00    -0.348 C  
HETATM   12  C   UNL     2     -11.994  13.594  68.875  1.00  0.00    -0.356 C  
HETATM   13  O   UNL     2     -12.283  14.223  66.754  1.00  0.00    -0.441 OA 
HETATM   14  O   UNL     2     -11.989  12.161  65.754  1.00  0.00    -0.536 OA 
HETATM   15  H   UNL     2     -12.347  10.932  69.499  1.00  0.00     0.000 HD 
HETATM   16  O   UNL     2     -12.380  13.917  70.032  1.00  0.00    -0.330 OA 
HETATM   17  C   UNL     2     -12.019  12.884  66.724  1.00  0.00    -0.350 C  
HETATM   18  C   UNL     2     -12.005  12.451  68.149  1.00  0.00    -0.214 C  
HETATM   19  O   UNL     2     -12.355  11.208  68.591  1.00  0.00    -0.549 OA 
ENDBRANCH   8  11
ENDBRANCH   3   8
BRANCH   7  20
HETATM   20  C   UNL     3     -10.384   8.632  69.387  1.00  0.00    -0.218 C  
HETATM   21  O   UNL     3     -10.171   9.938  69.918  1.00  0.00    -0.228 OA 
HETATM   22  H   UNL     3     -10.634  10.036  70.741  1.00  0.00     0.000 HD 
BRANCH  20  23
HETATM   23  C   UNL     3     -10.346   7.527  70.479  1.00  0.00    -0.215 C  
HETATM   24  O   UNL     3      -7.614   5.546  71.263  1.00  0.00    -0.093 OA 
HETATM   25  C   UNL     3      -8.999   7.188  72.318  1.00  0.00    -0.131 C  
HETATM   26  C   UNL     3     -10.151   7.757  71.941  1.00  0.00    -0.182 C  
HETATM   27  O   UNL     3      -8.494   7.127  73.597  1.00  0.00    -0.125 OA 
HETATM   28  O   UNL     3      -9.411   6.482  70.164  1.00  0.00    -0.157 OA 
HETATM   29  C   UNL     3      -8.519   6.363  71.207  1.00  0.00    -0.123 C  
HETATM   30  O   UNL     3     -11.123   8.290  72.524  1.00  0.00    -0.353 OA 
HETATM   31  H   UNL     3      -8.806   7.663  74.317  1.00  0.00     0.000 HD 
ENDBRANCH  20  23
ENDBRANCH   7  20
TORSDOF 4
ENDMDL
MODEL      227
REMARK 921   NORMALIZED FREE ENERGY PREDICTED BY IDOCK:   -4.43 KCAL/MOL
REMARK 922        TOTAL FREE ENERGY PREDICTED BY IDOCK:   -7.40 KCAL/MOL
REMARK 923 INTER-LIGAND FREE ENERGY PREDICTED BY IDOCK:   -6.61 KCAL/MOL
REMARK 924 INTRA-LIGAND FREE ENERGY PREDICTED BY IDOCK:   -0.79 KCAL/MOL
REMARK 927      BINDING AFFINITY PREDICTED BY RF-SCORE:    0.00 PKD
ROOT
HETATM    1 CA   UNL     1      -7.345  12.353  70.092  1.00  0.00    -0.347 Ca 
HETATM    2  O   UNL     2      -8.657   6.918  74.301  1.00  0.00    -0.142 OA 
HETATM    3  C   UNL     2      -8.360   8.202  73.740  1.00  0.00    -0.248 C  
HETATM    4  H   UNL     2      -8.701   7.024  75.244  1.00  0.00     0.000 HD 
HETATM    5  O   UNL     3     -12.387  10.887  68.636  1.00  0.00    -0.805 OA 
HETATM    6  H   UNL     3     -12.987  10.157  68.539  1.00  0.00     0.000 HD 
HETATM    7  C   UNL     3     -11.502  10.848  67.480  1.00  0.00    -0.152 C  
ENDROOT
BRANCH   3   8
HETATM    8  C   UNL     2      -8.290   8.033  72.240  1.00  0.00    -0.144 C  
HETATM    9  H   UNL     2      -8.586   6.560  70.975  1.00  0.00     0.000 HD 
HETATM   10  O   UNL     2      -8.630   6.667  71.918  1.00  0.00    -0.124 OA 
BRANCH   8  11
HETATM   11  C   UNL     2      -6.932   8.359  71.584  1.00  0.00    -0.086 C  
HETATM   12  C   UNL     2      -6.748   9.635  70.801  1.00  0.00    -0.094 C  
HETATM   13  O   UNL     2      -6.872   7.428  70.497  1.00  0.00    -0.050 OA 
HETATM   14  O   UNL     2      -8.251   7.427  68.642  1.00  0.00    -0.123 OA 
HETATM   15  H   UNL     2      -7.328  11.276  68.663  1.00  0.00     0.000 HD 
HETATM   16  O   UNL     2      -5.942  10.497  71.245  1.00  0.00    -0.318 OA 
HETATM   17  C   UNL     2      -7.648   7.994  69.526  1.00  0.00    -0.101 C  
HETATM   18  C   UNL     2      -7.412   9.460  69.634  1.00  0.00    -0.084 C  
HETATM   19  O   UNL     2      -7.478  10.341  68.594  1.00  0.00    -0.080 OA 
ENDBRANCH   8  11
ENDBRANCH   3   8
BRANCH   7  20
HETATM   20  C   UNL     3     -10.531  12.025  67.637  1.00  0.00    -0.205 C  
HETATM   21  O   UNL     3     -10.719  12.649  68.906  1.00  0.00    -0.315 OA 
HETATM   22  H   UNL     3     -10.118  13.378  69.003  1.00  0.00     0.000 HD 
BRANCH  20  23
HETATM   23  C   UNL     3     -10.303  13.050  66.491  1.00  0.00    -0.274 C  
HETATM   24  O   UNL     3     -10.181  12.313  63.108  1.00  0.00    -0.347 OA 
HETATM   25  C   UNL     3     -11.524  13.598  64.615  1.00  0.00    -0.365 C  
HETATM   26  C   UNL     3     -11.348  13.936  65.898  1.00  0.00    -0.313 C  
HETATM   27  O   UNL     3     -12.355  14.219  63.710  1.00  0.00    -0.956 OA 
HETATM   28  O   UNL     3      -9.662  12.456  65.349  1.00  0.00    -0.217 OA 
HETATM   29  C   UNL     3     -10.455  12.669  64.243  1.00  0.00    -0.392 C  
HETATM   30  O   UNL     3     -11.734  14.866  66.644  1.00  0.00    -0.325 OA 
HETATM   31  H   UNL     3     -13.049  14.822  63.952  1.00  0.00     0.000 HD 
ENDBRANCH  20  23
ENDBRANCH   7  20
TORSDOF 4
ENDMDL
MODEL      228
REMARK 921   NORMALIZED FREE ENERGY PREDICTED BY IDOCK:   -4.42 KCAL/MOL
REMARK 922        TOTAL FREE ENERGY PREDICTED BY IDOCK:   -7.38 KCAL/MOL
REMARK 923 INTER-LIGAND FREE ENERGY PREDICTED BY IDOCK:   -6.51 KCAL/MOL
REMARK 924 INTRA-LIGAND FREE ENERGY PREDICTED BY IDOCK:   -0.87 KCAL/MOL
REMARK 927      BINDING AFFINITY PREDICTED BY RF-SCORE:    0.00 PKD
ROOT
HETATM    1 CA   UNL     1     -11.499  13.618  70.019  1.00  0.00    -0.239 Ca 
HETATM    2  O   UNL     2      -7.965  18.866  67.028  1.00  0.00    -0.244 OA 
HETATM    3  C   UNL     2      -8.645  17.982  67.927  1.00  0.00    -0.257 C  
HETATM    4  H   UNL     2      -7.630  19.591  67.542  1.00  0.00     0.000 HD 
HETATM    5  O   UNL     3      -7.052  11.133  68.087  1.00  0.00    -0.067 OA 
HETATM    6  H   UNL     3      -6.402  11.128  67.394  1.00  0.00     0.000 HD 
HETATM    7  C   UNL     3      -8.249  10.516  67.534  1.00  0.00    -0.114 C  
ENDROOT
BRANCH   3   8
HETATM    8  C   UNL     2      -9.177  16.829  67.109  1.00  0.00    -0.224 C  
HETATM    9  H   UNL     2      -9.122  16.303  65.217  1.00  0.00     0.000 HD 
HETATM   10  O   UNL     2      -8.787  17.028  65.732  1.00  0.00    -0.523 OA 
BRANCH   8  11
HETATM   11  C   UNL     2     -10.705  16.615  67.151  1.00  0.00    -0.202 C  
HETATM   12  C   UNL     2     -11.295  15.469  67.933  1.00  0.00    -0.308 C  
HETATM   13  O   UNL     2     -10.998  16.149  65.829  1.00  0.00    -0.230 OA 
HETATM   14  O   UNL     2     -10.313  14.137  64.924  1.00  0.00    -0.411 OA 
HETATM   15  H   UNL     2     -11.659  12.774  68.387  1.00  0.00     0.000 HD 
HETATM   16  O   UNL     2     -12.014  15.735  68.934  1.00  0.00    -0.382 OA 
HETATM   17  C   UNL     2     -10.660  14.826  65.856  1.00  0.00    -0.314 C  
HETATM   18  C   UNL     2     -11.032  14.350  67.217  1.00  0.00    -0.297 C  
HETATM   19  O   UNL     2     -11.422  13.078  67.520  1.00  0.00    -0.289 OA 
ENDBRANCH   8  11
ENDBRANCH   3   8
BRANCH   7  20
HETATM   20  C   UNL     3      -9.298  10.524  68.652  1.00  0.00    -0.172 C  
HETATM   21  O   UNL     3      -8.665  10.712  69.916  1.00  0.00    -0.346 OA 
HETATM   22  H   UNL     3      -9.315  10.717  70.609  1.00  0.00     0.000 HD 
BRANCH  20  23
HETATM   23  C   UNL     3     -10.441   9.473  68.703  1.00  0.00    -0.211 C  
HETATM   24  O   UNL     3     -10.650   6.611  66.762  1.00  0.00    -0.263 OA 
HETATM   25  C   UNL     3     -10.461   7.198  69.074  1.00  0.00    -0.211 C  
HETATM   26  C   UNL     3     -10.566   8.374  69.705  1.00  0.00    -0.221 C  
HETATM   27  O   UNL     3     -10.585   5.949  69.639  1.00  0.00    -0.249 OA 
HETATM   28  O   UNL     3     -10.632   8.814  67.439  1.00  0.00    -0.279 OA 
HETATM   29  C   UNL     3     -10.514   7.454  67.633  1.00  0.00    -0.241 C  
HETATM   30  O   UNL     3     -10.868   8.748  70.862  1.00  0.00    -0.217 OA 
HETATM   31  H   UNL     3     -10.551   5.784  70.574  1.00  0.00     0.000 HD 
ENDBRANCH  20  23
ENDBRANCH   7  20
TORSDOF 4
ENDMDL
MODEL      229
REMARK 921   NORMALIZED FREE ENERGY PREDICTED BY IDOCK:   -4.42 KCAL/MOL
REMARK 922        TOTAL FREE ENERGY PREDICTED BY IDOCK:   -7.37 KCAL/MOL
REMARK 923 INTER-LIGAND FREE ENERGY PREDICTED BY IDOCK:   -6.57 KCAL/MOL
REMARK 924 INTRA-LIGAND FREE ENERGY PREDICTED BY IDOCK:   -0.81 KCAL/MOL
REMARK 927      BINDING AFFINITY PREDICTED BY RF-SCORE:    0.00 PKD
ROOT
HETATM    1 CA   UNL     1     -11.662  14.885  64.887  1.00  0.00    -0.325 Ca 
HETATM    2  O   UNL     2      -9.617   8.553  67.054  1.00  0.00    -0.162 OA 
HETATM    3  C   UNL     2      -9.801   9.793  66.361  1.00  0.00    -0.235 C  
HETATM    4  H   UNL     2      -8.922   8.081  66.611  1.00  0.00     0.000 HD 
HETATM    5  O   UNL     3      -9.681  15.892  69.861  1.00  0.00    -0.207 OA 
HETATM    6  H   UNL     3      -9.563  15.544  70.737  1.00  0.00     0.000 HD 
HETATM    7  C   UNL     3     -11.066  16.334  69.776  1.00  0.00    -0.337 C  
ENDROOT
BRANCH   3   8
HETATM    8  C   UNL     2     -10.905  10.544  67.067  1.00  0.00    -0.225 C  
HETATM    9  H   UNL     2     -12.066  12.070  66.638  1.00  0.00     0.000 HD 
HETATM   10  O   UNL     2     -11.372  11.597  66.194  1.00  0.00    -0.303 OA 
BRANCH   8  11
HETATM   11  C   UNL     2     -10.535  11.175  68.426  1.00  0.00    -0.188 C  
HETATM   12  C   UNL     2     -10.393  12.670  68.561  1.00  0.00    -0.221 C  
HETATM   13  O   UNL     2      -9.158  10.812  68.581  1.00  0.00    -0.158 OA 
HETATM   14  O   UNL     2      -7.408  11.564  67.274  1.00  0.00    -0.114 OA 
HETATM   15  H   UNL     2      -9.144  15.054  67.962  1.00  0.00     0.000 HD 
HETATM   16  O   UNL     2     -11.213  13.284  69.297  1.00  0.00    -0.253 OA 
HETATM   17  C   UNL     2      -8.483  11.714  67.809  1.00  0.00    -0.144 C  
HETATM   18  C   UNL     2      -9.228  12.994  67.952  1.00  0.00    -0.208 C  
HETATM   19  O   UNL     2      -8.669  14.237  67.871  1.00  0.00    -0.162 OA 
ENDBRANCH   8  11
ENDBRANCH   3   8
BRANCH   7  20
HETATM   20  C   UNL     3     -11.257  16.896  68.362  1.00  0.00    -0.109 C  
HETATM   21  O   UNL     3     -10.970  15.890  67.393  1.00  0.00    -0.318 OA 
HETATM   22  H   UNL     3     -11.088  16.238  66.517  1.00  0.00     0.000 HD 
BRANCH  20  23
HETATM   23  C   UNL     3     -10.706  18.292  67.960  1.00  0.00    -0.266 C  
HETATM   24  O   UNL     3      -7.756  19.710  69.094  1.00  0.00    -0.339 OA 
HETATM   25  C   UNL     3      -8.714  18.980  67.026  1.00  0.00    -0.294 C  
HETATM   26  C   UNL     3      -9.958  18.602  66.706  1.00  0.00    -0.352 C  
HETATM   27  O   UNL     3      -7.736  19.405  66.156  1.00  0.00    -0.282 OA 
HETATM   28  O   UNL     3      -9.904  18.881  68.997  1.00  0.00    -0.382 OA 
HETATM   29  C   UNL     3      -8.662  19.176  68.477  1.00  0.00    -0.365 C  
HETATM   30  O   UNL     3     -10.649  18.581  65.662  1.00  0.00    -0.616 OA 
HETATM   31  H   UNL     3      -7.770  19.278  65.215  1.00  0.00     0.000 HD 
ENDBRANCH  20  23
ENDBRANCH   7  20
TORSDOF 4
ENDMDL
MODEL      230
REMARK 921   NORMALIZED FREE ENERGY PREDICTED BY IDOCK:   -4.40 KCAL/MOL
REMARK 922        TOTAL FREE ENERGY PREDICTED BY IDOCK:   -7.35 KCAL/MOL
REMARK 923 INTER-LIGAND FREE ENERGY PREDICTED BY IDOCK:   -6.65 KCAL/MOL
REMARK 924 INTRA-LIGAND FREE ENERGY PREDICTED BY IDOCK:   -0.71 KCAL/MOL
REMARK 927      BINDING AFFINITY PREDICTED BY RF-SCORE:    0.00 PKD
ROOT
HETATM    1 CA   UNL     1      -7.416  13.139  68.962  1.00  0.00    -0.099 Ca 
HETATM    2  O   UNL     2     -11.160  17.281  64.743  1.00  0.00    -0.954 OA 
HETATM    3  C   UNL     2     -10.167  16.442  65.343  1.00  0.00    -0.189 C  
HETATM    4  H   UNL     2     -10.855  17.503  63.871  1.00  0.00     0.000 HD 
HETATM    5  O   UNL     3     -11.950  10.235  68.131  1.00  0.00    -0.692 OA 
HETATM    6  H   UNL     3     -12.887  10.281  67.978  1.00  0.00     0.000 HD 
HETATM    7  C   UNL     3     -11.755  10.460  69.557  1.00  0.00    -0.188 C  
ENDROOT
BRANCH   3   8
HETATM    8  C   UNL     2     -10.654  16.089  66.730  1.00  0.00    -0.297 C  
HETATM    9  H   UNL     2     -12.205  15.143  67.478  1.00  0.00     0.000 HD 
HETATM   10  O   UNL     2     -11.899  15.365  66.606  1.00  0.00     0.029 OA 
BRANCH   8  11
HETATM   11  C   UNL     2     -10.881  17.275  67.691  1.00  0.00    -0.238 C  
HETATM   12  C   UNL     2     -10.084  18.546  67.537  1.00  0.00    -0.357 C  
HETATM   13  O   UNL     2     -10.305  16.806  68.916  1.00  0.00    -0.276 OA 
HETATM   14  O   UNL     2      -8.062  16.386  69.281  1.00  0.00    -0.228 OA 
HETATM   15  H   UNL     2      -7.706  19.940  67.575  1.00  0.00     0.000 HD 
HETATM   16  O   UNL     2     -10.698  19.601  67.218  1.00  0.00    -0.474 OA 
HETATM   17  C   UNL     2      -8.963  16.999  68.753  1.00  0.00    -0.249 C  
HETATM   18  C   UNL     2      -8.836  18.264  67.978  1.00  0.00    -0.280 C  
HETATM   19  O   UNL     2      -7.787  19.133  68.068  1.00  0.00    -0.273 OA 
ENDBRANCH   8  11
ENDBRANCH   3   8
BRANCH   7  20
HETATM   20  C   UNL     3     -10.244  10.386  69.805  1.00  0.00    -0.184 C  
HETATM   21  O   UNL     3      -9.612  11.575  69.334  1.00  0.00    -0.372 OA 
HETATM   22  H   UNL     3      -8.675  11.529  69.488  1.00  0.00     0.000 HD 
BRANCH  20  23
HETATM   23  C   UNL     3      -9.428   9.104  69.483  1.00  0.00    -0.168 C  
HETATM   24  O   UNL     3     -10.652   5.863  69.507  1.00  0.00    -0.244 OA 
HETATM   25  C   UNL     3      -9.712   7.412  67.944  1.00  0.00    -0.143 C  
HETATM   26  C   UNL     3      -9.112   8.596  68.115  1.00  0.00    -0.141 C  
HETATM   27  O   UNL     3      -9.615   6.595  66.841  1.00  0.00    -0.146 OA 
HETATM   28  O   UNL     3      -9.932   7.949  70.174  1.00  0.00    -0.188 OA 
HETATM   29  C   UNL     3     -10.229   6.977  69.243  1.00  0.00    -0.186 C  
HETATM   30  O   UNL     3      -8.276   9.280  67.480  1.00  0.00    -0.113 OA 
HETATM   31  H   UNL     3      -9.279   6.878  65.998  1.00  0.00     0.000 HD 
ENDBRANCH  20  23
ENDBRANCH   7  20
TORSDOF 4
ENDMDL
MODEL      231
REMARK 921   NORMALIZED FREE ENERGY PREDICTED BY IDOCK:   -4.39 KCAL/MOL
REMARK 922        TOTAL FREE ENERGY PREDICTED BY IDOCK:   -7.34 KCAL/MOL
REMARK 923 INTER-LIGAND FREE ENERGY PREDICTED BY IDOCK:   -6.13 KCAL/MOL
REMARK 924 INTRA-LIGAND FREE ENERGY PREDICTED BY IDOCK:   -1.22 KCAL/MOL
REMARK 927      BINDING AFFINITY PREDICTED BY RF-SCORE:    0.00 PKD
ROOT
HETATM    1 CA   UNL     1      -8.520  12.084  65.684  1.00  0.00    -0.347 Ca 
HETATM    2  O   UNL     2      -8.587   7.155  70.652  1.00  0.00    -0.140 OA 
HETATM    3  C   UNL     2      -8.310   7.975  69.510  1.00  0.00    -0.127 C  
HETATM    4  H   UNL     2      -7.946   6.453  70.659  1.00  0.00     0.000 HD 
HETATM    5  O   UNL     3      -7.497  14.925  70.219  1.00  0.00    -0.272 OA 
HETATM    6  H   UNL     3      -7.661  14.987  71.153  1.00  0.00     0.000 HD 
HETATM    7  C   UNL     3      -8.681  15.452  69.556  1.00  0.00    -0.210 C  
ENDROOT
BRANCH   3   8
HETATM    8  C   UNL     2      -9.328   9.091  69.500  1.00  0.00    -0.160 C  
HETATM    9  H   UNL     2     -10.349  10.077  70.858  1.00  0.00     0.000 HD 
HETATM   10  O   UNL     2      -9.708   9.376  70.864  1.00  0.00    -0.272 OA 
BRANCH   8  11
HETATM   11  C   UNL     2     -10.614   8.828  68.687  1.00  0.00    -0.139 C  
HETATM   12  C   UNL     2     -10.539   8.565  67.204  1.00  0.00    -0.243 C  
HETATM   13  O   UNL     2     -11.234  10.118  68.647  1.00  0.00    -0.230 OA 
HETATM   14  O   UNL     2     -10.413  11.980  67.552  1.00  0.00    -0.207 OA 
HETATM   15  H   UNL     2      -9.966   9.353  64.625  1.00  0.00     0.000 HD 
HETATM   16  O   UNL     2     -10.882   7.428  66.781  1.00  0.00    -0.303 OA 
HETATM   17  C   UNL     2     -10.566  10.784  67.660  1.00  0.00    -0.231 C  
HETATM   18  C   UNL     2     -10.266   9.758  66.624  1.00  0.00    -0.226 C  
HETATM   19  O   UNL     2     -10.157  10.007  65.286  1.00  0.00    -0.321 OA 
ENDBRANCH   8  11
ENDBRANCH   3   8
BRANCH   7  20
HETATM   20  C   UNL     3      -8.415  15.353  68.049  1.00  0.00    -0.146 C  
HETATM   21  O   UNL     3      -7.128  15.886  67.742  1.00  0.00    -0.125 OA 
HETATM   22  H   UNL     3      -6.963  15.824  66.809  1.00  0.00     0.000 HD 
BRANCH  20  23
HETATM   23  C   UNL     3      -9.494  15.750  67.004  1.00  0.00    -0.223 C  
HETATM   24  O   UNL     3     -10.307  13.961  64.151  1.00  0.00    -0.204 OA 
HETATM   25  C   UNL     3     -11.354  14.663  66.185  1.00  0.00    -0.350 C  
HETATM   26  C   UNL     3     -10.962  15.515  67.141  1.00  0.00    -0.295 C  
HETATM   27  O   UNL     3     -12.642  14.245  65.937  1.00  0.00    -0.450 OA 
HETATM   28  O   UNL     3      -9.185  15.260  65.689  1.00  0.00    -0.231 OA 
HETATM   29  C   UNL     3     -10.244  14.499  65.245  1.00  0.00    -0.402 C  
HETATM   30  O   UNL     3     -11.533  16.233  67.993  1.00  0.00    -0.272 OA 
HETATM   31  H   UNL     3     -13.363  14.352  66.547  1.00  0.00     0.000 HD 
ENDBRANCH  20  23
ENDBRANCH   7  20
TORSDOF 4
ENDMDL
MODEL      232
REMARK 921   NORMALIZED FREE ENERGY PREDICTED BY IDOCK:   -4.39 KCAL/MOL
REMARK 922        TOTAL FREE ENERGY PREDICTED BY IDOCK:   -7.34 KCAL/MOL
REMARK 923 INTER-LIGAND FREE ENERGY PREDICTED BY IDOCK:   -6.88 KCAL/MOL
REMARK 924 INTRA-LIGAND FREE ENERGY PREDICTED BY IDOCK:   -0.46 KCAL/MOL
REMARK 927      BINDING AFFINITY PREDICTED BY RF-SCORE:    0.00 PKD
ROOT
HETATM    1 CA   UNL     1      -7.907  10.057  71.289  1.00  0.00    -0.057 Ca 
HETATM    2  O   UNL     2      -9.256  11.190  64.516  1.00  0.00    -0.286 OA 
HETATM    3  C   UNL     2      -8.677  10.842  65.779  1.00  0.00    -0.186 C  
HETATM    4  H   UNL     2      -8.634  10.944  63.841  1.00  0.00     0.000 HD 
HETATM    5  O   UNL     3     -12.251   6.897  70.376  1.00  0.00    -0.600 OA 
HETATM    6  H   UNL     3     -13.055   6.804  69.880  1.00  0.00     0.000 HD 
HETATM    7  C   UNL     3     -12.535   7.839  71.450  1.00  0.00    -0.320 C  
ENDROOT
BRANCH   3   8
HETATM    8  C   UNL     2      -9.666  11.233  66.851  1.00  0.00    -0.192 C  
HETATM    9  H   UNL     2     -10.119  10.589  68.651  1.00  0.00     0.000 HD 
HETATM   10  O   UNL     2      -9.497  10.343  67.977  1.00  0.00    -0.141 OA 
BRANCH   8  11
HETATM   11  C   UNL     2     -11.154  11.212  66.442  1.00  0.00    -0.138 C  
HETATM   12  C   UNL     2     -11.772  12.399  65.745  1.00  0.00    -0.414 C  
HETATM   13  O   UNL     2     -11.833  11.322  67.698  1.00  0.00    -0.614 OA 
HETATM   14  O   UNL     2     -11.802  13.163  69.094  1.00  0.00    -0.294 OA 
HETATM   15  H   UNL     2     -12.568  15.038  65.693  1.00  0.00     0.000 HD 
HETATM   16  O   UNL     2     -12.171  12.254  64.558  1.00  0.00    -0.410 OA 
HETATM   17  C   UNL     2     -11.777  12.653  67.996  1.00  0.00    -0.350 C  
HETATM   18  C   UNL     2     -11.916  13.357  66.691  1.00  0.00    -0.399 C  
HETATM   19  O   UNL     2     -12.479  14.589  66.524  1.00  0.00    -0.294 OA 
ENDBRANCH   8  11
ENDBRANCH   3   8
BRANCH   7  20
HETATM   20  C   UNL     3     -11.237   7.989  72.251  1.00  0.00    -0.341 C  
HETATM   21  O   UNL     3     -10.481   9.093  71.756  1.00  0.00    -0.352 OA 
HETATM   22  H   UNL     3      -9.676   9.186  72.253  1.00  0.00     0.000 HD 
BRANCH  20  23
HETATM   23  C   UNL     3     -10.350   6.763  72.602  1.00  0.00    -0.201 C  
HETATM   24  O   UNL     3     -11.500   3.600  73.423  1.00  0.00    -0.191 OA 
HETATM   25  C   UNL     3     -10.189   4.642  71.714  1.00  0.00    -0.172 C  
HETATM   26  C   UNL     3      -9.670   5.872  71.616  1.00  0.00    -0.160 C  
HETATM   27  O   UNL     3      -9.788   3.525  71.018  1.00  0.00    -0.171 OA 
HETATM   28  O   UNL     3     -11.011   5.851  73.495  1.00  0.00    -0.250 OA 
HETATM   29  C   UNL     3     -11.034   4.603  72.910  1.00  0.00    -0.210 C  
HETATM   30  O   UNL     3      -8.701   6.393  71.017  1.00  0.00    -0.134 OA 
HETATM   31  H   UNL     3      -9.239   3.550  70.242  1.00  0.00     0.000 HD 
ENDBRANCH  20  23
ENDBRANCH   7  20
TORSDOF 4
ENDMDL
MODEL      233
REMARK 921   NORMALIZED FREE ENERGY PREDICTED BY IDOCK:   -4.38 KCAL/MOL
REMARK 922        TOTAL FREE ENERGY PREDICTED BY IDOCK:   -7.33 KCAL/MOL
REMARK 923 INTER-LIGAND FREE ENERGY PREDICTED BY IDOCK:   -5.83 KCAL/MOL
REMARK 924 INTRA-LIGAND FREE ENERGY PREDICTED BY IDOCK:   -1.49 KCAL/MOL
REMARK 927      BINDING AFFINITY PREDICTED BY RF-SCORE:    0.00 PKD
ROOT
HETATM    1 CA   UNL     1      -9.236  14.538  65.194  1.00  0.00    -0.466 Ca 
HETATM    2  O   UNL     2      -7.232  20.982  67.044  1.00  0.00    -0.477 OA 
HETATM    3  C   UNL     2      -7.959  19.804  66.678  1.00  0.00    -0.310 C  
HETATM    4  H   UNL     2      -7.868  21.667  67.214  1.00  0.00     0.000 HD 
HETATM    5  O   UNL     3      -6.786  13.712  69.991  1.00  0.00    -0.358 OA 
HETATM    6  H   UNL     3      -6.093  14.003  70.571  1.00  0.00     0.000 HD 
HETATM    7  C   UNL     3      -6.148  12.907  68.959  1.00  0.00    -0.089 C  
ENDROOT
BRANCH   3   8
HETATM    8  C   UNL     2      -6.947  18.716  66.407  1.00  0.00    -0.226 C  
HETATM    9  H   UNL     2      -5.496  18.434  65.113  1.00  0.00     0.000 HD 
HETATM   10  O   UNL     2      -6.133  19.118  65.283  1.00  0.00    -0.219 OA 
BRANCH   8  11
HETATM   11  C   UNL     2      -7.521  17.315  66.108  1.00  0.00    -0.286 C  
HETATM   12  C   UNL     2      -8.890  16.928  66.609  1.00  0.00    -0.246 C  
HETATM   13  O   UNL     2      -6.735  16.462  66.948  1.00  0.00    -0.198 OA 
HETATM   14  O   UNL     2      -6.758  16.447  69.259  1.00  0.00    -0.192 OA 
HETATM   15  H   UNL     2     -10.669  16.400  68.648  1.00  0.00     0.000 HD 
HETATM   16  O   UNL     2      -9.796  16.707  65.760  1.00  0.00    -0.482 OA 
HETATM   17  C   UNL     2      -7.298  16.595  68.185  1.00  0.00    -0.170 C  
HETATM   18  C   UNL     2      -8.760  16.728  67.942  1.00  0.00    -0.203 C  
HETATM   19  O   UNL     2      -9.736  16.316  68.803  1.00  0.00    -0.220 OA 
ENDBRANCH   8  11
ENDBRANCH   3   8
BRANCH   7  20
HETATM   20  C   UNL     3      -7.266  12.436  68.021  1.00  0.00    -0.105 C  
HETATM   21  O   UNL     3      -7.659  13.499  67.155  1.00  0.00    -0.349 OA 
HETATM   22  H   UNL     3      -8.352  13.207  66.574  1.00  0.00     0.000 HD 
BRANCH  20  23
HETATM   23  C   UNL     3      -8.474  11.610  68.546  1.00  0.00    -0.135 C  
HETATM   24  O   UNL     3     -10.504   9.554  66.635  1.00  0.00    -0.231 OA 
HETATM   25  C   UNL     3      -8.984   9.364  68.473  1.00  0.00    -0.128 C  
HETATM   26  C   UNL     3      -8.388  10.290  69.236  1.00  0.00    -0.163 C  
HETATM   27  O   UNL     3      -9.168   8.037  68.788  1.00  0.00    -0.144 OA 
HETATM   28  O   UNL     3      -9.476  11.410  67.535  1.00  0.00    -0.165 OA 
HETATM   29  C   UNL     3      -9.692  10.057  67.395  1.00  0.00    -0.161 C  
HETATM   30  O   UNL     3      -7.922  10.332  70.397  1.00  0.00    -0.111 OA 
HETATM   31  H   UNL     3      -8.708   7.588  69.488  1.00  0.00     0.000 HD 
ENDBRANCH  20  23
ENDBRANCH   7  20
TORSDOF 4
ENDMDL
MODEL      234
REMARK 921   NORMALIZED FREE ENERGY PREDICTED BY IDOCK:   -4.37 KCAL/MOL
REMARK 922        TOTAL FREE ENERGY PREDICTED BY IDOCK:   -7.31 KCAL/MOL
REMARK 923 INTER-LIGAND FREE ENERGY PREDICTED BY IDOCK:   -5.69 KCAL/MOL
REMARK 924 INTRA-LIGAND FREE ENERGY PREDICTED BY IDOCK:   -1.62 KCAL/MOL
REMARK 927      BINDING AFFINITY PREDICTED BY RF-SCORE:    0.00 PKD
ROOT
HETATM    1 CA   UNL     1     -11.988   5.911  69.059  1.00  0.00    -0.318 Ca 
HETATM    2  O   UNL     2     -13.162  11.930  72.430  1.00  0.00    -0.518 OA 
HETATM    3  C   UNL     2     -13.246  10.626  71.843  1.00  0.00    -0.423 C  
HETATM    4  H   UNL     2     -13.976  12.084  72.895  1.00  0.00     0.000 HD 
HETATM    5  O   UNL     3      -8.166   5.886  72.942  1.00  0.00    -0.117 OA 
HETATM    6  H   UNL     3      -7.588   6.426  73.469  1.00  0.00     0.000 HD 
HETATM    7  C   UNL     3      -7.546   5.776  71.630  1.00  0.00    -0.099 C  
ENDROOT
BRANCH   3   8
HETATM    8  C   UNL     2     -11.951  10.381  71.104  1.00  0.00    -0.362 C  
HETATM    9  H   UNL     2     -11.100  11.095  69.484  1.00  0.00     0.000 HD 
HETATM   10  O   UNL     2     -11.914  11.249  69.949  1.00  0.00    -0.306 OA 
BRANCH   8  11
HETATM   11  C   UNL     2     -11.706   8.934  70.626  1.00  0.00    -0.179 C  
HETATM   12  C   UNL     2     -11.989   7.769  71.541  1.00  0.00    -0.300 C  
HETATM   13  O   UNL     2     -10.277   8.846  70.597  1.00  0.00    -0.193 OA 
HETATM   14  O   UNL     2      -8.882   8.927  72.437  1.00  0.00    -0.396 OA 
HETATM   15  H   UNL     2     -11.500   6.303  73.824  1.00  0.00     0.000 HD 
HETATM   16  O   UNL     2     -12.910   6.969  71.223  1.00  0.00    -0.377 OA 
HETATM   17  C   UNL     2      -9.927   8.635  71.900  1.00  0.00    -0.322 C  
HETATM   18  C   UNL     2     -10.996   7.766  72.463  1.00  0.00    -0.338 C  
HETATM   19  O   UNL     2     -10.818   6.857  73.465  1.00  0.00    -0.315 OA 
ENDBRANCH   8  11
ENDBRANCH   3   8
BRANCH   7  20
HETATM   20  C   UNL     3      -8.478   4.906  70.780  1.00  0.00    -0.110 C  
HETATM   21  O   UNL     3      -8.778   3.692  71.467  1.00  0.00    -0.088 OA 
HETATM   22  H   UNL     3      -9.356   3.153  70.941  1.00  0.00     0.000 HD 
BRANCH  20  23
HETATM   23  C   UNL     3      -8.231   4.690  69.261  1.00  0.00    -0.076 C  
HETATM   24  O   UNL     3     -10.645   4.802  66.779  1.00  0.00    -0.193 OA 
HETATM   25  C   UNL     3      -8.663   5.987  67.405  1.00  0.00    -0.104 C  
HETATM   26  C   UNL     3      -7.714   5.719  68.311  1.00  0.00    -0.093 C  
HETATM   27  O   UNL     3      -8.552   6.835  66.327  1.00  0.00    -0.127 OA 
HETATM   28  O   UNL     3      -9.383   4.148  68.593  1.00  0.00    -0.135 OA 
HETATM   29  C   UNL     3      -9.726   4.991  67.559  1.00  0.00    -0.157 C  
HETATM   30  O   UNL     3      -6.506   6.013  68.459  1.00  0.00    -0.044 OA 
HETATM   31  H   UNL     3      -7.861   7.480  66.227  1.00  0.00     0.000 HD 
ENDBRANCH  20  23
ENDBRANCH   7  20
TORSDOF 4
ENDMDL
MODEL      235
REMARK 921   NORMALIZED FREE ENERGY PREDICTED BY IDOCK:   -4.37 KCAL/MOL
REMARK 922        TOTAL FREE ENERGY PREDICTED BY IDOCK:   -7.31 KCAL/MOL
REMARK 923 INTER-LIGAND FREE ENERGY PREDICTED BY IDOCK:   -6.79 KCAL/MOL
REMARK 924 INTRA-LIGAND FREE ENERGY PREDICTED BY IDOCK:   -0.52 KCAL/MOL
REMARK 927      BINDING AFFINITY PREDICTED BY RF-SCORE:    0.00 PKD
ROOT
HETATM    1 CA   UNL     1     -10.653  11.777  70.286  1.00  0.00    -0.442 Ca 
HETATM    2  O   UNL     2      -8.361  16.704  65.876  1.00  0.00    -0.430 OA 
HETATM    3  C   UNL     2      -8.610  15.850  66.999  1.00  0.00    -0.216 C  
HETATM    4  H   UNL     2      -7.687  17.322  66.134  1.00  0.00     0.000 HD 
HETATM    5  O   UNL     3      -8.385   8.857  66.284  1.00  0.00    -0.111 OA 
HETATM    6  H   UNL     3      -8.206   8.821  65.352  1.00  0.00     0.000 HD 
HETATM    7  C   UNL     3      -9.780   8.476  66.451  1.00  0.00    -0.258 C  
ENDROOT
BRANCH   3   8
HETATM    8  C   UNL     2      -9.682  14.868  66.588  1.00  0.00    -0.261 C  
HETATM    9  H   UNL     2      -9.903  12.917  66.655  1.00  0.00     0.000 HD 
HETATM   10  O   UNL     2      -9.229  13.535  66.914  1.00  0.00    -0.237 OA 
BRANCH   8  11
HETATM   11  C   UNL     2     -10.086  14.888  65.098  1.00  0.00    -0.319 C  
HETATM   12  C   UNL     2     -11.460  15.353  64.686  1.00  0.00    -0.337 C  
HETATM   13  O   UNL     2     -10.225  13.498  64.787  1.00  0.00    -0.379 OA 
HETATM   14  O   UNL     2     -11.833  12.076  65.643  1.00  0.00    -0.428 OA 
HETATM   15  H   UNL     2     -14.204  15.087  64.652  1.00  0.00     0.000 HD 
HETATM   16  O   UNL     2     -11.553  16.406  63.998  1.00  0.00    -1.071 OA 
HETATM   17  C   UNL     2     -11.457  13.165  65.272  1.00  0.00    -0.301 C  
HETATM   18  C   UNL     2     -12.313  14.360  65.032  1.00  0.00    -0.396 C  
HETATM   19  O   UNL     2     -13.658  14.325  64.806  1.00  0.00     0.327 OA 
ENDBRANCH   8  11
ENDBRANCH   3   8
BRANCH   7  20
HETATM   20  C   UNL     3     -10.069   8.534  67.956  1.00  0.00    -0.200 C  
HETATM   21  O   UNL     3     -11.264   9.274  68.197  1.00  0.00    -0.493 OA 
HETATM   22  H   UNL     3     -11.443   9.310  69.130  1.00  0.00     0.000 HD 
BRANCH  20  23
HETATM   23  C   UNL     3      -8.950   8.846  68.988  1.00  0.00    -0.137 C  
HETATM   24  O   UNL     3      -9.297   8.781  72.434  1.00  0.00    -0.331 OA 
HETATM   25  C   UNL     3      -8.053   7.642  70.737  1.00  0.00    -0.103 C  
HETATM   26  C   UNL     3      -7.889   7.895  69.432  1.00  0.00    -0.114 C  
HETATM   27  O   UNL     3      -7.242   6.863  71.530  1.00  0.00    -0.077 OA 
HETATM   28  O   UNL     3      -9.475   9.379  70.215  1.00  0.00    -0.215 OA 
HETATM   29  C   UNL     3      -9.047   8.584  71.256  1.00  0.00    -0.196 C  
HETATM   30  O   UNL     3      -7.015   7.642  68.572  1.00  0.00    -0.067 OA 
HETATM   31  H   UNL     3      -6.597   6.252  71.192  1.00  0.00     0.000 HD 
ENDBRANCH  20  23
ENDBRANCH   7  20
TORSDOF 4
ENDMDL
MODEL      236
REMARK 921   NORMALIZED FREE ENERGY PREDICTED BY IDOCK:   -4.36 KCAL/MOL
REMARK 922        TOTAL FREE ENERGY PREDICTED BY IDOCK:   -7.31 KCAL/MOL
REMARK 923 INTER-LIGAND FREE ENERGY PREDICTED BY IDOCK:   -6.10 KCAL/MOL
REMARK 924 INTRA-LIGAND FREE ENERGY PREDICTED BY IDOCK:   -1.21 KCAL/MOL
REMARK 927      BINDING AFFINITY PREDICTED BY RF-SCORE:    0.00 PKD
ROOT
HETATM    1 CA   UNL     1     -12.249   6.653  70.468  1.00  0.00    -0.317 Ca 
HETATM    2  O   UNL     2      -7.401   2.987  67.001  1.00  0.00    -0.061 OA 
HETATM    3  C   UNL     2      -8.608   3.501  67.574  1.00  0.00    -0.101 C  
HETATM    4  H   UNL     2      -7.639   2.248  66.454  1.00  0.00     0.000 HD 
HETATM    5  O   UNL     3     -10.205  10.328  67.003  1.00  0.00    -0.207 OA 
HETATM    6  H   UNL     3      -9.426  10.611  66.540  1.00  0.00     0.000 HD 
HETATM    7  C   UNL     3     -10.067  10.802  68.373  1.00  0.00    -0.169 C  
ENDROOT
BRANCH   3   8
HETATM    8  C   UNL     2      -8.229   4.677  68.444  1.00  0.00    -0.083 C  
HETATM    9  H   UNL     2      -7.063   6.247  68.257  1.00  0.00     0.000 HD 
HETATM   10  O   UNL     2      -7.302   5.508  67.710  1.00  0.00    -0.074 OA 
BRANCH   8  11
HETATM   11  C   UNL     2      -7.592   4.334  69.808  1.00  0.00    -0.053 C  
HETATM   12  C   UNL     2      -7.991   3.079  70.543  1.00  0.00    -0.042 C  
HETATM   13  O   UNL     2      -8.184   5.297  70.687  1.00  0.00    -0.104 OA 
HETATM   14  O   UNL     2     -10.417   5.399  71.274  1.00  0.00    -0.226 OA 
HETATM   15  H   UNL     2      -9.848   1.527  71.863  1.00  0.00     0.000 HD 
HETATM   16  O   UNL     2      -7.122   2.180  70.706  1.00  0.00    -0.032 OA 
HETATM   17  C   UNL     2      -9.419   4.786  70.965  1.00  0.00    -0.164 C  
HETATM   18  C   UNL     2      -9.230   3.312  71.038  1.00  0.00    -0.129 C  
HETATM   19  O   UNL     2      -9.969   2.467  71.816  1.00  0.00    -0.161 OA 
ENDBRANCH   8  11
ENDBRANCH   3   8
BRANCH   7  20
HETATM   20  C   UNL     3     -11.324  10.343  69.120  1.00  0.00    -0.226 C  
HETATM   21  O   UNL     3     -12.480  10.963  68.560  1.00  0.00    -0.742 OA 
HETATM   22  H   UNL     3     -13.260  10.679  69.023  1.00  0.00     0.000 HD 
BRANCH  20  23
HETATM   23  C   UNL     3     -11.371  10.278  70.672  1.00  0.00    -0.347 C  
HETATM   24  O   UNL     3     -14.057   9.201  72.576  1.00  0.00    -0.472 OA 
HETATM   25  C   UNL     3     -11.789   8.564  72.155  1.00  0.00    -0.379 C  
HETATM   26  C   UNL     3     -10.794   9.188  71.513  1.00  0.00    -0.366 C  
HETATM   27  O   UNL     3     -11.663   7.545  73.071  1.00  0.00    -0.594 OA 
HETATM   28  O   UNL     3     -12.703  10.444  71.185  1.00  0.00    -0.347 OA 
HETATM   29  C   UNL     3     -13.009   9.354  71.970  1.00  0.00    -0.423 C  
HETATM   30  O   UNL     3      -9.542   9.162  71.556  1.00  0.00    -0.283 OA 
HETATM   31  H   UNL     3     -10.871   7.033  73.191  1.00  0.00     0.000 HD 
ENDBRANCH  20  23
ENDBRANCH   7  20
TORSDOF 4
ENDMDL
MODEL      237
REMARK 921   NORMALIZED FREE ENERGY PREDICTED BY IDOCK:   -4.36 KCAL/MOL
REMARK 922        TOTAL FREE ENERGY PREDICTED BY IDOCK:   -7.30 KCAL/MOL
REMARK 923 INTER-LIGAND FREE ENERGY PREDICTED BY IDOCK:   -6.16 KCAL/MOL
REMARK 924 INTRA-LIGAND FREE ENERGY PREDICTED BY IDOCK:   -1.15 KCAL/MOL
REMARK 927      BINDING AFFINITY PREDICTED BY RF-SCORE:    0.00 PKD
ROOT
HETATM    1 CA   UNL     1     -12.257  11.898  68.592  1.00  0.00    -0.272 Ca 
HETATM    2  O   UNL     2     -10.429   5.187  67.825  1.00  0.00    -0.137 OA 
HETATM    3  C   UNL     2     -11.093   6.422  68.117  1.00  0.00    -0.263 C  
HETATM    4  H   UNL     2     -11.023   4.483  68.063  1.00  0.00     0.000 HD 
HETATM    5  O   UNL     3     -11.650  11.420  63.199  1.00  0.00    -0.862 OA 
HETATM    6  H   UNL     3     -11.170  10.983  62.505  1.00  0.00     0.000 HD 
HETATM    7  C   UNL     3     -10.776  12.466  63.709  1.00  0.00    -0.451 C  
ENDROOT
BRANCH   3   8
HETATM    8  C   UNL     2     -10.149   7.540  67.738  1.00  0.00    -0.185 C  
HETATM    9  H   UNL     2      -8.682   7.767  66.452  1.00  0.00     0.000 HD 
HETATM   10  O   UNL     2      -9.276   7.064  66.690  1.00  0.00    -0.148 OA 
BRANCH   8  11
HETATM   11  C   UNL     2      -9.273   8.102  68.877  1.00  0.00    -0.147 C  
HETATM   12  C   UNL     2      -9.813   9.161  69.804  1.00  0.00    -0.181 C  
HETATM   13  O   UNL     2      -8.311   8.899  68.175  1.00  0.00    -0.123 OA 
HETATM   14  O   UNL     2      -8.763  10.832  66.993  1.00  0.00    -0.134 OA 
HETATM   15  H   UNL     2     -10.766  11.702  70.294  1.00  0.00     0.000 HD 
HETATM   16  O   UNL     2      -9.968   8.868  71.021  1.00  0.00    -0.211 OA 
HETATM   17  C   UNL     2      -8.971  10.063  67.905  1.00  0.00    -0.131 C  
HETATM   18  C   UNL     2      -9.840  10.311  69.088  1.00  0.00    -0.216 C  
HETATM   19  O   UNL     2     -10.213  11.544  69.539  1.00  0.00     0.071 OA 
ENDBRANCH   8  11
ENDBRANCH   3   8
BRANCH   7  20
HETATM   20  C   UNL     3     -11.550  13.172  64.829  1.00  0.00    -0.333 C  
HETATM   21  O   UNL     3     -12.848  13.544  64.368  1.00  0.00    -0.638 OA 
HETATM   22  H   UNL     3     -13.327  13.981  65.061  1.00  0.00     0.000 HD 
BRANCH  20  23
HETATM   23  C   UNL     3     -10.889  14.268  65.710  1.00  0.00    -0.303 C  
HETATM   24  O   UNL     3     -12.141  15.492  68.699  1.00  0.00    -0.271 OA 
HETATM   25  C   UNL     3     -10.215  14.308  67.914  1.00  0.00    -0.237 C  
HETATM   26  C   UNL     3      -9.773  14.048  66.677  1.00  0.00    -0.289 C  
HETATM   27  O   UNL     3      -9.473  14.282  69.072  1.00  0.00    -0.372 OA 
HETATM   28  O   UNL     3     -11.857  15.019  66.461  1.00  0.00    -0.215 OA 
HETATM   29  C   UNL     3     -11.532  14.939  67.798  1.00  0.00    -0.338 C  
HETATM   30  O   UNL     3      -8.661  13.809  66.153  1.00  0.00     0.229 OA 
HETATM   31  H   UNL     3      -8.619  13.873  69.147  1.00  0.00     0.000 HD 
ENDBRANCH  20  23
ENDBRANCH   7  20
TORSDOF 4
ENDMDL
MODEL      238
REMARK 921   NORMALIZED FREE ENERGY PREDICTED BY IDOCK:   -4.34 KCAL/MOL
REMARK 922        TOTAL FREE ENERGY PREDICTED BY IDOCK:   -7.28 KCAL/MOL
REMARK 923 INTER-LIGAND FREE ENERGY PREDICTED BY IDOCK:   -6.56 KCAL/MOL
REMARK 924 INTRA-LIGAND FREE ENERGY PREDICTED BY IDOCK:   -0.72 KCAL/MOL
REMARK 927      BINDING AFFINITY PREDICTED BY RF-SCORE:    0.00 PKD
ROOT
HETATM    1 CA   UNL     1      -6.978  13.029  66.513  1.00  0.00    -0.359 Ca 
HETATM    2  O   UNL     2      -8.003   8.349  71.614  1.00  0.00    -0.112 OA 
HETATM    3  C   UNL     2      -7.596   9.463  70.811  1.00  0.00    -0.114 C  
HETATM    4  H   UNL     2      -7.628   8.472  72.479  1.00  0.00     0.000 HD 
HETATM    5  O   UNL     3     -12.364  13.260  67.301  1.00  0.00    -0.262 OA 
HETATM    6  H   UNL     3     -13.137  12.764  67.542  1.00  0.00     0.000 HD 
HETATM    7  C   UNL     3     -12.076  12.927  65.913  1.00  0.00    -0.444 C  
ENDROOT
BRANCH   3   8
HETATM    8  C   UNL     2      -8.192   9.267  69.436  1.00  0.00    -0.114 C  
HETATM    9  H   UNL     2      -8.033  10.161  67.694  1.00  0.00     0.000 HD 
HETATM   10  O   UNL     2      -7.658  10.283  68.558  1.00  0.00    -0.084 OA 
BRANCH   8  11
HETATM   11  C   UNL     2      -9.732   9.319  69.351  1.00  0.00    -0.172 C  
HETATM   12  C   UNL     2     -10.536   8.045  69.275  1.00  0.00    -0.215 C  
HETATM   13  O   UNL     2      -9.962   9.799  68.022  1.00  0.00    -0.148 OA 
HETATM   14  O   UNL     2      -9.467   8.664  66.071  1.00  0.00    -0.225 OA 
HETATM   15  H   UNL     2     -11.290   5.723  67.993  1.00  0.00     0.000 HD 
HETATM   16  O   UNL     2     -11.302   7.763  70.237  1.00  0.00    -0.252 OA 
HETATM   17  C   UNL     2      -9.805   8.695  67.233  1.00  0.00    -0.197 C  
HETATM   18  C   UNL     2     -10.358   7.561  68.023  1.00  0.00    -0.204 C  
HETATM   19  O   UNL     2     -10.937   6.446  67.490  1.00  0.00    -0.318 OA 
ENDBRANCH   8  11
ENDBRANCH   3   8
BRANCH   7  20
HETATM   20  C   UNL     3     -10.828  13.728  65.524  1.00  0.00    -0.299 C  
HETATM   21  O   UNL     3      -9.750  12.842  65.229  1.00  0.00    -0.458 OA 
HETATM   22  H   UNL     3      -8.976  13.338  64.987  1.00  0.00     0.000 HD 
BRANCH  20  23
HETATM   23  C   UNL     3     -10.375  14.975  66.334  1.00  0.00    -0.287 C  
HETATM   24  O   UNL     3      -7.326  15.355  67.933  1.00  0.00    -0.119 OA 
HETATM   25  C   UNL     3      -8.558  16.381  66.157  1.00  0.00    -0.308 C  
HETATM   26  C   UNL     3      -9.826  16.235  65.752  1.00  0.00    -0.299 C  
HETATM   27  O   UNL     3      -7.728  17.445  65.886  1.00  0.00    -0.496 OA 
HETATM   28  O   UNL     3      -9.445  14.639  67.377  1.00  0.00    -0.195 OA 
HETATM   29  C   UNL     3      -8.300  15.385  67.199  1.00  0.00    -0.219 C  
HETATM   30  O   UNL     3     -10.662  16.942  65.144  1.00  0.00    -0.663 OA 
HETATM   31  H   UNL     3      -7.896  18.092  65.210  1.00  0.00     0.000 HD 
ENDBRANCH  20  23
ENDBRANCH   7  20
TORSDOF 4
ENDMDL
MODEL      239
REMARK 921   NORMALIZED FREE ENERGY PREDICTED BY IDOCK:   -4.34 KCAL/MOL
REMARK 922        TOTAL FREE ENERGY PREDICTED BY IDOCK:   -7.28 KCAL/MOL
REMARK 923 INTER-LIGAND FREE ENERGY PREDICTED BY IDOCK:   -6.70 KCAL/MOL
REMARK 924 INTRA-LIGAND FREE ENERGY PREDICTED BY IDOCK:   -0.59 KCAL/MOL
REMARK 927      BINDING AFFINITY PREDICTED BY RF-SCORE:    0.00 PKD
ROOT
HETATM    1 CA   UNL     1     -13.005  13.134  71.970  1.00  0.00    -0.308 Ca 
HETATM    2  O   UNL     2      -9.847  18.251  68.391  1.00  0.00    -0.329 OA 
HETATM    3  C   UNL     2     -10.404  17.398  69.397  1.00  0.00    -0.120 C  
HETATM    4  H   UNL     2      -9.426  18.977  68.836  1.00  0.00     0.000 HD 
HETATM    5  O   UNL     3      -8.939  10.519  69.456  1.00  0.00    -0.349 OA 
HETATM    6  H   UNL     3      -8.398  10.488  68.676  1.00  0.00     0.000 HD 
HETATM    7  C   UNL     3     -10.216   9.919  69.097  1.00  0.00    -0.205 C  
ENDROOT
BRANCH   3   8
HETATM    8  C   UNL     2     -11.073  16.243  68.689  1.00  0.00    -0.356 C  
HETATM    9  H   UNL     2     -12.629  15.094  69.031  1.00  0.00     0.000 HD 
HETATM   10  O   UNL     2     -12.208  15.820  69.476  1.00  0.00    -0.325 OA 
BRANCH   8  11
HETATM   11  C   UNL     2     -10.187  15.008  68.420  1.00  0.00    -0.228 C  
HETATM   12  C   UNL     2      -8.696  15.159  68.257  1.00  0.00    -0.171 C  
HETATM   13  O   UNL     2     -10.519  14.666  67.069  1.00  0.00    -0.264 OA 
HETATM   14  O   UNL     2     -10.051  15.940  65.199  1.00  0.00    -0.451 OA 
HETATM   15  H   UNL     2      -6.485  16.106  66.909  1.00  0.00     0.000 HD 
HETATM   16  O   UNL     2      -7.944  14.632  69.121  1.00  0.00    -0.148 OA 
HETATM   17  C   UNL     2      -9.792  15.540  66.312  1.00  0.00    -0.294 C  
HETATM   18  C   UNL     2      -8.505  15.717  67.038  1.00  0.00    -0.220 C  
HETATM   19  O   UNL     2      -7.306  15.993  66.446  1.00  0.00    -0.105 OA 
ENDBRANCH   8  11
ENDBRANCH   3   8
BRANCH   7  20
HETATM   20  C   UNL     3     -11.089   9.969  70.356  1.00  0.00    -0.327 C  
HETATM   21  O   UNL     3     -11.403  11.322  70.682  1.00  0.00    -0.400 OA 
HETATM   22  H   UNL     3     -11.944  11.353  71.462  1.00  0.00     0.000 HD 
BRANCH  20  23
HETATM   23  C   UNL     3     -10.760   9.111  71.609  1.00  0.00    -0.371 C  
HETATM   24  O   UNL     3     -11.907   5.900  72.224  1.00  0.00    -0.303 OA 
HETATM   25  C   UNL     3      -9.823   7.022  71.874  1.00  0.00    -0.163 C  
HETATM   26  C   UNL     3      -9.510   8.322  71.818  1.00  0.00    -0.209 C  
HETATM   27  O   UNL     3      -8.957   5.980  72.116  1.00  0.00    -0.142 OA 
HETATM   28  O   UNL     3     -11.812   8.183  71.926  1.00  0.00    -0.282 OA 
HETATM   29  C   UNL     3     -11.281   6.913  71.957  1.00  0.00    -0.257 C  
HETATM   30  O   UNL     3      -8.483   9.009  72.027  1.00  0.00    -0.368 OA 
HETATM   31  H   UNL     3      -8.011   6.051  72.062  1.00  0.00     0.000 HD 
ENDBRANCH  20  23
ENDBRANCH   7  20
TORSDOF 4
ENDMDL
MODEL      240
REMARK 921   NORMALIZED FREE ENERGY PREDICTED BY IDOCK:   -4.31 KCAL/MOL
REMARK 922        TOTAL FREE ENERGY PREDICTED BY IDOCK:   -7.24 KCAL/MOL
REMARK 923 INTER-LIGAND FREE ENERGY PREDICTED BY IDOCK:   -6.87 KCAL/MOL
REMARK 924 INTRA-LIGAND FREE ENERGY PREDICTED BY IDOCK:   -0.37 KCAL/MOL
REMARK 927      BINDING AFFINITY PREDICTED BY RF-SCORE:    0.00 PKD
ROOT
HETATM    1 CA   UNL     1      -9.842  15.294  64.060  1.00  0.00    -0.157 Ca 
HETATM    2  O   UNL     2      -7.301  21.301  66.596  1.00  0.00    -0.670 OA 
HETATM    3  C   UNL     2      -7.951  20.280  65.831  1.00  0.00    -0.071 C  
HETATM    4  H   UNL     2      -7.497  22.133  66.181  1.00  0.00     0.000 HD 
HETATM    5  O   UNL     3     -12.180  15.618  68.971  1.00  0.00    -0.585 OA 
HETATM    6  H   UNL     3     -12.072  15.917  69.866  1.00  0.00     0.000 HD 
HETATM    7  C   UNL     3     -11.425  14.378  68.858  1.00  0.00    -0.289 C  
ENDROOT
BRANCH   3   8
HETATM    8  C   UNL     2      -7.640  18.956  66.490  1.00  0.00    -0.251 C  
HETATM    9  H   UNL     2      -7.018  17.194  65.884  1.00  0.00     0.000 HD 
HETATM   10  O   UNL     2      -7.213  18.027  65.470  1.00  0.00    -0.532 OA 
BRANCH   8  11
HETATM   11  C   UNL     2      -8.794  18.305  67.282  1.00  0.00    -0.255 C  
HETATM   12  C   UNL     2      -9.978  19.128  67.722  1.00  0.00    -0.357 C  
HETATM   13  O   UNL     2      -8.205  18.069  68.567  1.00  0.00    -0.296 OA 
HETATM   14  O   UNL     2      -7.529  19.696  70.062  1.00  0.00     0.057 OA 
HETATM   15  H   UNL     2     -11.104  21.161  69.206  1.00  0.00     0.000 HD 
HETATM   16  O   UNL     2     -11.107  18.863  67.228  1.00  0.00    -0.349 OA 
HETATM   17  C   UNL     2      -8.260  19.283  69.191  1.00  0.00    -0.148 C  
HETATM   18  C   UNL     2      -9.541  19.898  68.748  1.00  0.00    -0.220 C  
HETATM   19  O   UNL     2     -10.287  20.769  69.488  1.00  0.00     0.245 OA 
ENDBRANCH   8  11
ENDBRANCH   3   8
BRANCH   7  20
HETATM   20  C   UNL     3     -11.598  13.894  67.414  1.00  0.00    -0.368 C  
HETATM   21  O   UNL     3     -12.590  14.675  66.751  1.00  0.00    -0.413 OA 
HETATM   22  H   UNL     3     -12.698  14.376  65.856  1.00  0.00     0.000 HD 
BRANCH  20  23
HETATM   23  C   UNL     3     -11.694  12.382  67.068  1.00  0.00    -0.353 C  
HETATM   24  O   UNL     3      -9.262  10.514  65.457  1.00  0.00    -0.169 OA 
HETATM   25  C   UNL     3     -10.364  10.571  67.580  1.00  0.00    -0.217 C  
HETATM   26  C   UNL     3     -11.429  11.257  68.012  1.00  0.00    -0.298 C  
HETATM   27  O   UNL     3      -9.841   9.429  68.142  1.00  0.00    -0.152 OA 
HETATM   28  O   UNL     3     -10.930  12.041  65.899  1.00  0.00    -0.278 OA 
HETATM   29  C   UNL     3     -10.038  11.045  66.234  1.00  0.00    -0.235 C  
HETATM   30  O   UNL     3     -12.297  11.101  68.902  1.00  0.00    -0.512 OA 
HETATM   31  H   UNL     3     -10.052   9.121  69.016  1.00  0.00     0.000 HD 
ENDBRANCH  20  23
ENDBRANCH   7  20
TORSDOF 4
ENDMDL
MODEL      241
REMARK 921   NORMALIZED FREE ENERGY PREDICTED BY IDOCK:   -4.31 KCAL/MOL
REMARK 922        TOTAL FREE ENERGY PREDICTED BY IDOCK:   -7.24 KCAL/MOL
REMARK 923 INTER-LIGAND FREE ENERGY PREDICTED BY IDOCK:   -6.16 KCAL/MOL
REMARK 924 INTRA-LIGAND FREE ENERGY PREDICTED BY IDOCK:   -1.08 KCAL/MOL
REMARK 927      BINDING AFFINITY PREDICTED BY RF-SCORE:    0.00 PKD
ROOT
HETATM    1 CA   UNL     1     -10.734  12.977  64.332  1.00  0.00    -0.275 Ca 
HETATM    2  O   UNL     2     -10.440  19.184  67.551  1.00  0.00    -0.400 OA 
HETATM    3  C   UNL     2     -10.840  17.983  66.882  1.00  0.00    -0.072 C  
HETATM    4  H   UNL     2     -11.228  19.679  67.742  1.00  0.00     0.000 HD 
HETATM    5  O   UNL     3      -8.695  11.707  69.222  1.00  0.00    -0.343 OA 
HETATM    6  H   UNL     3      -8.152  12.007  69.941  1.00  0.00     0.000 HD 
HETATM    7  C   UNL     3      -7.785  11.271  68.173  1.00  0.00    -0.112 C  
ENDROOT
BRANCH   3   8
HETATM    8  C   UNL     2      -9.586  17.196  66.580  1.00  0.00    -0.267 C  
HETATM    9  H   UNL     2      -7.868  17.568  65.703  1.00  0.00     0.000 HD 
HETATM   10  O   UNL     2      -8.657  18.063  65.893  1.00  0.00    -0.507 OA 
BRANCH   8  11
HETATM   11  C   UNL     2      -9.774  15.922  65.729  1.00  0.00    -0.325 C  
HETATM   12  C   UNL     2     -11.089  15.184  65.738  1.00  0.00    -0.330 C  
HETATM   13  O   UNL     2      -8.979  14.955  66.425  1.00  0.00    -0.270 OA 
HETATM   14  O   UNL     2      -9.407  14.122  68.538  1.00  0.00    -0.202 OA 
HETATM   15  H   UNL     2     -13.039  13.713  67.018  1.00  0.00     0.000 HD 
HETATM   16  O   UNL     2     -11.759  15.145  64.670  1.00  0.00    -0.408 OA 
HETATM   17  C   UNL     2      -9.767  14.557  67.467  1.00  0.00    -0.211 C  
HETATM   18  C   UNL     2     -11.156  14.548  66.932  1.00  0.00    -0.325 C  
HETATM   19  O   UNL     2     -12.153  13.719  67.359  1.00  0.00    -0.386 OA 
ENDBRANCH   8  11
ENDBRANCH   3   8
BRANCH   7  20
HETATM   20  C   UNL     3      -8.661  10.785  67.012  1.00  0.00    -0.130 C  
HETATM   21  O   UNL     3      -9.142  11.899  66.262  1.00  0.00    -0.213 OA 
HETATM   22  H   UNL     3      -9.685  11.598  65.543  1.00  0.00     0.000 HD 
BRANCH  20  23
HETATM   23  C   UNL     3      -9.739   9.684  67.211  1.00  0.00    -0.166 C  
HETATM   24  O   UNL     3      -9.276   6.285  66.729  1.00  0.00    -0.129 OA 
HETATM   25  C   UNL     3      -9.814   7.784  68.514  1.00  0.00    -0.172 C  
HETATM   26  C   UNL     3     -10.135   9.084  68.519  1.00  0.00    -0.190 C  
HETATM   27  O   UNL     3     -10.073   6.871  69.511  1.00  0.00    -0.168 OA 
HETATM   28  O   UNL     3      -9.519   8.546  66.360  1.00  0.00    -0.197 OA 
HETATM   29  C   UNL     3      -9.433   7.420  67.148  1.00  0.00    -0.149 C  
HETATM   30  O   UNL     3     -10.784   9.845  69.272  1.00  0.00    -0.207 OA 
HETATM   31  H   UNL     3     -10.320   7.108  70.398  1.00  0.00     0.000 HD 
ENDBRANCH  20  23
ENDBRANCH   7  20
TORSDOF 4
ENDMDL
MODEL      242
REMARK 921   NORMALIZED FREE ENERGY PREDICTED BY IDOCK:   -4.28 KCAL/MOL
REMARK 922        TOTAL FREE ENERGY PREDICTED BY IDOCK:   -7.20 KCAL/MOL
REMARK 923 INTER-LIGAND FREE ENERGY PREDICTED BY IDOCK:   -5.14 KCAL/MOL
REMARK 924 INTRA-LIGAND FREE ENERGY PREDICTED BY IDOCK:   -2.07 KCAL/MOL
REMARK 927      BINDING AFFINITY PREDICTED BY RF-SCORE:    0.00 PKD
ROOT
HETATM    1 CA   UNL     1     -10.043  10.129  64.663  1.00  0.00    -0.251 Ca 
HETATM    2  O   UNL     2      -7.573   4.357  67.753  1.00  0.00    -0.075 OA 
HETATM    3  C   UNL     2      -7.750   5.569  67.010  1.00  0.00    -0.100 C  
HETATM    4  H   UNL     2      -6.654   4.124  67.698  1.00  0.00     0.000 HD 
HETATM    5  O   UNL     3     -10.895  11.131  69.950  1.00  0.00    -0.451 OA 
HETATM    6  H   UNL     3     -11.098  10.743  70.793  1.00  0.00     0.000 HD 
HETATM    7  C   UNL     3     -12.152  11.209  69.218  1.00  0.00    -0.308 C  
ENDROOT
BRANCH   3   8
HETATM    8  C   UNL     2      -9.212   5.940  67.098  1.00  0.00    -0.116 C  
HETATM    9  H   UNL     2     -10.905   5.145  66.496  1.00  0.00     0.000 HD 
HETATM   10  O   UNL     2      -9.985   4.911  66.441  1.00  0.00    -0.184 OA 
BRANCH   8  11
HETATM   11  C   UNL     2      -9.604   7.302  66.484  1.00  0.00    -0.149 C  
HETATM   12  C   UNL     2      -8.813   8.543  66.812  1.00  0.00    -0.139 C  
HETATM   13  O   UNL     2     -10.814   7.627  67.177  1.00  0.00    -0.317 OA 
HETATM   14  O   UNL     2     -10.993   8.109  69.430  1.00  0.00    -0.146 OA 
HETATM   15  H   UNL     2      -7.913  10.449  68.589  1.00  0.00     0.000 HD 
HETATM   16  O   UNL     2      -8.171   9.105  65.883  1.00  0.00    -0.108 OA 
HETATM   17  C   UNL     2     -10.392   8.120  68.379  1.00  0.00    -0.199 C  
HETATM   18  C   UNL     2      -9.146   8.877  68.081  1.00  0.00    -0.140 C  
HETATM   19  O   UNL     2      -8.707   9.965  68.779  1.00  0.00    -0.122 OA 
ENDBRANCH   8  11
ENDBRANCH   3   8
BRANCH   7  20
HETATM   20  C   UNL     3     -11.824  11.835  67.858  1.00  0.00    -0.219 C  
HETATM   21  O   UNL     3     -11.172  10.880  67.023  1.00  0.00    -0.303 OA 
HETATM   22  H   UNL     3     -10.969  11.268  66.180  1.00  0.00     0.000 HD 
BRANCH  20  23
HETATM   23  C   UNL     3     -11.203  13.255  67.744  1.00  0.00    -0.280 C  
HETATM   24  O   UNL     3     -10.503  15.379  70.390  1.00  0.00    -0.294 OA 
HETATM   25  C   UNL     3      -9.322  14.219  68.663  1.00  0.00    -0.172 C  
HETATM   26  C   UNL     3      -9.750  13.557  67.581  1.00  0.00    -0.229 C  
HETATM   27  O   UNL     3      -8.059  14.727  68.866  1.00  0.00    -0.151 OA 
HETATM   28  O   UNL     3     -11.619  14.119  68.815  1.00  0.00    -0.285 OA 
HETATM   29  C   UNL     3     -10.495  14.597  69.453  1.00  0.00    -0.162 C  
HETATM   30  O   UNL     3      -9.275  13.266  66.459  1.00  0.00    -0.240 OA 
HETATM   31  H   UNL     3      -7.298  14.482  68.353  1.00  0.00     0.000 HD 
ENDBRANCH  20  23
ENDBRANCH   7  20
TORSDOF 4
ENDMDL
MODEL      243
REMARK 921   NORMALIZED FREE ENERGY PREDICTED BY IDOCK:   -4.28 KCAL/MOL
REMARK 922        TOTAL FREE ENERGY PREDICTED BY IDOCK:   -7.20 KCAL/MOL
REMARK 923 INTER-LIGAND FREE ENERGY PREDICTED BY IDOCK:   -7.61 KCAL/MOL
REMARK 924 INTRA-LIGAND FREE ENERGY PREDICTED BY IDOCK:    0.41 KCAL/MOL
REMARK 927      BINDING AFFINITY PREDICTED BY RF-SCORE:    0.00 PKD
ROOT
HETATM    1 CA   UNL     1     -12.106  14.567  69.211  1.00  0.00    -0.256 Ca 
HETATM    2  O   UNL     2      -6.361  18.184  67.513  1.00  0.00    -0.172 OA 
HETATM    3  C   UNL     2      -7.471  17.571  68.177  1.00  0.00    -0.218 C  
HETATM    4  H   UNL     2      -5.862  18.655  68.170  1.00  0.00     0.000 HD 
HETATM    5  O   UNL     3      -8.716  10.688  67.435  1.00  0.00    -0.126 OA 
HETATM    6  H   UNL     3      -8.013  10.487  66.829  1.00  0.00     0.000 HD 
HETATM    7  C   UNL     3      -9.948  10.670  66.657  1.00  0.00    -0.212 C  
ENDROOT
BRANCH   3   8
HETATM    8  C   UNL     2      -8.263  16.821  67.131  1.00  0.00    -0.184 C  
HETATM    9  H   UNL     2      -8.197  16.642  65.176  1.00  0.00     0.000 HD 
HETATM   10  O   UNL     2      -7.699  17.114  65.834  1.00  0.00    -0.446 OA 
BRANCH   8  11
HETATM   11  C   UNL     2      -9.775  17.126  67.078  1.00  0.00    -0.265 C  
HETATM   12  C   UNL     2     -10.349  17.948  65.952  1.00  0.00    -0.259 C  
HETATM   13  O   UNL     2      -9.948  18.068  68.143  1.00  0.00    -0.314 OA 
HETATM   14  O   UNL     2      -9.085  20.210  68.205  1.00  0.00    -0.260 OA 
HETATM   15  H   UNL     2     -10.585  20.307  64.543  1.00  0.00     0.000 HD 
HETATM   16  O   UNL     2     -11.150  17.390  65.153  1.00  0.00    -0.514 OA 
HETATM   17  C   UNL     2      -9.536  19.256  67.612  1.00  0.00    -0.315 C  
HETATM   18  C   UNL     2      -9.972  19.227  66.189  1.00  0.00    -0.397 C  
HETATM   19  O   UNL     2     -10.307  20.325  65.451  1.00  0.00    -0.272 OA 
ENDBRANCH   8  11
ENDBRANCH   3   8
BRANCH   7  20
HETATM   20  C   UNL     3     -11.083  10.995  67.634  1.00  0.00    -0.300 C  
HETATM   21  O   UNL     3     -11.912  12.024  67.098  1.00  0.00    -0.601 OA 
HETATM   22  H   UNL     3     -12.616  12.226  67.703  1.00  0.00     0.000 HD 
BRANCH  20  23
HETATM   23  C   UNL     3     -10.823  11.166  69.157  1.00  0.00    -0.238 C  
HETATM   24  O   UNL     3     -13.218  11.898  71.551  1.00  0.00    -0.358 OA 
HETATM   25  C   UNL     3     -11.697  10.128  71.020  1.00  0.00    -0.382 C  
HETATM   26  C   UNL     3     -10.687  10.055  70.144  1.00  0.00    -0.307 C  
HETATM   27  O   UNL     3     -11.892   9.321  72.118  1.00  0.00    -0.328 OA 
HETATM   28  O   UNL     3     -11.762  12.064  69.772  1.00  0.00    -0.308 OA 
HETATM   29  C   UNL     3     -12.384  11.404  70.809  1.00  0.00    -0.386 C  
HETATM   30  O   UNL     3      -9.631   9.389  70.046  1.00  0.00    -0.194 OA 
HETATM   31  H   UNL     3     -11.445   8.493  72.254  1.00  0.00     0.000 HD 
ENDBRANCH  20  23
ENDBRANCH   7  20
TORSDOF 4
ENDMDL
MODEL      244
REMARK 921   NORMALIZED FREE ENERGY PREDICTED BY IDOCK:   -4.25 KCAL/MOL
REMARK 922        TOTAL FREE ENERGY PREDICTED BY IDOCK:   -7.17 KCAL/MOL
REMARK 923 INTER-LIGAND FREE ENERGY PREDICTED BY IDOCK:   -5.95 KCAL/MOL
REMARK 924 INTRA-LIGAND FREE ENERGY PREDICTED BY IDOCK:   -1.23 KCAL/MOL
REMARK 927      BINDING AFFINITY PREDICTED BY RF-SCORE:    0.00 PKD
ROOT
HETATM    1 CA   UNL     1     -11.460  10.702  70.788  1.00  0.00    -0.243 Ca 
HETATM    2  O   UNL     2     -11.019  14.913  65.216  1.00  0.00    -0.335 OA 
HETATM    3  C   UNL     2     -11.190  14.347  66.521  1.00  0.00    -0.340 C  
HETATM    4  H   UNL     2     -11.146  15.851  65.296  1.00  0.00     0.000 HD 
HETATM    5  O   UNL     3      -6.260  10.143  69.259  1.00  0.00    -0.043 OA 
HETATM    6  H   UNL     3      -5.662  10.135  68.521  1.00  0.00     0.000 HD 
HETATM    7  C   UNL     3      -6.920   8.845  69.269  1.00  0.00    -0.057 C  
ENDROOT
BRANCH   3   8
HETATM    8  C   UNL     2     -10.987  12.855  66.394  1.00  0.00    -0.285 C  
HETATM    9  H   UNL     2     -12.154  11.291  66.165  1.00  0.00     0.000 HD 
HETATM   10  O   UNL     2     -12.281  12.229  66.245  1.00  0.00    -0.628 OA 
BRANCH   8  11
HETATM   11  C   UNL     2     -10.252  12.168  67.564  1.00  0.00    -0.199 C  
HETATM   12  C   UNL     2      -8.747  12.087  67.579  1.00  0.00    -0.166 C  
HETATM   13  O   UNL     2     -10.542  10.782  67.353  1.00  0.00    -0.211 OA 
HETATM   14  O   UNL     2      -9.800   9.502  65.577  1.00  0.00    -0.306 OA 
HETATM   15  H   UNL     2      -6.354  11.196  66.538  1.00  0.00     0.000 HD 
HETATM   16  O   UNL     2      -8.123  12.712  68.479  1.00  0.00    -0.143 OA 
HETATM   17  C   UNL     2      -9.664  10.399  66.379  1.00  0.00    -0.201 C  
HETATM   18  C   UNL     2      -8.411  11.154  66.656  1.00  0.00    -0.164 C  
HETATM   19  O   UNL     2      -7.153  10.715  66.361  1.00  0.00    -0.119 OA 
ENDBRANCH   8  11
ENDBRANCH   3   8
BRANCH   7  20
HETATM   20  C   UNL     3      -7.884   8.858  70.461  1.00  0.00    -0.112 C  
HETATM   21  O   UNL     3      -7.205   9.294  71.637  1.00  0.00    -0.321 OA 
HETATM   22  H   UNL     3      -7.802   9.302  72.375  1.00  0.00     0.000 HD 
BRANCH  20  23
HETATM   23  C   UNL     3      -8.858   7.678  70.732  1.00  0.00    -0.144 C  
HETATM   24  O   UNL     3     -11.409   7.654  73.076  1.00  0.00    -0.372 OA 
HETATM   25  C   UNL     3     -11.156   7.506  70.701  1.00  0.00    -0.265 C  
HETATM   26  C   UNL     3     -10.074   7.353  69.929  1.00  0.00    -0.195 C  
HETATM   27  O   UNL     3     -12.460   7.244  70.347  1.00  0.00    -0.574 OA 
HETATM   28  O   UNL     3      -9.325   7.659  72.092  1.00  0.00    -0.136 OA 
HETATM   29  C   UNL     3     -10.703   7.688  72.082  1.00  0.00    -0.241 C  
HETATM   30  O   UNL     3      -9.842   6.890  68.788  1.00  0.00    -0.146 OA 
HETATM   31  H   UNL     3     -12.754   7.125  69.451  1.00  0.00     0.000 HD 
ENDBRANCH  20  23
ENDBRANCH   7  20
TORSDOF 4
ENDMDL
MODEL      245
REMARK 921   NORMALIZED FREE ENERGY PREDICTED BY IDOCK:   -4.24 KCAL/MOL
REMARK 922        TOTAL FREE ENERGY PREDICTED BY IDOCK:   -7.16 KCAL/MOL
REMARK 923 INTER-LIGAND FREE ENERGY PREDICTED BY IDOCK:   -5.30 KCAL/MOL
REMARK 924 INTRA-LIGAND FREE ENERGY PREDICTED BY IDOCK:   -1.86 KCAL/MOL
REMARK 927      BINDING AFFINITY PREDICTED BY RF-SCORE:    0.00 PKD
ROOT
HETATM    1 CA   UNL     1     -11.839   7.120  67.702  1.00  0.00    -0.504 Ca 
HETATM    2  O   UNL     2      -5.759   3.680  68.117  1.00  0.00    -0.020 OA 
HETATM    3  C   UNL     2      -7.054   4.176  67.758  1.00  0.00    -0.060 C  
HETATM    4  H   UNL     2      -5.520   3.023  67.474  1.00  0.00     0.000 HD 
HETATM    5  O   UNL     3      -8.160  11.086  67.052  1.00  0.00    -0.125 OA 
HETATM    6  H   UNL     3      -7.291  11.388  67.289  1.00  0.00     0.000 HD 
HETATM    7  C   UNL     3      -9.024  11.387  68.185  1.00  0.00    -0.169 C  
ENDROOT
BRANCH   3   8
HETATM    8  C   UNL     2      -7.435   5.221  68.781  1.00  0.00    -0.074 C  
HETATM    9  H   UNL     2      -7.799   5.234  70.711  1.00  0.00     0.000 HD 
HETATM   10  O   UNL     2      -7.559   4.577  70.068  1.00  0.00    -0.053 OA 
BRANCH   8  11
HETATM   11  C   UNL     2      -8.739   5.998  68.503  1.00  0.00    -0.110 C  
HETATM   12  C   UNL     2      -9.025   6.544  67.127  1.00  0.00    -0.113 C  
HETATM   13  O   UNL     2      -8.524   7.237  69.187  1.00  0.00    -0.131 OA 
HETATM   14  O   UNL     2      -6.951   8.835  68.627  1.00  0.00    -0.062 OA 
HETATM   15  H   UNL     2      -8.457   8.226  65.017  1.00  0.00     0.000 HD 
HETATM   16  O   UNL     2     -10.002   6.069  66.486  1.00  0.00    -0.166 OA 
HETATM   17  C   UNL     2      -7.735   7.959  68.338  1.00  0.00    -0.114 C  
HETATM   18  C   UNL     2      -8.207   7.612  66.969  1.00  0.00    -0.117 C  
HETATM   19  O   UNL     2      -8.155   8.447  65.890  1.00  0.00    -0.100 OA 
ENDBRANCH   8  11
ENDBRANCH   3   8
BRANCH   7  20
HETATM   20  C   UNL     3     -10.426  10.899  67.804  1.00  0.00    -0.203 C  
HETATM   21  O   UNL     3     -10.427  10.408  66.465  1.00  0.00    -0.236 OA 
HETATM   22  H   UNL     3     -11.296  10.106  66.228  1.00  0.00     0.000 HD 
BRANCH  20  23
HETATM   23  C   UNL     3     -11.696  11.730  68.139  1.00  0.00    -0.307 C  
HETATM   24  O   UNL     3     -12.246  13.496  71.068  1.00  0.00    -0.353 OA 
HETATM   25  C   UNL     3     -12.013  13.936  68.727  1.00  0.00    -0.358 C  
HETATM   26  C   UNL     3     -11.974  13.119  67.667  1.00  0.00    -0.315 C  
HETATM   27  O   UNL     3     -12.304  15.281  68.716  1.00  0.00    -0.586 OA 
HETATM   28  O   UNL     3     -11.953  11.785  69.552  1.00  0.00    -0.302 OA 
HETATM   29  C   UNL     3     -12.014  13.107  69.935  1.00  0.00    -0.317 C  
HETATM   30  O   UNL     3     -12.241  13.217  66.447  1.00  0.00    -0.399 OA 
HETATM   31  H   UNL     3     -12.303  15.818  67.932  1.00  0.00     0.000 HD 
ENDBRANCH  20  23
ENDBRANCH   7  20
TORSDOF 4
ENDMDL
MODEL      246
REMARK 921   NORMALIZED FREE ENERGY PREDICTED BY IDOCK:   -4.24 KCAL/MOL
REMARK 922        TOTAL FREE ENERGY PREDICTED BY IDOCK:   -7.15 KCAL/MOL
REMARK 923 INTER-LIGAND FREE ENERGY PREDICTED BY IDOCK:   -6.38 KCAL/MOL
REMARK 924 INTRA-LIGAND FREE ENERGY PREDICTED BY IDOCK:   -0.77 KCAL/MOL
REMARK 927      BINDING AFFINITY PREDICTED BY RF-SCORE:    0.00 PKD
ROOT
HETATM    1 CA   UNL     1      -7.394  14.422  70.660  1.00  0.00    -0.372 Ca 
HETATM    2  O   UNL     2      -9.069   7.630  70.855  1.00  0.00    -0.147 OA 
HETATM    3  C   UNL     2      -8.850   9.016  71.140  1.00  0.00    -0.215 C  
HETATM    4  H   UNL     2      -9.488   7.247  71.616  1.00  0.00     0.000 HD 
HETATM    5  O   UNL     3     -11.095  13.976  66.686  1.00  0.00    -0.300 OA 
HETATM    6  H   UNL     3     -11.452  13.405  66.016  1.00  0.00     0.000 HD 
HETATM    7  C   UNL     3      -9.850  14.510  66.151  1.00  0.00    -0.318 C  
ENDROOT
BRANCH   3   8
HETATM    8  C   UNL     2      -8.184   9.625  69.928  1.00  0.00    -0.174 C  
HETATM    9  H   UNL     2      -6.641  10.799  69.611  1.00  0.00     0.000 HD 
HETATM   10  O   UNL     2      -7.060  10.416  70.373  1.00  0.00    -0.268 OA 
BRANCH   8  11
HETATM   11  C   UNL     2      -9.077  10.516  69.039  1.00  0.00    -0.181 C  
HETATM   12  C   UNL     2     -10.319   9.953  68.395  1.00  0.00    -0.198 C  
HETATM   13  O   UNL     2      -8.282  10.690  67.861  1.00  0.00    -0.110 OA 
HETATM   14  O   UNL     2      -7.712   9.030  66.358  1.00  0.00    -0.097 OA 
HETATM   15  H   UNL     2     -11.579   8.236  66.644  1.00  0.00     0.000 HD 
HETATM   16  O   UNL     2     -11.439  10.407  68.757  1.00  0.00    -0.241 OA 
HETATM   17  C   UNL     2      -8.470   9.537  67.154  1.00  0.00    -0.131 C  
HETATM   18  C   UNL     2      -9.891   9.158  67.385  1.00  0.00    -0.184 C  
HETATM   19  O   UNL     2     -10.673   8.477  66.497  1.00  0.00    -0.099 OA 
ENDBRANCH   8  11
ENDBRANCH   3   8
BRANCH   7  20
HETATM   20  C   UNL     3      -9.272  15.430  67.233  1.00  0.00    -0.207 C  
HETATM   21  O   UNL     3      -9.988  15.260  68.455  1.00  0.00    -0.213 OA 
HETATM   22  H   UNL     3      -9.630  15.830  69.125  1.00  0.00     0.000 HD 
BRANCH  20  23
HETATM   23  C   UNL     3      -8.932  16.918  66.939  1.00  0.00    -0.224 C  
HETATM   24  O   UNL     3     -10.955  19.163  65.246  1.00  0.00    -0.512 OA 
HETATM   25  C   UNL     3     -10.009  18.896  67.427  1.00  0.00    -0.338 C  
HETATM   26  C   UNL     3      -9.085  18.050  67.900  1.00  0.00    -0.268 C  
HETATM   27  O   UNL     3     -10.390  20.092  67.992  1.00  0.00    -0.410 OA 
HETATM   28  O   UNL     3      -9.563  17.393  65.738  1.00  0.00    -0.526 OA 
HETATM   29  C   UNL     3     -10.316  18.504  66.050  1.00  0.00    -0.393 C  
HETATM   30  O   UNL     3      -8.261  18.055  68.843  1.00  0.00    -0.251 OA 
HETATM   31  H   UNL     3     -10.191  20.346  68.885  1.00  0.00     0.000 HD 
ENDBRANCH  20  23
ENDBRANCH   7  20
TORSDOF 4
ENDMDL
MODEL      247
REMARK 921   NORMALIZED FREE ENERGY PREDICTED BY IDOCK:   -4.23 KCAL/MOL
REMARK 922        TOTAL FREE ENERGY PREDICTED BY IDOCK:   -7.15 KCAL/MOL
REMARK 923 INTER-LIGAND FREE ENERGY PREDICTED BY IDOCK:   -5.67 KCAL/MOL
REMARK 924 INTRA-LIGAND FREE ENERGY PREDICTED BY IDOCK:   -1.47 KCAL/MOL
REMARK 927      BINDING AFFINITY PREDICTED BY RF-SCORE:    0.00 PKD
ROOT
HETATM    1 CA   UNL     1     -10.676  11.601  70.375  1.00  0.00    -0.452 Ca 
HETATM    2  O   UNL     2     -10.461  18.104  67.800  1.00  0.00    -0.380 OA 
HETATM    3  C   UNL     2     -10.256  16.893  68.536  1.00  0.00    -0.310 C  
HETATM    4  H   UNL     2      -9.836  18.742  68.122  1.00  0.00     0.000 HD 
HETATM    5  O   UNL     3      -9.260  10.795  65.175  1.00  0.00    -0.194 OA 
HETATM    6  H   UNL     3      -9.353  11.114  64.285  1.00  0.00     0.000 HD 
HETATM    7  C   UNL     3     -10.481  10.062  65.480  1.00  0.00     0.063 C  
ENDROOT
BRANCH   3   8
HETATM    8  C   UNL     2     -11.251  15.879  68.022  1.00  0.00    -0.319 C  
HETATM    9  H   UNL     2     -13.032  15.254  68.566  1.00  0.00     0.000 HD 
HETATM   10  O   UNL     2     -12.406  15.893  68.889  1.00  0.00    -0.097 OA 
BRANCH   8  11
HETATM   11  C   UNL     2     -10.744  14.425  67.918  1.00  0.00    -0.244 C  
HETATM   12  C   UNL     2     -10.008  13.958  66.687  1.00  0.00    -0.279 C  
HETATM   13  O   UNL     2     -11.953  13.678  67.743  1.00  0.00    -0.363 OA 
HETATM   14  O   UNL     2     -13.347  13.775  65.902  1.00  0.00    -0.339 OA 
HETATM   15  H   UNL     2      -9.902  13.396  63.990  1.00  0.00     0.000 HD 
HETATM   16  O   UNL     2      -8.797  13.626  66.805  1.00  0.00    -0.214 OA 
HETATM   17  C   UNL     2     -12.253  13.828  66.419  1.00  0.00    -0.436 C  
HETATM   18  C   UNL     2     -10.942  13.835  65.715  1.00  0.00    -0.280 C  
HETATM   19  O   UNL     2     -10.738  13.392  64.440  1.00  0.00    -0.396 OA 
ENDBRANCH   8  11
ENDBRANCH   3   8
BRANCH   7  20
HETATM   20  C   UNL     3     -10.332   9.548  66.917  1.00  0.00    -0.237 C  
HETATM   21  O   UNL     3     -10.959  10.449  67.827  1.00  0.00    -0.273 OA 
HETATM   22  H   UNL     3     -10.867  10.131  68.717  1.00  0.00     0.000 HD 
BRANCH  20  23
HETATM   23  C   UNL     3      -8.978   9.002  67.449  1.00  0.00    -0.124 C  
HETATM   24  O   UNL     3      -8.588   6.718  70.025  1.00  0.00    -0.138 OA 
HETATM   25  C   UNL     3      -8.133   6.870  67.681  1.00  0.00    -0.113 C  
HETATM   26  C   UNL     3      -8.181   7.902  66.829  1.00  0.00    -0.116 C  
HETATM   27  O   UNL     3      -7.443   5.693  67.503  1.00  0.00    -0.079 OA 
HETATM   28  O   UNL     3      -9.046   8.641  68.839  1.00  0.00    -0.144 OA 
HETATM   29  C   UNL     3      -8.665   7.323  68.968  1.00  0.00    -0.132 C  
HETATM   30  O   UNL     3      -7.627   8.200  65.746  1.00  0.00    -0.078 OA 
HETATM   31  H   UNL     3      -7.097   5.400  66.668  1.00  0.00     0.000 HD 
ENDBRANCH  20  23
ENDBRANCH   7  20
TORSDOF 4
ENDMDL
MODEL      248
REMARK 921   NORMALIZED FREE ENERGY PREDICTED BY IDOCK:   -4.23 KCAL/MOL
REMARK 922        TOTAL FREE ENERGY PREDICTED BY IDOCK:   -7.14 KCAL/MOL
REMARK 923 INTER-LIGAND FREE ENERGY PREDICTED BY IDOCK:   -6.03 KCAL/MOL
REMARK 924 INTRA-LIGAND FREE ENERGY PREDICTED BY IDOCK:   -1.10 KCAL/MOL
REMARK 927      BINDING AFFINITY PREDICTED BY RF-SCORE:    0.00 PKD
ROOT
HETATM    1 CA   UNL     1      -8.115  12.506  66.561  1.00  0.00    -0.211 Ca 
HETATM    2  O   UNL     2      -6.936   5.789  68.132  1.00  0.00    -0.065 OA 
HETATM    3  C   UNL     2      -6.843   7.200  67.899  1.00  0.00    -0.074 C  
HETATM    4  H   UNL     2      -6.094   5.501  68.466  1.00  0.00     0.000 HD 
HETATM    5  O   UNL     3     -11.601  11.591  70.648  1.00  0.00    -0.448 OA 
HETATM    6  H   UNL     3     -12.157  10.945  71.067  1.00  0.00     0.000 HD 
HETATM    7  C   UNL     3     -12.322  12.055  69.471  1.00  0.00     0.002 C  
ENDROOT
BRANCH   3   8
HETATM    8  C   UNL     2      -8.182   7.657  67.369  1.00  0.00    -0.116 C  
HETATM    9  H   UNL     2     -10.064   7.316  67.817  1.00  0.00     0.000 HD 
HETATM   10  O   UNL     2      -9.222   7.028  68.151  1.00  0.00    -0.132 OA 
BRANCH   8  11
HETATM   11  C   UNL     2      -8.457   7.365  65.879  1.00  0.00    -0.150 C  
HETATM   12  C   UNL     2      -7.362   7.525  64.855  1.00  0.00    -0.079 C  
HETATM   13  O   UNL     2      -9.284   8.467  65.486  1.00  0.00    -0.120 OA 
HETATM   14  O   UNL     2      -8.623  10.678  65.370  1.00  0.00    -0.177 OA 
HETATM   15  H   UNL     2      -5.561   9.067  63.448  1.00  0.00     0.000 HD 
HETATM   16  O   UNL     2      -6.951   6.495  64.253  1.00  0.00    -0.047 OA 
HETATM   17  C   UNL     2      -8.405   9.491  65.279  1.00  0.00    -0.139 C  
HETATM   18  C   UNL     2      -7.192   8.859  64.691  1.00  0.00    -0.096 C  
HETATM   19  O   UNL     2      -6.334   9.470  63.823  1.00  0.00    -0.092 OA 
ENDBRANCH   8  11
ENDBRANCH   3   8
BRANCH   7  20
HETATM   20  C   UNL     3     -11.424  13.098  68.795  1.00  0.00    -0.307 C  
HETATM   21  O   UNL     3     -10.987  14.062  69.751  1.00  0.00    -0.444 OA 
HETATM   22  H   UNL     3     -10.431  14.708  69.333  1.00  0.00     0.000 HD 
BRANCH  20  23
HETATM   23  C   UNL     3     -11.803  13.736  67.430  1.00  0.00    -0.396 C  
HETATM   24  O   UNL     3     -10.059  16.257  65.817  1.00  0.00    -0.337 OA 
HETATM   25  C   UNL     3     -10.662  13.973  65.442  1.00  0.00    -0.337 C  
HETATM   26  C   UNL     3     -11.504  13.156  66.087  1.00  0.00    -0.330 C  
HETATM   27  O   UNL     3     -10.197  13.820  64.155  1.00  0.00    -0.705 OA 
HETATM   28  O   UNL     3     -11.362  15.100  67.325  1.00  0.00    -0.338 OA 
HETATM   29  C   UNL     3     -10.569  15.219  66.205  1.00  0.00    -0.313 C  
HETATM   30  O   UNL     3     -12.175  12.141  65.791  1.00  0.00    -0.586 OA 
HETATM   31  H   UNL     3     -10.258  13.011  63.660  1.00  0.00     0.000 HD 
ENDBRANCH  20  23
ENDBRANCH   7  20
TORSDOF 4
ENDMDL
MODEL      249
REMARK 921   NORMALIZED FREE ENERGY PREDICTED BY IDOCK:   -4.22 KCAL/MOL
REMARK 922        TOTAL FREE ENERGY PREDICTED BY IDOCK:   -7.13 KCAL/MOL
REMARK 923 INTER-LIGAND FREE ENERGY PREDICTED BY IDOCK:   -5.77 KCAL/MOL
REMARK 924 INTRA-LIGAND FREE ENERGY PREDICTED BY IDOCK:   -1.35 KCAL/MOL
REMARK 927      BINDING AFFINITY PREDICTED BY RF-SCORE:    0.00 PKD
ROOT
HETATM    1 CA   UNL     1      -8.028   8.515  69.492  1.00  0.00    -0.086 Ca 
HETATM    2  O   UNL     2     -14.184   8.981  72.788  1.00  0.00    -0.933 OA 
HETATM    3  C   UNL     2     -12.948   9.232  72.108  1.00  0.00    -0.424 C  
HETATM    4  H   UNL     2     -14.606   9.820  72.927  1.00  0.00     0.000 HD 
HETATM    5  O   UNL     3     -11.391   5.818  66.159  1.00  0.00    -0.711 OA 
HETATM    6  H   UNL     3     -12.163   5.268  66.112  1.00  0.00     0.000 HD 
HETATM    7  C   UNL     3     -10.292   4.954  66.568  1.00  0.00    -0.270 C  
ENDROOT
BRANCH   3   8
HETATM    8  C   UNL     2     -12.277   7.897  71.886  1.00  0.00    -0.314 C  
HETATM    9  H   UNL     2     -12.855   6.020  71.850  1.00  0.00     0.000 HD 
HETATM   10  O   UNL     2     -13.278   6.860  71.989  1.00  0.00    -0.236 OA 
BRANCH   8  11
HETATM   11  C   UNL     2     -11.123   7.550  72.851  1.00  0.00    -0.375 C  
HETATM   12  C   UNL     2      -9.690   7.777  72.441  1.00  0.00    -0.192 C  
HETATM   13  O   UNL     2     -11.125   6.117  72.848  1.00  0.00    -0.254 OA 
HETATM   14  O   UNL     2     -10.593   4.771  71.047  1.00  0.00    -0.109 OA 
HETATM   15  H   UNL     2      -7.511   7.246  70.838  1.00  0.00     0.000 HD 
HETATM   16  O   UNL     2      -9.018   8.638  73.071  1.00  0.00    -0.326 OA 
HETATM   17  C   UNL     2     -10.466   5.783  71.699  1.00  0.00    -0.231 C  
HETATM   18  C   UNL     2      -9.398   6.807  71.543  1.00  0.00    -0.153 C  
HETATM   19  O   UNL     2      -8.193   6.593  70.937  1.00  0.00    -0.121 OA 
ENDBRANCH   8  11
ENDBRANCH   3   8
BRANCH   7  20
HETATM   20  C   UNL     3      -9.045   5.842  66.644  1.00  0.00    -0.132 C  
HETATM   21  O   UNL     3      -8.497   5.805  67.961  1.00  0.00    -0.107 OA 
HETATM   22  H   UNL     3      -7.725   6.355  68.008  1.00  0.00     0.000 HD 
BRANCH  20  23
HETATM   23  C   UNL     3      -9.021   7.266  66.024  1.00  0.00    -0.116 C  
HETATM   24  O   UNL     3      -7.578  10.074  67.451  1.00  0.00    -0.091 OA 
HETATM   25  C   UNL     3      -7.308   8.716  65.499  1.00  0.00    -0.084 C  
HETATM   26  C   UNL     3      -8.066   7.742  64.980  1.00  0.00    -0.139 C  
HETATM   27  O   UNL     3      -6.352   9.453  64.837  1.00  0.00    -0.072 OA 
HETATM   28  O   UNL     3      -8.982   8.296  67.026  1.00  0.00    -0.133 OA 
HETATM   29  C   UNL     3      -7.882   9.092  66.793  1.00  0.00    -0.104 C  
HETATM   30  O   UNL     3      -8.247   7.256  63.840  1.00  0.00    -0.060 OA 
HETATM   31  H   UNL     3      -5.981   9.209  63.997  1.00  0.00     0.000 HD 
ENDBRANCH  20  23
ENDBRANCH   7  20
TORSDOF 4
ENDMDL
MODEL      250
REMARK 921   NORMALIZED FREE ENERGY PREDICTED BY IDOCK:   -4.21 KCAL/MOL
REMARK 922        TOTAL FREE ENERGY PREDICTED BY IDOCK:   -7.12 KCAL/MOL
REMARK 923 INTER-LIGAND FREE ENERGY PREDICTED BY IDOCK:   -6.13 KCAL/MOL
REMARK 924 INTRA-LIGAND FREE ENERGY PREDICTED BY IDOCK:   -0.99 KCAL/MOL
REMARK 927      BINDING AFFINITY PREDICTED BY RF-SCORE:    0.00 PKD
ROOT
HETATM    1 CA   UNL     1      -7.311  12.948  69.015  1.00  0.00    -0.094 Ca 
HETATM    2  O   UNL     2     -11.515  16.101  64.394  1.00  0.00    -0.657 OA 
HETATM    3  C   UNL     2     -10.418  15.498  65.089  1.00  0.00    -0.403 C  
HETATM    4  H   UNL     2     -11.204  16.344  63.530  1.00  0.00     0.000 HD 
HETATM    5  O   UNL     3     -11.133   9.176  68.088  1.00  0.00    -0.485 OA 
HETATM    6  H   UNL     3     -12.048   9.031  67.882  1.00  0.00     0.000 HD 
HETATM    7  C   UNL     3     -11.075   9.491  69.509  1.00  0.00    -0.142 C  
ENDROOT
BRANCH   3   8
HETATM    8  C   UNL     2     -10.913  15.111  66.463  1.00  0.00    -0.318 C  
HETATM    9  H   UNL     2     -12.508  14.218  67.183  1.00  0.00     0.000 HD 
HETATM   10  O   UNL     2     -12.196  14.461  66.319  1.00  0.00    -0.412 OA 
BRANCH   8  11
HETATM   11  C   UNL     2     -11.069  16.264  67.477  1.00  0.00    -0.140 C  
HETATM   12  C   UNL     2     -10.099  17.419  67.476  1.00  0.00    -0.322 C  
HETATM   13  O   UNL     2     -10.679  15.655  68.714  1.00  0.00    -0.231 OA 
HETATM   14  O   UNL     2      -8.557  14.909  69.242  1.00  0.00    -0.175 OA 
HETATM   15  H   UNL     2      -7.570  18.465  67.811  1.00  0.00     0.000 HD 
HETATM   16  O   UNL     2     -10.534  18.564  67.176  1.00  0.00    -0.380 OA 
HETATM   17  C   UNL     2      -9.314  15.668  68.680  1.00  0.00    -0.201 C  
HETATM   18  C   UNL     2      -8.947  16.943  68.004  1.00  0.00    -0.224 C  
HETATM   19  O   UNL     2      -7.805  17.652  68.241  1.00  0.00    -0.236 OA 
ENDBRANCH   8  11
ENDBRANCH   3   8
BRANCH   7  20
HETATM   20  C   UNL     3      -9.597   9.726  69.842  1.00  0.00    -0.235 C  
HETATM   21  O   UNL     3      -9.421   9.806  71.256  1.00  0.00    -0.280 OA 
HETATM   22  H   UNL     3      -8.505   9.952  71.462  1.00  0.00     0.000 HD 
BRANCH  20  23
HETATM   23  C   UNL     3      -8.745  10.772  69.071  1.00  0.00    -0.130 C  
HETATM   24  O   UNL     3      -6.013  10.072  67.059  1.00  0.00    -0.050 OA 
HETATM   25  C   UNL     3      -8.203  11.012  66.844  1.00  0.00    -0.140 C  
HETATM   26  C   UNL     3      -9.105  11.387  67.759  1.00  0.00    -0.158 C  
HETATM   27  O   UNL     3      -8.151  11.418  65.529  1.00  0.00    -0.361 OA 
HETATM   28  O   UNL     3      -7.386  10.341  68.891  1.00  0.00    -0.079 OA 
HETATM   29  C   UNL     3      -7.096  10.358  67.544  1.00  0.00    -0.086 C  
HETATM   30  O   UNL     3     -10.054  12.203  67.803  1.00  0.00    -0.192 OA 
HETATM   31  H   UNL     3      -8.869  11.843  65.075  1.00  0.00     0.000 HD 
ENDBRANCH  20  23
ENDBRANCH   7  20
TORSDOF 4
ENDMDL
MODEL      251
REMARK 921   NORMALIZED FREE ENERGY PREDICTED BY IDOCK:   -4.21 KCAL/MOL
REMARK 922        TOTAL FREE ENERGY PREDICTED BY IDOCK:   -7.12 KCAL/MOL
REMARK 923 INTER-LIGAND FREE ENERGY PREDICTED BY IDOCK:   -6.19 KCAL/MOL
REMARK 924 INTRA-LIGAND FREE ENERGY PREDICTED BY IDOCK:   -0.92 KCAL/MOL
REMARK 927      BINDING AFFINITY PREDICTED BY RF-SCORE:    0.00 PKD
ROOT
HETATM    1 CA   UNL     1     -12.063  13.494  69.744  1.00  0.00    -0.238 Ca 
HETATM    2  O   UNL     2     -10.102   6.777  69.621  1.00  0.00    -0.177 OA 
HETATM    3  C   UNL     2     -10.742   8.034  69.870  1.00  0.00    -0.242 C  
HETATM    4  H   UNL     2     -10.577   6.116  70.112  1.00  0.00     0.000 HD 
HETATM    5  O   UNL     3     -12.791  12.118  64.522  1.00  0.00    -0.596 OA 
HETATM    6  H   UNL     3     -12.474  11.577  63.809  1.00  0.00     0.000 HD 
HETATM    7  C   UNL     3     -11.878  13.249  64.619  1.00  0.00    -0.378 C  
ENDROOT
BRANCH   3   8
HETATM    8  C   UNL     2      -9.988   9.085  69.089  1.00  0.00    -0.185 C  
HETATM    9  H   UNL     2      -9.910  11.048  69.084  1.00  0.00     0.000 HD 
HETATM   10  O   UNL     2     -10.384  10.387  69.575  1.00  0.00    -0.222 OA 
BRANCH   8  11
HETATM   11  C   UNL     2     -10.183   9.063  67.559  1.00  0.00    -0.241 C  
HETATM   12  C   UNL     2      -9.174   8.381  66.670  1.00  0.00    -0.180 C  
HETATM   13  O   UNL     2      -9.919  10.420  67.184  1.00  0.00    -0.181 OA 
HETATM   14  O   UNL     2      -7.876  11.490  67.336  1.00  0.00    -0.128 OA 
HETATM   15  H   UNL     2      -6.644   8.154  65.598  1.00  0.00     0.000 HD 
HETATM   16  O   UNL     2      -9.540   7.361  66.023  1.00  0.00    -0.031 OA 
HETATM   17  C   UNL     2      -8.556  10.504  67.160  1.00  0.00    -0.127 C  
HETATM   18  C   UNL     2      -8.087   9.188  66.645  1.00  0.00    -0.111 C  
HETATM   19  O   UNL     2      -6.943   8.993  65.927  1.00  0.00    -0.085 OA 
ENDBRANCH   8  11
ENDBRANCH   3   8
BRANCH   7  20
HETATM   20  C   UNL     3     -12.388  14.122  65.770  1.00  0.00    -0.461 C  
HETATM   21  O   UNL     3     -13.686  14.628  65.464  1.00  0.00    -0.236 OA 
HETATM   22  H   UNL     3     -14.003  15.169  66.177  1.00  0.00     0.000 HD 
BRANCH  20  23
HETATM   23  C   UNL     3     -11.478  15.179  66.455  1.00  0.00    -0.171 C  
HETATM   24  O   UNL     3      -8.962  14.510  68.740  1.00  0.00    -0.188 OA 
HETATM   25  C   UNL     3      -9.192  15.450  66.552  1.00  0.00    -0.292 C  
HETATM   26  C   UNL     3     -10.271  15.811  65.846  1.00  0.00    -0.355 C  
HETATM   27  O   UNL     3      -7.898  15.872  66.346  1.00  0.00    -0.231 OA 
HETATM   28  O   UNL     3     -11.030  14.753  67.753  1.00  0.00    -0.274 OA 
HETATM   29  C   UNL     3      -9.653  14.788  67.774  1.00  0.00    -0.209 C  
HETATM   30  O   UNL     3     -10.510  16.624  64.925  1.00  0.00    -0.657 OA 
HETATM   31  H   UNL     3      -7.599  16.302  65.552  1.00  0.00     0.000 HD 
ENDBRANCH  20  23
ENDBRANCH   7  20
TORSDOF 4
ENDMDL
MODEL      252
REMARK 921   NORMALIZED FREE ENERGY PREDICTED BY IDOCK:   -4.21 KCAL/MOL
REMARK 922        TOTAL FREE ENERGY PREDICTED BY IDOCK:   -7.12 KCAL/MOL
REMARK 923 INTER-LIGAND FREE ENERGY PREDICTED BY IDOCK:   -5.76 KCAL/MOL
REMARK 924 INTRA-LIGAND FREE ENERGY PREDICTED BY IDOCK:   -1.35 KCAL/MOL
REMARK 927      BINDING AFFINITY PREDICTED BY RF-SCORE:    0.00 PKD
ROOT
HETATM    1 CA   UNL     1     -12.157  13.141  69.577  1.00  0.00    -0.239 Ca 
HETATM    2  O   UNL     2      -6.552  16.274  66.795  1.00  0.00    -0.255 OA 
HETATM    3  C   UNL     2      -7.597  15.799  67.651  1.00  0.00    -0.156 C  
HETATM    4  H   UNL     2      -5.975  16.813  67.323  1.00  0.00     0.000 HD 
HETATM    5  O   UNL     3      -9.066   8.931  68.023  1.00  0.00    -0.139 OA 
HETATM    6  H   UNL     3      -8.437   8.622  67.382  1.00  0.00     0.000 HD 
HETATM    7  C   UNL     3     -10.374   8.851  67.388  1.00  0.00    -0.269 C  
ENDROOT
BRANCH   3   8
HETATM    8  C   UNL     2      -8.514  14.942  66.810  1.00  0.00    -0.180 C  
HETATM    9  H   UNL     2     -10.194  15.220  65.832  1.00  0.00     0.000 HD 
HETATM   10  O   UNL     2      -9.617  15.759  66.360  1.00  0.00    -0.244 OA 
BRANCH   8  11
HETATM   11  C   UNL     2      -9.093  13.689  67.501  1.00  0.00    -0.213 C  
HETATM   12  C   UNL     2      -8.423  12.348  67.337  1.00  0.00    -0.179 C  
HETATM   13  O   UNL     2     -10.282  13.430  66.746  1.00  0.00    -0.252 OA 
HETATM   14  O   UNL     2     -10.361  12.770  64.533  1.00  0.00    -0.336 OA 
HETATM   15  H   UNL     2      -7.620  10.208  65.795  1.00  0.00     0.000 HD 
HETATM   16  O   UNL     2      -7.911  11.808  68.355  1.00  0.00    -0.128 OA 
HETATM   17  C   UNL     2      -9.837  12.791  65.624  1.00  0.00    -0.179 C  
HETATM   18  C   UNL     2      -8.705  11.938  66.078  1.00  0.00     0.057 C  
HETATM   19  O   UNL     2      -8.342  10.753  65.506  1.00  0.00    -0.168 OA 
ENDBRANCH   8  11
ENDBRANCH   3   8
BRANCH   7  20
HETATM   20  C   UNL     3     -11.390   9.350  68.423  1.00  0.00     0.348 C  
HETATM   21  O   UNL     3     -12.073  10.499  67.925  1.00  0.00    -0.574 OA 
HETATM   22  H   UNL     3     -12.702  10.807  68.566  1.00  0.00     0.000 HD 
BRANCH  20  23
HETATM   23  C   UNL     3     -11.025   9.474  69.928  1.00  0.00    -0.238 C  
HETATM   24  O   UNL     3     -13.116  10.640  72.431  1.00  0.00    -0.269 OA 
HETATM   25  C   UNL     3     -11.976   8.619  71.845  1.00  0.00    -0.356 C  
HETATM   26  C   UNL     3     -11.044   8.359  70.921  1.00  0.00    -0.254 C  
HETATM   27  O   UNL     3     -12.259   7.864  72.961  1.00  0.00    -0.630 OA 
HETATM   28  O   UNL     3     -11.749  10.531  70.579  1.00  0.00    -0.298 OA 
HETATM   29  C   UNL     3     -12.428   9.999  71.654  1.00  0.00    -0.418 C  
HETATM   30  O   UNL     3     -10.134   7.510  70.777  1.00  0.00    -0.193 OA 
HETATM   31  H   UNL     3     -11.965   6.969  73.085  1.00  0.00     0.000 HD 
ENDBRANCH  20  23
ENDBRANCH   7  20
TORSDOF 4
ENDMDL
MODEL      253
REMARK 921   NORMALIZED FREE ENERGY PREDICTED BY IDOCK:   -4.19 KCAL/MOL
REMARK 922        TOTAL FREE ENERGY PREDICTED BY IDOCK:   -7.10 KCAL/MOL
REMARK 923 INTER-LIGAND FREE ENERGY PREDICTED BY IDOCK:   -6.32 KCAL/MOL
REMARK 924 INTRA-LIGAND FREE ENERGY PREDICTED BY IDOCK:   -0.78 KCAL/MOL
REMARK 927      BINDING AFFINITY PREDICTED BY RF-SCORE:    0.00 PKD
ROOT
HETATM    1 CA   UNL     1      -8.909   8.640  65.516  1.00  0.00    -0.129 Ca 
HETATM    2  O   UNL     2     -13.421  13.988  65.483  1.00  0.00    -0.705 OA 
HETATM    3  C   UNL     2     -12.649  12.819  65.186  1.00  0.00    -0.444 C  
HETATM    4  H   UNL     2     -14.058  14.092  64.785  1.00  0.00     0.000 HD 
HETATM    5  O   UNL     3     -11.894   7.730  69.982  1.00  0.00    -0.461 OA 
HETATM    6  H   UNL     3     -12.379   8.137  70.690  1.00  0.00     0.000 HD 
HETATM    7  C   UNL     3     -10.485   7.833  70.335  1.00  0.00    -0.221 C  
ENDROOT
BRANCH   3   8
HETATM    8  C   UNL     2     -11.637  12.654  66.295  1.00  0.00    -0.386 C  
HETATM    9  H   UNL     2     -11.395  11.425  67.808  1.00  0.00     0.000 HD 
HETATM   10  O   UNL     2     -12.031  11.528  67.110  1.00  0.00    -0.581 OA 
BRANCH   8  11
HETATM   11  C   UNL     2     -11.441  13.874  67.221  1.00  0.00    -0.344 C  
HETATM   12  C   UNL     2     -10.624  15.056  66.764  1.00  0.00    -0.301 C  
HETATM   13  O   UNL     2     -10.552  13.372  68.226  1.00  0.00    -0.240 OA 
HETATM   14  O   UNL     2      -8.356  12.735  67.891  1.00  0.00    -0.149 OA 
HETATM   15  H   UNL     2      -8.240  16.205  65.990  1.00  0.00     0.000 HD 
HETATM   16  O   UNL     2     -11.210  16.161  66.603  1.00  0.00    -0.036 OA 
HETATM   17  C   UNL     2      -9.319  13.426  67.642  1.00  0.00    -0.217 C  
HETATM   18  C   UNL     2      -9.330  14.658  66.807  1.00  0.00    -0.257 C  
HETATM   19  O   UNL     2      -8.233  15.419  66.523  1.00  0.00    -0.223 OA 
ENDBRANCH   8  11
ENDBRANCH   3   8
BRANCH   7  20
HETATM   20  C   UNL     3      -9.701   7.177  69.193  1.00  0.00    -0.158 C  
HETATM   21  O   UNL     3      -9.607   8.071  68.086  1.00  0.00    -0.149 OA 
HETATM   22  H   UNL     3      -9.121   7.665  67.378  1.00  0.00     0.000 HD 
BRANCH  20  23
HETATM   23  C   UNL     3      -9.972   5.710  68.758  1.00  0.00    -0.167 C  
HETATM   24  O   UNL     3     -10.825   4.667  65.566  1.00  0.00    -0.278 OA 
HETATM   25  C   UNL     3      -9.044   4.362  67.135  1.00  0.00    -0.131 C  
HETATM   26  C   UNL     3      -8.928   4.696  68.426  1.00  0.00    -0.113 C  
HETATM   27  O   UNL     3      -8.306   3.414  66.464  1.00  0.00    -0.098 OA 
HETATM   28  O   UNL     3     -10.896   5.629  67.660  1.00  0.00    -0.225 OA 
HETATM   29  C   UNL     3     -10.295   4.933  66.633  1.00  0.00    -0.242 C  
HETATM   30  O   UNL     3      -8.271   4.277  69.407  1.00  0.00    -0.063 OA 
HETATM   31  H   UNL     3      -7.494   3.043  66.790  1.00  0.00     0.000 HD 
ENDBRANCH  20  23
ENDBRANCH   7  20
TORSDOF 4
ENDMDL
MODEL      254
REMARK 921   NORMALIZED FREE ENERGY PREDICTED BY IDOCK:   -4.18 KCAL/MOL
REMARK 922        TOTAL FREE ENERGY PREDICTED BY IDOCK:   -7.09 KCAL/MOL
REMARK 923 INTER-LIGAND FREE ENERGY PREDICTED BY IDOCK:   -5.71 KCAL/MOL
REMARK 924 INTRA-LIGAND FREE ENERGY PREDICTED BY IDOCK:   -1.38 KCAL/MOL
REMARK 927      BINDING AFFINITY PREDICTED BY RF-SCORE:    0.00 PKD
ROOT
HETATM    1 CA   UNL     1     -11.026  11.602  70.196  1.00  0.00    -0.345 Ca 
HETATM    2  O   UNL     2      -7.473  17.171  67.886  1.00  0.00    -0.170 OA 
HETATM    3  C   UNL     2      -7.984  16.059  68.630  1.00  0.00    -0.174 C  
HETATM    4  H   UNL     2      -6.740  17.526  68.376  1.00  0.00     0.000 HD 
HETATM    5  O   UNL     3      -8.829   9.792  65.550  1.00  0.00    -0.146 OA 
HETATM    6  H   UNL     3      -8.554  10.033  64.674  1.00  0.00     0.000 HD 
HETATM    7  C   UNL     3     -10.277   9.653  65.505  1.00  0.00     0.054 C  
ENDROOT
BRANCH   3   8
HETATM    8  C   UNL     2      -9.149  15.494  67.851  1.00  0.00    -0.175 C  
HETATM    9  H   UNL     2      -9.663  15.401  65.957  1.00  0.00     0.000 HD 
HETATM   10  O   UNL     2      -8.930  15.756  66.447  1.00  0.00    -0.273 OA 
BRANCH   8  11
HETATM   11  C   UNL     2     -10.544  16.035  68.230  1.00  0.00    -0.283 C  
HETATM   12  C   UNL     2     -11.216  15.591  69.505  1.00  0.00    -0.299 C  
HETATM   13  O   UNL     2     -11.406  15.379  67.292  1.00  0.00    -0.309 OA 
HETATM   14  O   UNL     2     -11.838  13.111  67.212  1.00  0.00    -0.358 OA 
HETATM   15  H   UNL     2     -12.361  13.653  71.098  1.00  0.00     0.000 HD 
HETATM   16  O   UNL     2     -11.415  16.450  70.406  1.00  0.00    -0.313 OA 
HETATM   17  C   UNL     2     -11.583  14.130  67.813  1.00  0.00    -0.347 C  
HETATM   18  C   UNL     2     -11.629  14.319  69.289  1.00  0.00    -0.306 C  
HETATM   19  O   UNL     2     -12.330  13.532  70.156  1.00  0.00    -0.317 OA 
ENDBRANCH   8  11
ENDBRANCH   3   8
BRANCH   7  20
HETATM   20  C   UNL     3     -10.721   9.264  66.920  1.00  0.00    -0.094 C  
HETATM   21  O   UNL     3     -11.106  10.427  67.650  1.00  0.00    -0.310 OA 
HETATM   22  H   UNL     3     -11.381  10.187  68.527  1.00  0.00     0.000 HD 
BRANCH  20  23
HETATM   23  C   UNL     3      -9.908   8.257  67.780  1.00  0.00    -0.170 C  
HETATM   24  O   UNL     3     -11.196   6.206  70.257  1.00  0.00    -0.343 OA 
HETATM   25  C   UNL     3     -10.104   5.989  68.139  1.00  0.00    -0.160 C  
HETATM   26  C   UNL     3      -9.495   6.887  67.355  1.00  0.00    -0.132 C  
HETATM   27  O   UNL     3      -9.937   4.623  68.105  1.00  0.00    -0.133 OA 
HETATM   28  O   UNL     3     -10.489   8.057  69.080  1.00  0.00    -0.218 OA 
HETATM   29  C   UNL     3     -10.731   6.711  69.248  1.00  0.00    -0.265 C  
HETATM   30  O   UNL     3      -8.598   6.855  66.481  1.00  0.00    -0.119 OA 
HETATM   31  H   UNL     3      -9.530   4.155  67.385  1.00  0.00     0.000 HD 
ENDBRANCH  20  23
ENDBRANCH   7  20
TORSDOF 4
ENDMDL
MODEL      255
REMARK 921   NORMALIZED FREE ENERGY PREDICTED BY IDOCK:   -4.17 KCAL/MOL
REMARK 922        TOTAL FREE ENERGY PREDICTED BY IDOCK:   -7.07 KCAL/MOL
REMARK 923 INTER-LIGAND FREE ENERGY PREDICTED BY IDOCK:   -6.42 KCAL/MOL
REMARK 924 INTRA-LIGAND FREE ENERGY PREDICTED BY IDOCK:   -0.65 KCAL/MOL
REMARK 927      BINDING AFFINITY PREDICTED BY RF-SCORE:    0.00 PKD
ROOT
HETATM    1 CA   UNL     1     -12.586   6.520  68.865  1.00  0.00    -0.441 Ca 
HETATM    2  O   UNL     2      -9.389   3.285  63.546  1.00  0.00    -0.095 OA 
HETATM    3  C   UNL     2     -10.329   3.817  64.486  1.00  0.00    -0.200 C  
HETATM    4  H   UNL     2      -9.885   2.829  62.876  1.00  0.00     0.000 HD 
HETATM    5  O   UNL     3     -10.169  10.630  66.228  1.00  0.00    -0.233 OA 
HETATM    6  H   UNL     3      -9.417  10.886  65.708  1.00  0.00     0.000 HD 
HETATM    7  C   UNL     3      -9.722  10.593  67.613  1.00  0.00    -0.165 C  
ENDROOT
BRANCH   3   8
HETATM    8  C   UNL     2      -9.540   4.543  65.551  1.00  0.00    -0.185 C  
HETATM    9  H   UNL     2      -8.152   5.933  65.571  1.00  0.00     0.000 HD 
HETATM   10  O   UNL     2      -8.649   5.477  64.902  1.00  0.00    -0.149 OA 
BRANCH   8  11
HETATM   11  C   UNL     2      -8.702   3.656  66.496  1.00  0.00    -0.121 C  
HETATM   12  C   UNL     2      -9.334   3.023  67.710  1.00  0.00    -0.202 C  
HETATM   13  O   UNL     2      -7.860   4.605  67.161  1.00  0.00    -0.093 OA 
HETATM   14  O   UNL     2      -8.567   6.242  68.630  1.00  0.00    -0.121 OA 
HETATM   15  H   UNL     2     -10.561   3.191  70.173  1.00  0.00     0.000 HD 
HETATM   16  O   UNL     2      -9.419   1.765  67.752  1.00  0.00    -0.162 OA 
HETATM   17  C   UNL     2      -8.658   5.144  68.129  1.00  0.00    -0.102 C  
HETATM   18  C   UNL     2      -9.515   4.023  68.605  1.00  0.00    -0.154 C  
HETATM   19  O   UNL     2     -10.015   3.905  69.869  1.00  0.00    -0.151 OA 
ENDBRANCH   8  11
ENDBRANCH   3   8
BRANCH   7  20
HETATM   20  C   UNL     3     -10.937  10.180  68.451  1.00  0.00    -0.244 C  
HETATM   21  O   UNL     3     -12.116  10.801  67.943  1.00  0.00    -0.702 OA 
HETATM   22  H   UNL     3     -12.869  10.545  68.463  1.00  0.00     0.000 HD 
BRANCH  20  23
HETATM   23  C   UNL     3     -10.887  10.166  70.004  1.00  0.00    -0.307 C  
HETATM   24  O   UNL     3     -13.378  11.312  72.122  1.00  0.00    -0.457 OA 
HETATM   25  C   UNL     3     -12.270   9.254  71.606  1.00  0.00    -0.370 C  
HETATM   26  C   UNL     3     -11.184   8.988  70.872  1.00  0.00    -0.287 C  
HETATM   27  O   UNL     3     -12.827   8.446  72.571  1.00  0.00    -0.541 OA 
HETATM   28  O   UNL     3     -11.663  11.228  70.584  1.00  0.00    -0.318 OA 
HETATM   29  C   UNL     3     -12.584  10.676  71.448  1.00  0.00    -0.421 C  
HETATM   30  O   UNL     3     -10.319   8.082  70.842  1.00  0.00    -0.199 OA 
HETATM   31  H   UNL     3     -12.623   7.523  72.674  1.00  0.00     0.000 HD 
ENDBRANCH  20  23
ENDBRANCH   7  20
TORSDOF 4
ENDMDL
MODEL      256
REMARK 921   NORMALIZED FREE ENERGY PREDICTED BY IDOCK:   -4.16 KCAL/MOL
REMARK 922        TOTAL FREE ENERGY PREDICTED BY IDOCK:   -7.06 KCAL/MOL
REMARK 923 INTER-LIGAND FREE ENERGY PREDICTED BY IDOCK:   -6.29 KCAL/MOL
REMARK 924 INTRA-LIGAND FREE ENERGY PREDICTED BY IDOCK:   -0.77 KCAL/MOL
REMARK 927      BINDING AFFINITY PREDICTED BY RF-SCORE:    0.00 PKD
ROOT
HETATM    1 CA   UNL     1      -9.309  13.937  64.555  1.00  0.00    -0.543 Ca 
HETATM    2  O   UNL     2      -5.558   8.772  67.422  1.00  0.00    -0.038 OA 
HETATM    3  C   UNL     2      -6.030   9.891  66.664  1.00  0.00    -0.055 C  
HETATM    4  H   UNL     2      -4.640   8.651  67.208  1.00  0.00     0.000 HD 
HETATM    5  O   UNL     3      -9.328  15.225  69.849  1.00  0.00    -0.440 OA 
HETATM    6  H   UNL     3      -9.322  14.880  70.734  1.00  0.00     0.000 HD 
HETATM    7  C   UNL     3     -10.694  15.089  69.363  1.00  0.00    -0.261 C  
ENDROOT
BRANCH   3   8
HETATM    8  C   UNL     2      -7.489  10.083  67.005  1.00  0.00    -0.092 C  
HETATM    9  H   UNL     2      -8.832  11.485  66.704  1.00  0.00     0.000 HD 
HETATM   10  O   UNL     2      -7.915  11.364  66.489  1.00  0.00    -0.164 OA 
BRANCH   8  11
HETATM   11  C   UNL     2      -7.848  10.025  68.505  1.00  0.00    -0.093 C  
HETATM   12  C   UNL     2      -8.268   8.723  69.140  1.00  0.00    -0.119 C  
HETATM   13  O   UNL     2      -9.106  10.707  68.558  1.00  0.00    -0.144 OA 
HETATM   14  O   UNL     2     -11.084   9.968  67.619  1.00  0.00    -0.285 OA 
HETATM   15  H   UNL     2     -10.011   6.604  69.408  1.00  0.00     0.000 HD 
HETATM   16  O   UNL     2      -7.520   8.220  70.022  1.00  0.00    -0.062 OA 
HETATM   17  C   UNL     2     -10.014   9.772  68.150  1.00  0.00    -0.154 C  
HETATM   18  C   UNL     2      -9.525   8.478  68.701  1.00  0.00    -0.143 C  
HETATM   19  O   UNL     2     -10.323   7.429  69.056  1.00  0.00    -0.201 OA 
ENDBRANCH   8  11
ENDBRANCH   3   8
BRANCH   7  20
HETATM   20  C   UNL     3     -10.704  15.646  67.935  1.00  0.00    -0.294 C  
HETATM   21  O   UNL     3      -9.788  14.918  67.119  1.00  0.00    -0.227 OA 
HETATM   22  H   UNL     3      -9.795  15.263  66.234  1.00  0.00     0.000 HD 
BRANCH  20  23
HETATM   23  C   UNL     3     -10.673  17.174  67.657  1.00  0.00    -0.302 C  
HETATM   24  O   UNL     3      -8.302  19.402  68.847  1.00  0.00    -0.368 OA 
HETATM   25  C   UNL     3      -9.079  18.567  66.744  1.00  0.00    -0.297 C  
HETATM   26  C   UNL     3     -10.143  17.821  66.420  1.00  0.00    -0.357 C  
HETATM   27  O   UNL     3      -8.350  19.367  65.894  1.00  0.00    -0.431 OA 
HETATM   28  O   UNL     3     -10.054  17.910  68.726  1.00  0.00    -0.367 OA 
HETATM   29  C   UNL     3      -9.013  18.647  68.204  1.00  0.00    -0.310 C  
HETATM   30  O   UNL     3     -10.847  17.656  65.397  1.00  0.00    -0.541 OA 
HETATM   31  H   UNL     3      -8.394  19.316  64.946  1.00  0.00     0.000 HD 
ENDBRANCH  20  23
ENDBRANCH   7  20
TORSDOF 4
ENDMDL
MODEL      257
REMARK 921   NORMALIZED FREE ENERGY PREDICTED BY IDOCK:   -4.16 KCAL/MOL
REMARK 922        TOTAL FREE ENERGY PREDICTED BY IDOCK:   -7.06 KCAL/MOL
REMARK 923 INTER-LIGAND FREE ENERGY PREDICTED BY IDOCK:   -5.67 KCAL/MOL
REMARK 924 INTRA-LIGAND FREE ENERGY PREDICTED BY IDOCK:   -1.39 KCAL/MOL
REMARK 927      BINDING AFFINITY PREDICTED BY RF-SCORE:    0.00 PKD
ROOT
HETATM    1 CA   UNL     1      -9.763   8.804  68.488  1.00  0.00    -0.146 Ca 
HETATM    2  O   UNL     2      -9.611   3.188  64.315  1.00  0.00    -0.138 OA 
HETATM    3  C   UNL     2      -9.883   4.153  65.339  1.00  0.00    -0.208 C  
HETATM    4  H   UNL     2     -10.196   2.452  64.457  1.00  0.00     0.000 HD 
HETATM    5  O   UNL     3     -11.264  10.842  63.663  1.00  0.00    -0.419 OA 
HETATM    6  H   UNL     3     -11.160  10.771  62.722  1.00  0.00     0.000 HD 
HETATM    7  C   UNL     3     -10.087  11.543  64.157  1.00  0.00    -0.307 C  
ENDROOT
BRANCH   3   8
HETATM    8  C   UNL     2      -8.954   5.322  65.112  1.00  0.00    -0.101 C  
HETATM    9  H   UNL     2      -8.056   6.127  63.561  1.00  0.00     0.000 HD 
HETATM   10  O   UNL     2      -8.641   5.391  63.703  1.00  0.00    -0.105 OA 
BRANCH   8  11
HETATM   11  C   UNL     2      -7.627   5.297  65.900  1.00  0.00    -0.083 C  
HETATM   12  C   UNL     2      -7.633   5.211  67.405  1.00  0.00    -0.088 C  
HETATM   13  O   UNL     2      -7.148   6.639  65.761  1.00  0.00    -0.059 OA 
HETATM   14  O   UNL     2      -8.137   8.525  66.658  1.00  0.00    -0.101 OA 
HETATM   15  H   UNL     2      -8.221   6.245  69.893  1.00  0.00     0.000 HD 
HETATM   16  O   UNL     2      -7.158   4.176  67.947  1.00  0.00    -0.058 OA 
HETATM   17  C   UNL     2      -7.858   7.347  66.688  1.00  0.00    -0.109 C  
HETATM   18  C   UNL     2      -8.018   6.431  67.850  1.00  0.00    -0.111 C  
HETATM   19  O   UNL     2      -8.119   6.829  69.151  1.00  0.00    -0.117 OA 
ENDBRANCH   8  11
ENDBRANCH   3   8
BRANCH   7  20
HETATM   20  C   UNL     3     -10.255  11.658  65.676  1.00  0.00    -0.243 C  
HETATM   21  O   UNL     3      -9.876  10.435  66.305  1.00  0.00    -0.199 OA 
HETATM   22  H   UNL     3      -9.980  10.506  67.246  1.00  0.00     0.000 HD 
BRANCH  20  23
HETATM   23  C   UNL     3     -11.526  12.289  66.309  1.00  0.00    -0.380 C  
HETATM   24  O   UNL     3     -11.993  12.961  69.675  1.00  0.00    -0.313 OA 
HETATM   25  C   UNL     3     -11.862  14.162  67.610  1.00  0.00    -0.392 C  
HETATM   26  C   UNL     3     -11.850  13.746  66.337  1.00  0.00    -0.404 C  
HETATM   27  O   UNL     3     -12.179  15.424  68.058  1.00  0.00    -0.407 OA 
HETATM   28  O   UNL     3     -11.728  11.862  67.667  1.00  0.00    -0.460 OA 
HETATM   29  C   UNL     3     -11.799  12.979  68.471  1.00  0.00    -0.325 C  
HETATM   30  O   UNL     3     -12.166  14.237  65.229  1.00  0.00    -0.395 OA 
HETATM   31  H   UNL     3     -12.220  16.192  67.498  1.00  0.00     0.000 HD 
ENDBRANCH  20  23
ENDBRANCH   7  20
TORSDOF 4
ENDMDL
MODEL      258
REMARK 921   NORMALIZED FREE ENERGY PREDICTED BY IDOCK:   -4.15 KCAL/MOL
REMARK 922        TOTAL FREE ENERGY PREDICTED BY IDOCK:   -7.04 KCAL/MOL
REMARK 923 INTER-LIGAND FREE ENERGY PREDICTED BY IDOCK:   -5.91 KCAL/MOL
REMARK 924 INTRA-LIGAND FREE ENERGY PREDICTED BY IDOCK:   -1.13 KCAL/MOL
REMARK 927      BINDING AFFINITY PREDICTED BY RF-SCORE:    0.00 PKD
ROOT
HETATM    1 CA   UNL     1      -7.357  12.148  67.671  1.00  0.00    -0.077 Ca 
HETATM    2  O   UNL     2     -10.830   8.131  72.228  1.00  0.00    -0.270 OA 
HETATM    3  C   UNL     2      -9.935   9.040  71.577  1.00  0.00    -0.321 C  
HETATM    4  H   UNL     2     -10.616   8.137  73.154  1.00  0.00     0.000 HD 
HETATM    5  O   UNL     3     -12.423  14.136  67.418  1.00  0.00    -0.554 OA 
HETATM    6  H   UNL     3     -13.347  13.923  67.479  1.00  0.00     0.000 HD 
HETATM    7  C   UNL     3     -11.988  13.708  66.096  1.00  0.00    -0.416 C  
ENDROOT
BRANCH   3   8
HETATM    8  C   UNL     2     -10.276   9.030  70.105  1.00  0.00    -0.197 C  
HETATM    9  H   UNL     2     -11.706   9.781  68.988  1.00  0.00     0.000 HD 
HETATM   10  O   UNL     2     -11.491   9.787  69.913  1.00  0.00    -0.222 OA 
BRANCH   8  11
HETATM   11  C   UNL     2     -10.468   7.640  69.463  1.00  0.00    -0.227 C  
HETATM   12  C   UNL     2      -9.333   6.648  69.435  1.00  0.00    -0.147 C  
HETATM   13  O   UNL     2     -10.526   7.941  68.064  1.00  0.00    -0.213 OA 
HETATM   14  O   UNL     2      -8.786   8.763  66.785  1.00  0.00    -0.119 OA 
HETATM   15  H   UNL     2      -6.823   5.852  68.614  1.00  0.00     0.000 HD 
HETATM   16  O   UNL     2      -9.456   5.580  70.095  1.00  0.00    -0.153 OA 
HETATM   17  C   UNL     2      -9.220   8.096  67.698  1.00  0.00    -0.137 C  
HETATM   18  C   UNL     2      -8.462   7.098  68.501  1.00  0.00    -0.125 C  
HETATM   19  O   UNL     2      -7.307   6.489  68.103  1.00  0.00    -0.085 OA 
ENDBRANCH   8  11
ENDBRANCH   3   8
BRANCH   7  20
HETATM   20  C   UNL     3     -10.497  14.052  65.997  1.00  0.00    -0.304 C  
HETATM   21  O   UNL     3      -9.803  13.022  65.296  1.00  0.00    -0.462 OA 
HETATM   22  H   UNL     3      -8.879  13.235  65.235  1.00  0.00     0.000 HD 
BRANCH  20  23
HETATM   23  C   UNL     3      -9.703  14.588  67.220  1.00  0.00    -0.232 C  
HETATM   24  O   UNL     3      -6.354  15.474  67.229  1.00  0.00    -0.298 OA 
HETATM   25  C   UNL     3      -8.482  16.511  67.573  1.00  0.00    -0.176 C  
HETATM   26  C   UNL     3      -9.711  15.998  67.711  1.00  0.00    -0.221 C  
HETATM   27  O   UNL     3      -8.067  17.763  67.967  1.00  0.00    -0.229 OA 
HETATM   28  O   UNL     3      -8.306  14.252  67.152  1.00  0.00    -0.201 OA 
HETATM   29  C   UNL     3      -7.572  15.416  67.231  1.00  0.00    -0.212 C  
HETATM   30  O   UNL     3     -10.779  16.359  68.256  1.00  0.00    -0.306 OA 
HETATM   31  H   UNL     3      -8.658  18.473  68.190  1.00  0.00     0.000 HD 
ENDBRANCH  20  23
ENDBRANCH   7  20
TORSDOF 4
ENDMDL
MODEL      259
REMARK 921   NORMALIZED FREE ENERGY PREDICTED BY IDOCK:   -4.14 KCAL/MOL
REMARK 922        TOTAL FREE ENERGY PREDICTED BY IDOCK:   -7.03 KCAL/MOL
REMARK 923 INTER-LIGAND FREE ENERGY PREDICTED BY IDOCK:   -7.36 KCAL/MOL
REMARK 924 INTRA-LIGAND FREE ENERGY PREDICTED BY IDOCK:    0.33 KCAL/MOL
REMARK 927      BINDING AFFINITY PREDICTED BY RF-SCORE:    0.00 PKD
ROOT
HETATM    1 CA   UNL     1      -6.411  15.062  67.405  1.00  0.00    -0.117 Ca 
HETATM    2  O   UNL     2     -11.450  10.212  67.636  1.00  0.00    -0.562 OA 
HETATM    3  C   UNL     2     -10.329  11.064  67.894  1.00  0.00    -0.186 C  
HETATM    4  H   UNL     2     -11.544   9.633  68.384  1.00  0.00     0.000 HD 
HETATM    5  O   UNL     3     -10.967  18.051  67.395  1.00  0.00    -0.293 OA 
HETATM    6  H   UNL     3     -11.875  18.085  67.118  1.00  0.00     0.000 HD 
HETATM    7  C   UNL     3     -10.164  18.360  66.221  1.00  0.00    -0.406 C  
ENDROOT
BRANCH   3   8
HETATM    8  C   UNL     2     -10.180  11.984  66.704  1.00  0.00    -0.204 C  
HETATM    9  H   UNL     2      -8.985  13.463  66.210  1.00  0.00     0.000 HD 
HETATM   10  O   UNL     2      -9.079  12.885  66.958  1.00  0.00    -0.214 OA 
BRANCH   8  11
HETATM   11  C   UNL     2     -11.419  12.829  66.341  1.00  0.00    -0.357 C  
HETATM   12  C   UNL     2     -11.407  14.324  66.536  1.00  0.00    -0.346 C  
HETATM   13  O   UNL     2     -12.353  12.484  67.371  1.00  0.00    -0.338 OA 
HETATM   14  O   UNL     2     -12.137  12.989  69.615  1.00  0.00    -0.297 OA 
HETATM   15  H   UNL     2     -11.281  16.562  68.142  1.00  0.00     0.000 HD 
HETATM   16  O   UNL     2     -11.480  15.061  65.515  1.00  0.00    -0.336 OA 
HETATM   17  C   UNL     2     -11.966  13.237  68.442  1.00  0.00    -0.301 C  
HETATM   18  C   UNL     2     -11.502  14.531  67.871  1.00  0.00    -0.325 C  
HETATM   19  O   UNL     2     -11.576  15.736  68.506  1.00  0.00    -0.368 OA 
ENDBRANCH   8  11
ENDBRANCH   3   8
BRANCH   7  20
HETATM   20  C   UNL     3      -8.699  18.305  66.669  1.00  0.00    -0.277 C  
HETATM   21  O   UNL     3      -7.966  17.408  65.836  1.00  0.00    -0.525 OA 
HETATM   22  H   UNL     3      -7.058  17.374  66.113  1.00  0.00     0.000 HD 
BRANCH  20  23
HETATM   23  C   UNL     3      -8.311  18.185  68.168  1.00  0.00    -0.277 C  
HETATM   24  O   UNL     3      -7.386  15.270  69.796  1.00  0.00    -0.199 OA 
HETATM   25  C   UNL     3      -6.431  17.392  69.240  1.00  0.00    -0.245 C  
HETATM   26  C   UNL     3      -6.974  18.512  68.748  1.00  0.00    -0.278 C  
HETATM   27  O   UNL     3      -5.233  17.288  69.910  1.00  0.00    -0.166 OA 
HETATM   28  O   UNL     3      -8.615  16.888  68.708  1.00  0.00    -0.252 OA 
HETATM   29  C   UNL     3      -7.461  16.352  69.236  1.00  0.00    -0.202 C  
HETATM   30  O   UNL     3      -6.700  19.734  68.781  1.00  0.00    -0.293 OA 
HETATM   31  H   UNL     3      -4.565  17.964  69.912  1.00  0.00     0.000 HD 
ENDBRANCH  20  23
ENDBRANCH   7  20
TORSDOF 4
ENDMDL
MODEL      260
REMARK 921   NORMALIZED FREE ENERGY PREDICTED BY IDOCK:   -4.12 KCAL/MOL
REMARK 922        TOTAL FREE ENERGY PREDICTED BY IDOCK:   -7.00 KCAL/MOL
REMARK 923 INTER-LIGAND FREE ENERGY PREDICTED BY IDOCK:   -5.66 KCAL/MOL
REMARK 924 INTRA-LIGAND FREE ENERGY PREDICTED BY IDOCK:   -1.35 KCAL/MOL
REMARK 927      BINDING AFFINITY PREDICTED BY RF-SCORE:    0.00 PKD
ROOT
HETATM    1 CA   UNL     1      -9.544   6.709  68.726  1.00  0.00    -0.132 Ca 
HETATM    2  O   UNL     2      -5.889  11.098  64.684  1.00  0.00    -0.413 OA 
HETATM    3  C   UNL     2      -6.665  10.019  65.216  1.00  0.00    -0.117 C  
HETATM    4  H   UNL     2      -5.780  10.938  63.754  1.00  0.00     0.000 HD 
HETATM    5  O   UNL     3     -12.452  11.309  69.000  1.00  0.00    -0.431 OA 
HETATM    6  H   UNL     3     -12.410  12.258  68.994  1.00  0.00     0.000 HD 
HETATM    7  C   UNL     3     -12.058  10.887  70.336  1.00  0.00    -0.363 C  
ENDROOT
BRANCH   3   8
HETATM    8  C   UNL     2      -6.837  10.274  66.695  1.00  0.00    -0.091 C  
HETATM    9  H   UNL     2      -6.132   9.486  68.351  1.00  0.00     0.000 HD 
HETATM   10  O   UNL     2      -6.023   9.326  67.421  1.00  0.00    -0.048 OA 
BRANCH   8  11
HETATM   11  C   UNL     2      -8.280  10.183  67.236  1.00  0.00    -0.117 C  
HETATM   12  C   UNL     2      -9.454  10.422  66.321  1.00  0.00    -0.171 C  
HETATM   13  O   UNL     2      -8.392  11.360  68.044  1.00  0.00    -0.130 OA 
HETATM   14  O   UNL     2      -8.366  13.537  67.271  1.00  0.00    -0.186 OA 
HETATM   15  H   UNL     2     -10.967  12.047  64.687  1.00  0.00     0.000 HD 
HETATM   16  O   UNL     2     -10.233   9.458  66.085  1.00  0.00    -0.279 OA 
HETATM   17  C   UNL     2      -8.631  12.363  67.148  1.00  0.00    -0.189 C  
HETATM   18  C   UNL     2      -9.490  11.756  66.095  1.00  0.00    -0.226 C  
HETATM   19  O   UNL     2     -10.419  12.434  65.359  1.00  0.00    -0.264 OA 
ENDBRANCH   8  11
ENDBRANCH   3   8
BRANCH   7  20
HETATM   20  C   UNL     3     -12.126   9.355  70.346  1.00  0.00     0.039 C  
HETATM   21  O   UNL     3     -13.285   8.921  71.054  1.00  0.00    -0.526 OA 
HETATM   22  H   UNL     3     -13.327   7.972  71.060  1.00  0.00     0.000 HD 
BRANCH  20  23
HETATM   23  C   UNL     3     -10.874   8.487  70.652  1.00  0.00    -0.225 C  
HETATM   24  O   UNL     3      -7.597   9.607  70.715  1.00  0.00    -0.271 OA 
HETATM   25  C   UNL     3      -9.195   8.659  72.222  1.00  0.00    -0.227 C  
HETATM   26  C   UNL     3     -10.395   8.103  72.013  1.00  0.00    -0.254 C  
HETATM   27  O   UNL     3      -8.397   8.494  73.331  1.00  0.00    -0.374 OA 
HETATM   28  O   UNL     3      -9.695   8.980  69.996  1.00  0.00    -0.170 OA 
HETATM   29  C   UNL     3      -8.727   9.210  70.949  1.00  0.00    -0.221 C  
HETATM   30  O   UNL     3     -11.113   7.266  72.608  1.00  0.00    -0.272 OA 
HETATM   31  H   UNL     3      -8.701   8.136  74.157  1.00  0.00     0.000 HD 
ENDBRANCH  20  23
ENDBRANCH   7  20
TORSDOF 4
ENDMDL
MODEL      261
REMARK 921   NORMALIZED FREE ENERGY PREDICTED BY IDOCK:   -4.10 KCAL/MOL
REMARK 922        TOTAL FREE ENERGY PREDICTED BY IDOCK:   -6.98 KCAL/MOL
REMARK 923 INTER-LIGAND FREE ENERGY PREDICTED BY IDOCK:   -5.72 KCAL/MOL
REMARK 924 INTRA-LIGAND FREE ENERGY PREDICTED BY IDOCK:   -1.26 KCAL/MOL
REMARK 927      BINDING AFFINITY PREDICTED BY RF-SCORE:    0.00 PKD
ROOT
HETATM    1 CA   UNL     1     -10.207   5.191  70.775  1.00  0.00    -0.160 Ca 
HETATM    2  O   UNL     2      -7.701   4.555  64.272  1.00  0.00    -0.074 OA 
HETATM    3  C   UNL     2      -8.395   4.402  65.515  1.00  0.00    -0.114 C  
HETATM    4  H   UNL     2      -8.014   3.875  63.687  1.00  0.00     0.000 HD 
HETATM    5  O   UNL     3     -11.762   9.852  68.419  1.00  0.00    -0.534 OA 
HETATM    6  H   UNL     3     -11.535  10.511  67.774  1.00  0.00     0.000 HD 
HETATM    7  C   UNL     3     -10.954  10.133  69.598  1.00  0.00    -0.264 C  
ENDROOT
BRANCH   3   8
HETATM    8  C   UNL     2      -7.897   5.484  66.445  1.00  0.00    -0.100 C  
HETATM    9  H   UNL     2      -6.541   5.609  67.861  1.00  0.00     0.000 HD 
HETATM   10  O   UNL     2      -6.854   4.928  67.276  1.00  0.00    -0.054 OA 
BRANCH   8  11
HETATM   11  C   UNL     2      -8.956   6.126  67.367  1.00  0.00    -0.112 C  
HETATM   12  C   UNL     2     -10.065   6.967  66.786  1.00  0.00    -0.194 C  
HETATM   13  O   UNL     2      -8.220   7.164  68.024  1.00  0.00    -0.118 OA 
HETATM   14  O   UNL     2      -7.341   9.046  67.011  1.00  0.00    -0.085 OA 
HETATM   15  H   UNL     2     -10.971   9.197  65.441  1.00  0.00     0.000 HD 
HETATM   16  O   UNL     2     -11.250   6.548  66.892  1.00  0.00    -0.387 OA 
HETATM   17  C   UNL     2      -8.179   8.178  67.111  1.00  0.00    -0.120 C  
HETATM   18  C   UNL     2      -9.495   8.138  66.416  1.00  0.00    -0.218 C  
HETATM   19  O   UNL     2     -10.132   9.222  65.884  1.00  0.00    -0.293 OA 
ENDBRANCH   8  11
ENDBRANCH   3   8
BRANCH   7  20
HETATM   20  C   UNL     3     -11.319   9.069  70.639  1.00  0.00    -0.265 C  
HETATM   21  O   UNL     3     -12.724   9.088  70.887  1.00  0.00    -0.497 OA 
HETATM   22  H   UNL     3     -12.950   8.428  71.532  1.00  0.00     0.000 HD 
BRANCH  20  23
HETATM   23  C   UNL     3     -10.483   8.876  71.934  1.00  0.00    -0.345 C  
HETATM   24  O   UNL     3     -10.639   6.146  74.060  1.00  0.00    -0.272 OA 
HETATM   25  C   UNL     3      -9.043   7.220  72.637  1.00  0.00    -0.139 C  
HETATM   26  C   UNL     3      -9.072   8.393  71.993  1.00  0.00    -0.227 C  
HETATM   27  O   UNL     3      -7.924   6.483  72.949  1.00  0.00    -0.105 OA 
HETATM   28  O   UNL     3     -11.167   8.071  72.909  1.00  0.00    -0.401 OA 
HETATM   29  C   UNL     3     -10.361   7.003  73.238  1.00  0.00    -0.309 C  
HETATM   30  O   UNL     3      -8.219   9.207  71.572  1.00  0.00    -0.334 OA 
HETATM   31  H   UNL     3      -7.069   6.624  72.560  1.00  0.00     0.000 HD 
ENDBRANCH  20  23
ENDBRANCH   7  20
TORSDOF 4
ENDMDL
MODEL      262
REMARK 921   NORMALIZED FREE ENERGY PREDICTED BY IDOCK:   -4.08 KCAL/MOL
REMARK 922        TOTAL FREE ENERGY PREDICTED BY IDOCK:   -6.96 KCAL/MOL
REMARK 923 INTER-LIGAND FREE ENERGY PREDICTED BY IDOCK:   -6.42 KCAL/MOL
REMARK 924 INTRA-LIGAND FREE ENERGY PREDICTED BY IDOCK:   -0.55 KCAL/MOL
REMARK 927      BINDING AFFINITY PREDICTED BY RF-SCORE:    0.00 PKD
ROOT
HETATM    1 CA   UNL     1     -12.587  10.103  68.905  1.00  0.00    -0.521 Ca 
HETATM    2  O   UNL     2      -9.693   4.429  66.007  1.00  0.00    -0.175 OA 
HETATM    3  C   UNL     2     -10.573   5.469  66.448  1.00  0.00    -0.228 C  
HETATM    4  H   UNL     2     -10.199   3.845  65.454  1.00  0.00     0.000 HD 
HETATM    5  O   UNL     3      -8.827  12.227  65.582  1.00  0.00    -0.393 OA 
HETATM    6  H   UNL     3      -7.971  12.098  65.192  1.00  0.00     0.000 HD 
HETATM    7  C   UNL     3      -8.595  12.673  66.949  1.00  0.00    -0.151 C  
ENDROOT
BRANCH   3   8
HETATM    8  C   UNL     2      -9.768   6.398  67.326  1.00  0.00    -0.130 C  
HETATM    9  H   UNL     2     -10.100   8.097  68.254  1.00  0.00     0.000 HD 
HETATM   10  O   UNL     2     -10.607   7.513  67.702  1.00  0.00    -0.239 OA 
BRANCH   8  11
HETATM   11  C   UNL     2      -8.470   6.959  66.709  1.00  0.00    -0.118 C  
HETATM   12  C   UNL     2      -7.130   6.377  67.085  1.00  0.00    -0.073 C  
HETATM   13  O   UNL     2      -8.338   8.234  67.347  1.00  0.00    -0.123 OA 
HETATM   14  O   UNL     2      -7.926   8.584  69.594  1.00  0.00    -0.097 OA 
HETATM   15  H   UNL     2      -5.143   5.851  68.922  1.00  0.00     0.000 HD 
HETATM   16  O   UNL     2      -6.464   5.785  66.193  1.00  0.00    -0.038 OA 
HETATM   17  C   UNL     2      -7.809   7.945  68.572  1.00  0.00    -0.119 C  
HETATM   18  C   UNL     2      -6.870   6.813  68.341  1.00  0.00    -0.074 C  
HETATM   19  O   UNL     2      -5.742   6.572  69.070  1.00  0.00    -0.015 OA 
ENDBRANCH   8  11
ENDBRANCH   3   8
BRANCH   7  20
HETATM   20  C   UNL     3      -9.977  12.881  67.578  1.00  0.00    -0.215 C  
HETATM   21  O   UNL     3     -10.533  11.627  67.966  1.00  0.00    -0.184 OA 
HETATM   22  H   UNL     3     -11.390  11.756  68.356  1.00  0.00     0.000 HD 
BRANCH  20  23
HETATM   23  C   UNL     3     -11.027  13.833  66.940  1.00  0.00    -0.290 C  
HETATM   24  O   UNL     3     -10.328  16.739  65.190  1.00  0.00    -0.639 OA 
HETATM   25  C   UNL     3     -11.337  14.606  64.792  1.00  0.00    -0.396 C  
HETATM   26  C   UNL     3     -11.701  13.624  65.625  1.00  0.00    -0.342 C  
HETATM   27  O   UNL     3     -11.791  14.802  63.507  1.00  0.00    -0.558 OA 
HETATM   28  O   UNL     3     -10.565  15.193  66.882  1.00  0.00    -0.285 OA 
HETATM   29  C   UNL     3     -10.625  15.620  65.573  1.00  0.00    -0.404 C  
HETATM   30  O   UNL     3     -12.541  12.695  65.606  1.00  0.00    -0.611 OA 
HETATM   31  H   UNL     3     -12.253  14.145  63.000  1.00  0.00     0.000 HD 
ENDBRANCH  20  23
ENDBRANCH   7  20
TORSDOF 4
ENDMDL
MODEL      263
REMARK 921   NORMALIZED FREE ENERGY PREDICTED BY IDOCK:   -4.07 KCAL/MOL
REMARK 922        TOTAL FREE ENERGY PREDICTED BY IDOCK:   -6.95 KCAL/MOL
REMARK 923 INTER-LIGAND FREE ENERGY PREDICTED BY IDOCK:   -6.13 KCAL/MOL
REMARK 924 INTRA-LIGAND FREE ENERGY PREDICTED BY IDOCK:   -0.82 KCAL/MOL
REMARK 927      BINDING AFFINITY PREDICTED BY RF-SCORE:    0.00 PKD
ROOT
HETATM    1 CA   UNL     1      -9.610  16.986  65.252  1.00  0.00    -0.154 Ca 
HETATM    2  O   UNL     2     -10.750  10.253  63.721  1.00  0.00    -0.209 OA 
HETATM    3  C   UNL     2     -10.529  11.668  63.689  1.00  0.00    -0.429 C  
HETATM    4  H   UNL     2     -10.806   9.954  62.821  1.00  0.00     0.000 HD 
HETATM    5  O   UNL     3      -5.177  14.525  67.247  1.00  0.00    -0.282 OA 
HETATM    6  H   UNL     3      -4.841  13.732  67.648  1.00  0.00     0.000 HD 
HETATM    7  C   UNL     3      -5.856  15.264  68.302  1.00  0.00    -0.119 C  
ENDROOT
BRANCH   3   8
HETATM    8  C   UNL     2     -10.441  12.142  65.121  1.00  0.00    -0.281 C  
HETATM    9  H   UNL     2      -9.966  11.330  66.846  1.00  0.00     0.000 HD 
HETATM   10  O   UNL     2     -10.021  11.032  65.945  1.00  0.00    -0.221 OA 
BRANCH   8  11
HETATM   11  C   UNL     2     -11.737  12.725  65.723  1.00  0.00    -0.402 C  
HETATM   12  C   UNL     2     -12.028  14.202  65.624  1.00  0.00    -0.396 C  
HETATM   13  O   UNL     2     -11.497  12.647  67.133  1.00  0.00    -0.305 OA 
HETATM   14  O   UNL     2      -9.907  13.849  68.302  1.00  0.00    -0.220 OA 
HETATM   15  H   UNL     2     -11.457  16.833  66.215  1.00  0.00     0.000 HD 
HETATM   16  O   UNL     2     -13.019  14.570  64.936  1.00  0.00    -0.569 OA 
HETATM   17  C   UNL     2     -10.707  13.727  67.401  1.00  0.00    -0.275 C  
HETATM   18  C   UNL     2     -11.197  14.809  66.504  1.00  0.00    -0.342 C  
HETATM   19  O   UNL     2     -11.144  16.143  66.787  1.00  0.00    -0.155 OA 
ENDBRANCH   8  11
ENDBRANCH   3   8
BRANCH   7  20
HETATM   20  C   UNL     3      -6.399  16.544  67.656  1.00  0.00    -0.149 C  
HETATM   21  O   UNL     3      -5.438  17.081  66.750  1.00  0.00    -0.162 OA 
HETATM   22  H   UNL     3      -5.774  17.874  66.349  1.00  0.00     0.000 HD 
BRANCH  20  23
HETATM   23  C   UNL     3      -7.111  17.641  68.496  1.00  0.00    -0.239 C  
HETATM   24  O   UNL     3      -5.562  19.863  70.656  1.00  0.00    -0.239 OA 
HETATM   25  C   UNL     3      -6.843  19.926  68.636  1.00  0.00    -0.317 C  
HETATM   26  C   UNL     3      -7.538  18.980  67.992  1.00  0.00    -0.270 C  
HETATM   27  O   UNL     3      -6.989  21.287  68.499  1.00  0.00     0.370 OA 
HETATM   28  O   UNL     3      -6.407  17.937  69.714  1.00  0.00    -0.226 OA 
HETATM   29  C   UNL     3      -6.128  19.286  69.742  1.00  0.00    -0.267 C  
HETATM   30  O   UNL     3      -8.512  18.960  67.205  1.00  0.00    -0.268 OA 
HETATM   31  H   UNL     3      -7.453  21.702  67.781  1.00  0.00     0.000 HD 
ENDBRANCH  20  23
ENDBRANCH   7  20
TORSDOF 4
ENDMDL
MODEL      264
REMARK 921   NORMALIZED FREE ENERGY PREDICTED BY IDOCK:   -4.07 KCAL/MOL
REMARK 922        TOTAL FREE ENERGY PREDICTED BY IDOCK:   -6.95 KCAL/MOL
REMARK 923 INTER-LIGAND FREE ENERGY PREDICTED BY IDOCK:   -6.43 KCAL/MOL
REMARK 924 INTRA-LIGAND FREE ENERGY PREDICTED BY IDOCK:   -0.52 KCAL/MOL
REMARK 927      BINDING AFFINITY PREDICTED BY RF-SCORE:    0.00 PKD
ROOT
HETATM    1 CA   UNL     1     -10.377  16.681  69.459  1.00  0.00    -0.215 Ca 
HETATM    2  O   UNL     2     -13.031  12.453  64.555  1.00  0.00    -0.770 OA 
HETATM    3  C   UNL     2     -12.642  13.565  65.370  1.00  0.00    -0.483 C  
HETATM    4  H   UNL     2     -13.512  12.800  63.813  1.00  0.00     0.000 HD 
HETATM    5  O   UNL     3      -5.926  14.419  67.277  1.00  0.00    -0.298 OA 
HETATM    6  H   UNL     3      -5.569  13.637  66.872  1.00  0.00     0.000 HD 
HETATM    7  C   UNL     3      -5.968  14.159  68.709  1.00  0.00    -0.085 C  
ENDROOT
BRANCH   3   8
HETATM    8  C   UNL     2     -11.877  13.014  66.549  1.00  0.00    -0.403 C  
HETATM    9  H   UNL     2     -11.378  13.668  68.334  1.00  0.00     0.000 HD 
HETATM   10  O   UNL     2     -11.860  14.014  67.592  1.00  0.00    -0.357 OA 
BRANCH   8  11
HETATM   11  C   UNL     2     -10.420  12.585  66.272  1.00  0.00    -0.246 C  
HETATM   12  C   UNL     2     -10.125  11.245  65.645  1.00  0.00    -0.247 C  
HETATM   13  O   UNL     2      -9.908  12.327  67.584  1.00  0.00    -0.190 OA 
HETATM   14  O   UNL     2     -10.592  10.625  68.991  1.00  0.00    -0.193 OA 
HETATM   15  H   UNL     2     -10.139   8.488  65.690  1.00  0.00     0.000 HD 
HETATM   16  O   UNL     2      -9.606  11.224  64.496  1.00  0.00    -0.235 OA 
HETATM   17  C   UNL     2     -10.377  11.081  67.890  1.00  0.00    -0.186 C  
HETATM   18  C   UNL     2     -10.346  10.321  66.610  1.00  0.00    -0.219 C  
HETATM   19  O   UNL     2     -10.159   8.973  66.506  1.00  0.00    -0.272 OA 
ENDBRANCH   8  11
ENDBRANCH   3   8
BRANCH   7  20
HETATM   20  C   UNL     3      -6.544  15.421  69.363  1.00  0.00    -0.155 C  
HETATM   21  O   UNL     3      -6.716  15.212  70.763  1.00  0.00     0.182 OA 
HETATM   22  H   UNL     3      -7.073  15.993  71.168  1.00  0.00     0.000 HD 
BRANCH  20  23
HETATM   23  C   UNL     3      -7.724  16.203  68.723  1.00  0.00    -0.200 C  
HETATM   24  O   UNL     3      -7.973  19.649  68.474  1.00  0.00    -0.338 OA 
HETATM   25  C   UNL     3      -7.834  17.753  67.021  1.00  0.00    -0.213 C  
HETATM   26  C   UNL     3      -7.918  16.439  67.261  1.00  0.00    -0.168 C  
HETATM   27  O   UNL     3      -8.019  18.379  65.809  1.00  0.00    -0.509 OA 
HETATM   28  O   UNL     3      -7.898  17.503  69.311  1.00  0.00    -0.079 OA 
HETATM   29  C   UNL     3      -7.834  18.448  68.310  1.00  0.00    -0.298 C  
HETATM   30  O   UNL     3      -8.242  15.424  66.603  1.00  0.00    -0.248 OA 
HETATM   31  H   UNL     3      -8.019  17.927  64.973  1.00  0.00     0.000 HD 
ENDBRANCH  20  23
ENDBRANCH   7  20
TORSDOF 4
ENDMDL
MODEL      265
REMARK 921   NORMALIZED FREE ENERGY PREDICTED BY IDOCK:   -4.06 KCAL/MOL
REMARK 922        TOTAL FREE ENERGY PREDICTED BY IDOCK:   -6.93 KCAL/MOL
REMARK 923 INTER-LIGAND FREE ENERGY PREDICTED BY IDOCK:   -6.19 KCAL/MOL
REMARK 924 INTRA-LIGAND FREE ENERGY PREDICTED BY IDOCK:   -0.74 KCAL/MOL
REMARK 927      BINDING AFFINITY PREDICTED BY RF-SCORE:    0.00 PKD
ROOT
HETATM    1 CA   UNL     1     -12.717  10.530  68.901  1.00  0.00    -0.501 Ca 
HETATM    2  O   UNL     2      -9.354   5.055  66.130  1.00  0.00    -0.140 OA 
HETATM    3  C   UNL     2     -10.324   5.993  66.609  1.00  0.00    -0.204 C  
HETATM    4  H   UNL     2      -9.828   4.334  65.732  1.00  0.00     0.000 HD 
HETATM    5  O   UNL     3      -9.932  12.776  64.791  1.00  0.00    -0.474 OA 
HETATM    6  H   UNL     3      -9.136  12.733  64.276  1.00  0.00     0.000 HD 
HETATM    7  C   UNL     3      -9.577  13.421  66.047  1.00  0.00    -0.159 C  
ENDROOT
BRANCH   3   8
HETATM    8  C   UNL     2      -9.569   7.139  67.240  1.00  0.00    -0.143 C  
HETATM    9  H   UNL     2      -9.032   7.635  69.064  1.00  0.00     0.000 HD 
HETATM   10  O   UNL     2      -9.507   6.914  68.667  1.00  0.00    -0.135 OA 
BRANCH   8  11
HETATM   11  C   UNL     2     -10.150   8.548  67.000  1.00  0.00    -0.277 C  
HETATM   12  C   UNL     2      -9.374   9.570  66.207  1.00  0.00    -0.188 C  
HETATM   13  O   UNL     2     -10.053   9.158  68.293  1.00  0.00    -0.176 OA 
HETATM   14  O   UNL     2      -8.090   9.689  69.391  1.00  0.00    -0.098 OA 
HETATM   15  H   UNL     2      -7.197  11.224  65.853  1.00  0.00     0.000 HD 
HETATM   16  O   UNL     2      -9.848   9.955  65.104  1.00  0.00    -0.306 OA 
HETATM   17  C   UNL     2      -8.747   9.547  68.384  1.00  0.00    -0.124 C  
HETATM   18  C   UNL     2      -8.368   9.985  67.012  1.00  0.00    -0.121 C  
HETATM   19  O   UNL     2      -7.439  10.944  66.728  1.00  0.00    -0.120 OA 
ENDBRANCH   8  11
ENDBRANCH   3   8
BRANCH   7  20
HETATM   20  C   UNL     3     -10.862  13.490  66.880  1.00  0.00    -0.282 C  
HETATM   21  O   UNL     3     -11.915  14.066  66.108  1.00  0.00    -0.380 OA 
HETATM   22  H   UNL     3     -12.712  14.109  66.624  1.00  0.00     0.000 HD 
BRANCH  20  23
HETATM   23  C   UNL     3     -10.854  13.990  68.351  1.00  0.00    -0.249 C  
HETATM   24  O   UNL     3     -10.869  17.302  69.366  1.00  0.00    -0.152 OA 
HETATM   25  C   UNL     3     -12.264  15.367  69.545  1.00  0.00    -0.246 C  
HETATM   26  C   UNL     3     -12.046  14.081  69.244  1.00  0.00    -0.338 C  
HETATM   27  O   UNL     3     -13.232  15.859  70.391  1.00  0.00    -0.733 OA 
HETATM   28  O   UNL     3     -10.220  15.273  68.487  1.00  0.00    -0.216 OA 
HETATM   29  C   UNL     3     -11.109  16.140  69.084  1.00  0.00    -0.329 C  
HETATM   30  O   UNL     3     -12.501  12.979  69.628  1.00  0.00    -0.097 OA 
HETATM   31  H   UNL     3     -13.982  15.357  70.690  1.00  0.00     0.000 HD 
ENDBRANCH  20  23
ENDBRANCH   7  20
TORSDOF 4
ENDMDL
MODEL      266
REMARK 921   NORMALIZED FREE ENERGY PREDICTED BY IDOCK:   -4.05 KCAL/MOL
REMARK 922        TOTAL FREE ENERGY PREDICTED BY IDOCK:   -6.93 KCAL/MOL
REMARK 923 INTER-LIGAND FREE ENERGY PREDICTED BY IDOCK:   -5.89 KCAL/MOL
REMARK 924 INTRA-LIGAND FREE ENERGY PREDICTED BY IDOCK:   -1.04 KCAL/MOL
REMARK 927      BINDING AFFINITY PREDICTED BY RF-SCORE:    0.00 PKD
ROOT
HETATM    1 CA   UNL     1      -6.960  16.676  69.815  1.00  0.00    -0.203 Ca 
HETATM    2  O   UNL     2      -6.874  21.212  64.487  1.00  0.00    -0.539 OA 
HETATM    3  C   UNL     2      -6.566  20.221  65.474  1.00  0.00    -0.265 C  
HETATM    4  H   UNL     2      -6.117  21.292  63.920  1.00  0.00     0.000 HD 
HETATM    5  O   UNL     3     -10.915  14.803  66.570  1.00  0.00    -0.314 OA 
HETATM    6  H   UNL     3     -11.593  15.044  65.950  1.00  0.00     0.000 HD 
HETATM    7  C   UNL     3     -11.448  15.087  67.895  1.00  0.00    -0.340 C  
ENDROOT
BRANCH   3   8
HETATM    8  C   UNL     2      -7.772  20.094  66.375  1.00  0.00    -0.269 C  
HETATM    9  H   UNL     2      -8.409  20.983  68.007  1.00  0.00     0.000 HD 
HETATM   10  O   UNL     2      -7.651  21.063  67.440  1.00  0.00    -0.334 OA 
BRANCH   8  11
HETATM   11  C   UNL     2      -7.999  18.706  67.012  1.00  0.00    -0.246 C  
HETATM   12  C   UNL     2      -8.544  17.567  66.188  1.00  0.00    -0.133 C  
HETATM   13  O   UNL     2      -9.134  18.925  67.857  1.00  0.00    -0.289 OA 
HETATM   14  O   UNL     2     -11.275  19.418  67.141  1.00  0.00    -0.351 OA 
HETATM   15  H   UNL     2     -10.546  16.384  64.706  1.00  0.00     0.000 HD 
HETATM   16  O   UNL     2      -7.800  16.570  65.981  1.00  0.00    -0.216 OA 
HETATM   17  C   UNL     2     -10.201  18.876  67.006  1.00  0.00    -0.378 C  
HETATM   18  C   UNL     2      -9.858  17.834  66.000  1.00  0.00    -0.168 C  
HETATM   19  O   UNL     2     -10.764  17.049  65.348  1.00  0.00    -0.542 OA 
ENDBRANCH   8  11
ENDBRANCH   3   8
BRANCH   7  20
HETATM   20  C   UNL     3     -10.355  14.697  68.896  1.00  0.00    -0.245 C  
HETATM   21  O   UNL     3     -10.441  15.518  70.059  1.00  0.00    -0.289 OA 
HETATM   22  H   UNL     3      -9.763  15.276  70.680  1.00  0.00     0.000 HD 
BRANCH  20  23
HETATM   23  C   UNL     3      -8.889  14.447  68.444  1.00  0.00    -0.182 C  
HETATM   24  O   UNL     3      -6.158  14.074  70.543  1.00  0.00    -0.175 OA 
HETATM   25  C   UNL     3      -7.365  12.787  68.926  1.00  0.00    -0.008 C  
HETATM   26  C   UNL     3      -8.316  13.126  68.048  1.00  0.00    -0.162 C  
HETATM   27  O   UNL     3      -6.560  11.672  68.873  1.00  0.00    -0.066 OA 
HETATM   28  O   UNL     3      -7.934  14.973  69.380  1.00  0.00    -0.195 OA 
HETATM   29  C   UNL     3      -7.097  13.951  69.773  1.00  0.00     0.224 C  
HETATM   30  O   UNL     3      -8.723  12.685  66.949  1.00  0.00    -0.204 OA 
HETATM   31  H   UNL     3      -6.733  10.917  68.323  1.00  0.00     0.000 HD 
ENDBRANCH  20  23
ENDBRANCH   7  20
TORSDOF 4
ENDMDL
MODEL      267
REMARK 921   NORMALIZED FREE ENERGY PREDICTED BY IDOCK:   -4.04 KCAL/MOL
REMARK 922        TOTAL FREE ENERGY PREDICTED BY IDOCK:   -6.92 KCAL/MOL
REMARK 923 INTER-LIGAND FREE ENERGY PREDICTED BY IDOCK:   -6.01 KCAL/MOL
REMARK 924 INTRA-LIGAND FREE ENERGY PREDICTED BY IDOCK:   -0.90 KCAL/MOL
REMARK 927      BINDING AFFINITY PREDICTED BY RF-SCORE:    0.00 PKD
ROOT
HETATM    1 CA   UNL     1      -9.606  12.487  64.820  1.00  0.00    -0.290 Ca 
HETATM    2  O   UNL     2     -10.773   6.409  68.084  1.00  0.00    -0.230 OA 
HETATM    3  C   UNL     2     -10.432   7.445  67.157  1.00  0.00    -0.333 C  
HETATM    4  H   UNL     2     -10.563   5.579  67.671  1.00  0.00     0.000 HD 
HETATM    5  O   UNL     3      -6.270  12.765  69.118  1.00  0.00    -0.085 OA 
HETATM    6  H   UNL     3      -6.148  12.515  70.027  1.00  0.00     0.000 HD 
HETATM    7  C   UNL     3      -7.183  13.898  69.121  1.00  0.00    -0.038 C  
ENDROOT
BRANCH   3   8
HETATM    8  C   UNL     2     -10.765   8.764  67.814  1.00  0.00    -0.125 C  
HETATM    9  H   UNL     2     -10.848  10.641  67.239  1.00  0.00     0.000 HD 
HETATM   10  O   UNL     2     -10.639   9.811  66.826  1.00  0.00    -0.206 OA 
BRANCH   8  11
HETATM   11  C   UNL     2      -9.903   9.150  69.035  1.00  0.00    -0.174 C  
HETATM   12  C   UNL     2     -10.266   8.653  70.412  1.00  0.00    -0.193 C  
HETATM   13  O   UNL     2     -10.211  10.536  69.218  1.00  0.00    -0.208 OA 
HETATM   14  O   UNL     2     -12.260  11.393  69.855  1.00  0.00    -0.298 OA 
HETATM   15  H   UNL     2     -11.961   8.542  72.584  1.00  0.00     0.000 HD 
HETATM   16  O   UNL     2      -9.472   7.861  70.990  1.00  0.00    -0.154 OA 
HETATM   17  C   UNL     2     -11.409  10.533  69.873  1.00  0.00    -0.309 C  
HETATM   18  C   UNL     2     -11.352   9.366  70.796  1.00  0.00    -0.300 C  
HETATM   19  O   UNL     2     -11.997   9.286  71.996  1.00  0.00    -0.364 OA 
ENDBRANCH   8  11
ENDBRANCH   3   8
BRANCH   7  20
HETATM   20  C   UNL     3      -7.380  14.302  67.655  1.00  0.00    -0.176 C  
HETATM   21  O   UNL     3      -6.135  14.708  67.088  1.00  0.00    -0.235 OA 
HETATM   22  H   UNL     3      -6.257  14.958  66.180  1.00  0.00     0.000 HD 
BRANCH  20  23
HETATM   23  C   UNL     3      -8.565  15.202  67.210  1.00  0.00    -0.198 C  
HETATM   24  O   UNL     3     -11.373  14.146  65.477  1.00  0.00    -0.308 OA 
HETATM   25  C   UNL     3     -10.834  15.109  67.601  1.00  0.00    -0.295 C  
HETATM   26  C   UNL     3      -9.700  15.635  68.078  1.00  0.00    -0.204 C  
HETATM   27  O   UNL     3     -12.105  15.322  68.086  1.00  0.00    -0.499 OA 
HETATM   28  O   UNL     3      -9.205  14.711  66.021  1.00  0.00    -0.234 OA 
HETATM   29  C   UNL     3     -10.545  14.529  66.288  1.00  0.00    -0.304 C  
HETATM   30  O   UNL     3      -9.400  16.476  68.957  1.00  0.00    -0.253 OA 
HETATM   31  H   UNL     3     -12.293  15.699  68.938  1.00  0.00     0.000 HD 
ENDBRANCH  20  23
ENDBRANCH   7  20
TORSDOF 4
ENDMDL
MODEL      268
REMARK 921   NORMALIZED FREE ENERGY PREDICTED BY IDOCK:   -4.04 KCAL/MOL
REMARK 922        TOTAL FREE ENERGY PREDICTED BY IDOCK:   -6.91 KCAL/MOL
REMARK 923 INTER-LIGAND FREE ENERGY PREDICTED BY IDOCK:   -5.66 KCAL/MOL
REMARK 924 INTRA-LIGAND FREE ENERGY PREDICTED BY IDOCK:   -1.25 KCAL/MOL
REMARK 927      BINDING AFFINITY PREDICTED BY RF-SCORE:    0.00 PKD
ROOT
HETATM    1 CA   UNL     1      -7.546  13.037  70.045  1.00  0.00    -0.303 Ca 
HETATM    2  O   UNL     2      -7.794   6.972  73.526  1.00  0.00    -0.092 OA 
HETATM    3  C   UNL     2      -7.733   8.348  73.134  1.00  0.00    -0.066 C  
HETATM    4  H   UNL     2      -7.823   6.949  74.475  1.00  0.00     0.000 HD 
HETATM    5  O   UNL     3     -12.322  10.938  68.475  1.00  0.00    -0.807 OA 
HETATM    6  H   UNL     3     -12.797  10.136  68.291  1.00  0.00     0.000 HD 
HETATM    7  C   UNL     3     -11.483  11.195  67.312  1.00  0.00    -0.136 C  
ENDROOT
BRANCH   3   8
HETATM    8  C   UNL     2      -7.689   8.384  71.624  1.00  0.00    -0.113 C  
HETATM    9  H   UNL     2      -7.782   7.054  70.181  1.00  0.00     0.000 HD 
HETATM   10  O   UNL     2      -7.811   7.031  71.131  1.00  0.00    -0.097 OA 
BRANCH   8  11
HETATM   11  C   UNL     2      -6.425   9.012  70.998  1.00  0.00    -0.068 C  
HETATM   12  C   UNL     2      -6.475  10.398  70.405  1.00  0.00    -0.125 C  
HETATM   13  O   UNL     2      -6.265   8.265  69.787  1.00  0.00    -0.032 OA 
HETATM   14  O   UNL     2      -7.699   8.302  67.976  1.00  0.00    -0.103 OA 
HETATM   15  H   UNL     2      -7.389  12.208  68.537  1.00  0.00     0.000 HD 
HETATM   16  O   UNL     2      -5.796  11.308  70.956  1.00  0.00    -0.347 OA 
HETATM   17  C   UNL     2      -7.158   8.829  68.921  1.00  0.00    -0.066 C  
HETATM   18  C   UNL     2      -7.150  10.284  69.237  1.00  0.00    -0.083 C  
HETATM   19  O   UNL     2      -7.394  11.280  68.336  1.00  0.00    -0.084 OA 
ENDBRANCH   8  11
ENDBRANCH   3   8
BRANCH   7  20
HETATM   20  C   UNL     3     -10.717  12.489  67.608  1.00  0.00    -0.218 C  
HETATM   21  O   UNL     3      -9.892  12.318  68.760  1.00  0.00    -0.387 OA 
HETATM   22  H   UNL     3      -9.417  13.120  68.943  1.00  0.00     0.000 HD 
BRANCH  20  23
HETATM   23  C   UNL     3     -11.416  13.877  67.571  1.00  0.00    -0.340 C  
HETATM   24  O   UNL     3     -12.653  15.596  70.312  1.00  0.00    -0.407 OA 
HETATM   25  C   UNL     3     -10.979  15.879  68.626  1.00  0.00    -0.320 C  
HETATM   26  C   UNL     3     -10.722  15.197  67.503  1.00  0.00    -0.284 C  
HETATM   27  O   UNL     3     -10.572  17.161  68.918  1.00  0.00    -0.337 OA 
HETATM   28  O   UNL     3     -12.364  14.037  68.639  1.00  0.00    -0.271 OA 
HETATM   29  C   UNL     3     -12.029  15.166  69.356  1.00  0.00    -0.307 C  
HETATM   30  O   UNL     3     -10.178  15.449  66.403  1.00  0.00    -0.265 OA 
HETATM   31  H   UNL     3      -9.890  17.623  68.444  1.00  0.00     0.000 HD 
ENDBRANCH  20  23
ENDBRANCH   7  20
TORSDOF 4
ENDMDL
MODEL      269
REMARK 921   NORMALIZED FREE ENERGY PREDICTED BY IDOCK:   -4.04 KCAL/MOL
REMARK 922        TOTAL FREE ENERGY PREDICTED BY IDOCK:   -6.91 KCAL/MOL
REMARK 923 INTER-LIGAND FREE ENERGY PREDICTED BY IDOCK:   -5.17 KCAL/MOL
REMARK 924 INTRA-LIGAND FREE ENERGY PREDICTED BY IDOCK:   -1.74 KCAL/MOL
REMARK 927      BINDING AFFINITY PREDICTED BY RF-SCORE:    0.00 PKD
ROOT
HETATM    1 CA   UNL     1      -9.407   8.435  67.159  1.00  0.00    -0.129 Ca 
HETATM    2  O   UNL     2     -11.091   7.125  73.823  1.00  0.00    -0.537 OA 
HETATM    3  C   UNL     2     -10.427   7.313  72.569  1.00  0.00    -0.237 C  
HETATM    4  H   UNL     2     -10.428   6.899  74.465  1.00  0.00     0.000 HD 
HETATM    5  O   UNL     3     -11.397  13.212  68.863  1.00  0.00    -0.256 OA 
HETATM    6  H   UNL     3     -12.025  13.632  69.439  1.00  0.00     0.000 HD 
HETATM    7  C   UNL     3     -12.149  12.741  67.708  1.00  0.00    -0.133 C  
ENDROOT
BRANCH   3   8
HETATM    8  C   UNL     2     -11.482   7.672  71.550  1.00  0.00    -0.264 C  
HETATM    9  H   UNL     2     -13.207   6.920  70.986  1.00  0.00     0.000 HD 
HETATM   10  O   UNL     2     -12.544   6.695  71.627  1.00  0.00    -0.347 OA 
BRANCH   8  11
HETATM   11  C   UNL     2     -11.009   7.753  70.083  1.00  0.00    -0.241 C  
HETATM   12  C   UNL     2      -9.564   8.040  69.761  1.00  0.00    -0.171 C  
HETATM   13  O   UNL     2     -11.580   8.986  69.631  1.00  0.00     0.120 OA 
HETATM   14  O   UNL     2     -11.004  11.095  70.380  1.00  0.00     0.015 OA 
HETATM   15  H   UNL     2      -7.354   9.688  69.781  1.00  0.00     0.000 HD 
HETATM   16  O   UNL     2      -8.888   7.140  69.191  1.00  0.00    -0.135 OA 
HETATM   17  C   UNL     2     -10.736   9.945  70.115  1.00  0.00    -0.308 C  
HETATM   18  C   UNL     2      -9.373   9.354  70.027  1.00  0.00    -0.226 C  
HETATM   19  O   UNL     2      -8.223  10.065  69.837  1.00  0.00    -0.176 OA 
ENDBRANCH   8  11
ENDBRANCH   3   8
BRANCH   7  20
HETATM   20  C   UNL     3     -11.136  12.062  66.779  1.00  0.00    -0.305 C  
HETATM   21  O   UNL     3     -10.930  10.709  67.183  1.00  0.00    -0.285 OA 
HETATM   22  H   UNL     3     -10.303  10.288  66.607  1.00  0.00     0.000 HD 
BRANCH  20  23
HETATM   23  C   UNL     3      -9.819  12.769  66.354  1.00  0.00    -0.269 C  
HETATM   24  O   UNL     3      -8.844  15.961  67.280  1.00  0.00    -0.185 OA 
HETATM   25  C   UNL     3      -8.089  13.707  67.553  1.00  0.00    -0.184 C  
HETATM   26  C   UNL     3      -8.481  12.561  66.982  1.00  0.00    -0.161 C  
HETATM   27  O   UNL     3      -6.887  13.941  68.181  1.00  0.00    -0.093 OA 
HETATM   28  O   UNL     3      -9.961  14.198  66.302  1.00  0.00    -0.283 OA 
HETATM   29  C   UNL     3      -9.009  14.762  67.123  1.00  0.00    -0.224 C  
HETATM   30  O   UNL     3      -7.954  11.451  66.743  1.00  0.00    -0.153 OA 
HETATM   31  H   UNL     3      -6.290  13.256  68.460  1.00  0.00     0.000 HD 
ENDBRANCH  20  23
ENDBRANCH   7  20
TORSDOF 4
ENDMDL
MODEL      270
REMARK 921   NORMALIZED FREE ENERGY PREDICTED BY IDOCK:   -4.03 KCAL/MOL
REMARK 922        TOTAL FREE ENERGY PREDICTED BY IDOCK:   -6.90 KCAL/MOL
REMARK 923 INTER-LIGAND FREE ENERGY PREDICTED BY IDOCK:   -5.80 KCAL/MOL
REMARK 924 INTRA-LIGAND FREE ENERGY PREDICTED BY IDOCK:   -1.10 KCAL/MOL
REMARK 927      BINDING AFFINITY PREDICTED BY RF-SCORE:    0.00 PKD
ROOT
HETATM    1 CA   UNL     1      -9.559  12.248  69.544  1.00  0.00    -0.384 Ca 
HETATM    2  O   UNL     2     -11.199   5.886  71.951  1.00  0.00    -0.268 OA 
HETATM    3  C   UNL     2     -11.167   7.274  71.602  1.00  0.00    -0.245 C  
HETATM    4  H   UNL     2     -12.024   5.723  72.392  1.00  0.00     0.000 HD 
HETATM    5  O   UNL     3      -9.816   9.264  64.993  1.00  0.00    -0.414 OA 
HETATM    6  H   UNL     3      -9.675   8.403  64.618  1.00  0.00     0.000 HD 
HETATM    7  C   UNL     3      -8.504   9.884  65.110  1.00  0.00    -0.150 C  
ENDROOT
BRANCH   3   8
HETATM    8  C   UNL     2      -9.854   7.533  70.901  1.00  0.00    -0.177 C  
HETATM    9  H   UNL     2      -8.455   8.908  70.997  1.00  0.00     0.000 HD 
HETATM   10  O   UNL     2      -9.281   8.745  71.438  1.00  0.00    -0.209 OA 
BRANCH   8  11
HETATM   11  C   UNL     2      -9.921   7.671  69.366  1.00  0.00    -0.180 C  
HETATM   12  C   UNL     2     -10.181   6.463  68.501  1.00  0.00    -0.175 C  
HETATM   13  O   UNL     2      -8.554   7.904  69.007  1.00  0.00    -0.133 OA 
HETATM   14  O   UNL     2      -6.824   6.388  69.222  1.00  0.00    -0.060 OA 
HETATM   15  H   UNL     2      -9.465   3.996  67.498  1.00  0.00     0.000 HD 
HETATM   16  O   UNL     2     -11.253   6.422  67.838  1.00  0.00    -0.319 OA 
HETATM   17  C   UNL     2      -7.986   6.662  69.021  1.00  0.00    -0.112 C  
HETATM   18  C   UNL     2      -9.036   5.739  68.511  1.00  0.00    -0.114 C  
HETATM   19  O   UNL     2      -8.796   4.585  67.824  1.00  0.00    -0.103 OA 
ENDBRANCH   8  11
ENDBRANCH   3   8
BRANCH   7  20
HETATM   20  C   UNL     3      -8.733  11.274  65.715  1.00  0.00    -0.109 C  
HETATM   21  O   UNL     3      -8.016  11.398  66.942  1.00  0.00    -0.147 OA 
HETATM   22  H   UNL     3      -8.158  12.259  67.317  1.00  0.00     0.000 HD 
BRANCH  20  23
HETATM   23  C   UNL     3     -10.149  11.910  65.780  1.00  0.00    -0.241 C  
HETATM   24  O   UNL     3     -12.372  11.644  68.424  1.00  0.00    -0.417 OA 
HETATM   25  C   UNL     3     -11.151  13.351  67.274  1.00  0.00    -0.282 C  
HETATM   26  C   UNL     3     -10.447  13.329  66.135  1.00  0.00    -0.293 C  
HETATM   27  O   UNL     3     -11.669  14.464  67.897  1.00  0.00    -0.325 OA 
HETATM   28  O   UNL     3     -11.051  11.150  66.601  1.00  0.00    -0.270 OA 
HETATM   29  C   UNL     3     -11.556  11.977  67.580  1.00  0.00    -0.321 C  
HETATM   30  O   UNL     3     -10.117  14.170  65.268  1.00  0.00    -0.354 OA 
HETATM   31  H   UNL     3     -11.407  15.355  67.698  1.00  0.00     0.000 HD 
ENDBRANCH  20  23
ENDBRANCH   7  20
TORSDOF 4
ENDMDL
MODEL      271
REMARK 921   NORMALIZED FREE ENERGY PREDICTED BY IDOCK:   -4.03 KCAL/MOL
REMARK 922        TOTAL FREE ENERGY PREDICTED BY IDOCK:   -6.90 KCAL/MOL
REMARK 923 INTER-LIGAND FREE ENERGY PREDICTED BY IDOCK:   -5.60 KCAL/MOL
REMARK 924 INTRA-LIGAND FREE ENERGY PREDICTED BY IDOCK:   -1.29 KCAL/MOL
REMARK 927      BINDING AFFINITY PREDICTED BY RF-SCORE:    0.00 PKD
ROOT
HETATM    1 CA   UNL     1     -11.315  15.569  65.315  1.00  0.00    -0.315 Ca 
HETATM    2  O   UNL     2      -9.595   8.789  65.099  1.00  0.00    -0.405 OA 
HETATM    3  C   UNL     2      -9.982  10.135  64.799  1.00  0.00    -0.264 C  
HETATM    4  H   UNL     2      -9.543   8.319  64.274  1.00  0.00     0.000 HD 
HETATM    5  O   UNL     3      -6.215  15.555  67.231  1.00  0.00    -0.310 OA 
HETATM    6  H   UNL     3      -5.571  15.062  67.725  1.00  0.00     0.000 HD 
HETATM    7  C   UNL     3      -7.114  16.153  68.208  1.00  0.00    -0.128 C  
ENDROOT
BRANCH   3   8
HETATM    8  C   UNL     2     -10.064  10.882  66.111  1.00  0.00    -0.239 C  
HETATM    9  H   UNL     2     -11.081  12.417  66.794  1.00  0.00     0.000 HD 
HETATM   10  O   UNL     2     -11.030  11.948  65.969  1.00  0.00    -0.288 OA 
BRANCH   8  11
HETATM   11  C   UNL     2      -8.745  11.493  66.627  1.00  0.00    -0.182 C  
HETATM   12  C   UNL     2      -7.502  10.645  66.739  1.00  0.00    -0.120 C  
HETATM   13  O   UNL     2      -9.005  11.681  68.023  1.00  0.00    -0.162 OA 
HETATM   14  O   UNL     2      -9.330   9.999  69.574  1.00  0.00    -0.207 OA 
HETATM   15  H   UNL     2      -6.086   8.547  67.831  1.00  0.00     0.000 HD 
HETATM   16  O   UNL     2      -6.520  10.924  65.998  1.00  0.00    -0.127 OA 
HETATM   17  C   UNL     2      -8.821  10.443  68.569  1.00  0.00    -0.142 C  
HETATM   18  C   UNL     2      -7.693   9.838  67.809  1.00  0.00    -0.091 C  
HETATM   19  O   UNL     2      -6.806   8.933  68.316  1.00  0.00    -0.064 OA 
ENDBRANCH   8  11
ENDBRANCH   3   8
BRANCH   7  20
HETATM   20  C   UNL     3      -8.154  16.949  67.410  1.00  0.00    -0.174 C  
HETATM   21  O   UNL     3      -7.943  18.348  67.589  1.00  0.00    -0.237 OA 
HETATM   22  H   UNL     3      -8.588  18.841  67.095  1.00  0.00     0.000 HD 
BRANCH  20  23
HETATM   23  C   UNL     3      -9.659  16.562  67.422  1.00  0.00    -0.238 C  
HETATM   24  O   UNL     3     -11.011  13.729  68.888  1.00  0.00    -0.244 OA 
HETATM   25  C   UNL     3     -11.145  16.106  69.124  1.00  0.00    -0.329 C  
HETATM   26  C   UNL     3     -10.688  17.105  68.358  1.00  0.00    -0.347 C  
HETATM   27  O   UNL     3     -12.144  16.188  70.067  1.00  0.00    -0.340 OA 
HETATM   28  O   UNL     3      -9.855  15.139  67.478  1.00  0.00    -0.219 OA 
HETATM   29  C   UNL     3     -10.638  14.847  68.574  1.00  0.00    -0.245 C  
HETATM   30  O   UNL     3     -11.004  18.300  68.157  1.00  0.00    -0.186 OA 
HETATM   31  H   UNL     3     -12.473  17.005  70.424  1.00  0.00     0.000 HD 
ENDBRANCH  20  23
ENDBRANCH   7  20
TORSDOF 4
ENDMDL
MODEL      272
REMARK 921   NORMALIZED FREE ENERGY PREDICTED BY IDOCK:   -4.02 KCAL/MOL
REMARK 922        TOTAL FREE ENERGY PREDICTED BY IDOCK:   -6.88 KCAL/MOL
REMARK 923 INTER-LIGAND FREE ENERGY PREDICTED BY IDOCK:   -6.30 KCAL/MOL
REMARK 924 INTRA-LIGAND FREE ENERGY PREDICTED BY IDOCK:   -0.58 KCAL/MOL
REMARK 927      BINDING AFFINITY PREDICTED BY RF-SCORE:    0.00 PKD
ROOT
HETATM    1 CA   UNL     1     -10.816  17.315  69.408  1.00  0.00    -0.281 Ca 
HETATM    2  O   UNL     2     -12.703  12.825  64.383  1.00  0.00    -0.654 OA 
HETATM    3  C   UNL     2     -12.636  13.872  65.358  1.00  0.00    -0.507 C  
HETATM    4  H   UNL     2     -13.545  12.896  63.949  1.00  0.00     0.000 HD 
HETATM    5  O   UNL     3      -7.161  18.286  65.486  1.00  0.00    -0.536 OA 
HETATM    6  H   UNL     3      -6.659  17.901  64.777  1.00  0.00     0.000 HD 
HETATM    7  C   UNL     3      -6.483  17.915  66.720  1.00  0.00    -0.184 C  
ENDROOT
BRANCH   3   8
HETATM    8  C   UNL     2     -11.296  13.759  66.048  1.00  0.00    -0.314 C  
HETATM    9  H   UNL     2      -9.418  13.979  65.518  1.00  0.00     0.000 HD 
HETATM   10  O   UNL     2     -10.260  14.051  65.084  1.00  0.00    -0.367 OA 
BRANCH   8  11
HETATM   11  C   UNL     2     -10.980  12.394  66.696  1.00  0.00    -0.268 C  
HETATM   12  C   UNL     2     -11.715  11.948  67.934  1.00  0.00    -0.298 C  
HETATM   13  O   UNL     2      -9.688  12.608  67.276  1.00  0.00    -0.201 OA 
HETATM   14  O   UNL     2      -9.216  14.031  69.034  1.00  0.00    -0.023 OA 
HETATM   15  H   UNL     2     -12.367  12.218  70.600  1.00  0.00     0.000 HD 
HETATM   16  O   UNL     2     -12.469  10.940  67.852  1.00  0.00     0.300 OA 
HETATM   17  C   UNL     2      -9.948  13.271  68.441  1.00  0.00    -0.226 C  
HETATM   18  C   UNL     2     -11.218  12.688  68.954  1.00  0.00    -0.280 C  
HETATM   19  O   UNL     2     -11.557  12.590  70.273  1.00  0.00    -0.173 OA 
ENDBRANCH   8  11
ENDBRANCH   3   8
BRANCH   7  20
HETATM   20  C   UNL     3      -7.293  18.536  67.864  1.00  0.00    -0.236 C  
HETATM   21  O   UNL     3      -6.787  18.089  69.121  1.00  0.00    -0.254 OA 
HETATM   22  H   UNL     3      -7.288  18.474  69.830  1.00  0.00     0.000 HD 
BRANCH  20  23
HETATM   23  C   UNL     3      -8.845  18.590  67.827  1.00  0.00    -0.275 C  
HETATM   24  O   UNL     3     -10.752  20.647  65.793  1.00  0.00     0.176 OA 
HETATM   25  C   UNL     3     -10.381  18.307  66.132  1.00  0.00    -0.398 C  
HETATM   26  C   UNL     3      -9.730  17.639  67.092  1.00  0.00    -0.291 C  
HETATM   27  O   UNL     3     -11.333  17.798  65.279  1.00  0.00     0.041 OA 
HETATM   28  O   UNL     3      -9.335  19.886  67.445  1.00  0.00    -0.322 OA 
HETATM   29  C   UNL     3     -10.154  19.738  66.346  1.00  0.00    -0.491 C  
HETATM   30  O   UNL     3      -9.789  16.488  67.583  1.00  0.00    -0.240 OA 
HETATM   31  H   UNL     3     -11.481  16.869  65.140  1.00  0.00     0.000 HD 
ENDBRANCH  20  23
ENDBRANCH   7  20
TORSDOF 4
ENDMDL
MODEL      273
REMARK 921   NORMALIZED FREE ENERGY PREDICTED BY IDOCK:   -4.01 KCAL/MOL
REMARK 922        TOTAL FREE ENERGY PREDICTED BY IDOCK:   -6.87 KCAL/MOL
REMARK 923 INTER-LIGAND FREE ENERGY PREDICTED BY IDOCK:   -6.29 KCAL/MOL
REMARK 924 INTRA-LIGAND FREE ENERGY PREDICTED BY IDOCK:   -0.59 KCAL/MOL
REMARK 927      BINDING AFFINITY PREDICTED BY RF-SCORE:    0.00 PKD
ROOT
HETATM    1 CA   UNL     1     -12.701  11.727  68.391  1.00  0.00    -0.228 Ca 
HETATM    2  O   UNL     2     -11.288   5.735  71.718  1.00  0.00    -0.253 OA 
HETATM    3  C   UNL     2     -11.905   6.849  71.062  1.00  0.00    -0.364 C  
HETATM    4  H   UNL     2     -11.976   5.115  71.931  1.00  0.00     0.000 HD 
HETATM    5  O   UNL     3      -9.526   9.090  64.834  1.00  0.00    -0.435 OA 
HETATM    6  H   UNL     3      -8.801   8.484  64.739  1.00  0.00     0.000 HD 
HETATM    7  C   UNL     3      -8.941  10.382  65.164  1.00  0.00    -0.191 C  
ENDROOT
BRANCH   3   8
HETATM    8  C   UNL     2     -10.811   7.834  70.723  1.00  0.00    -0.239 C  
HETATM    9  H   UNL     2     -10.704   9.539  69.752  1.00  0.00     0.000 HD 
HETATM   10  O   UNL     2     -11.392   8.919  69.966  1.00  0.00    -0.175 OA 
BRANCH   8  11
HETATM   11  C   UNL     2      -9.617   7.273  69.922  1.00  0.00    -0.163 C  
HETATM   12  C   UNL     2      -8.729   6.210  70.518  1.00  0.00    -0.142 C  
HETATM   13  O   UNL     2      -8.688   8.362  69.930  1.00  0.00    -0.132 OA 
HETATM   14  O   UNL     2      -7.597   9.193  71.790  1.00  0.00    -0.339 OA 
HETATM   15  H   UNL     2      -6.909   5.343  72.399  1.00  0.00     0.000 HD 
HETATM   16  O   UNL     2      -8.718   5.069  69.980  1.00  0.00    -0.096 OA 
HETATM   17  C   UNL     2      -8.093   8.288  71.157  1.00  0.00    -0.111 C  
HETATM   18  C   UNL     2      -7.971   6.834  71.451  1.00  0.00    -0.109 C  
HETATM   19  O   UNL     2      -6.988   6.270  72.212  1.00  0.00    -0.072 OA 
ENDBRANCH   8  11
ENDBRANCH   3   8
BRANCH   7  20
HETATM   20  C   UNL     3     -10.110  11.362  65.319  1.00  0.00    -0.268 C  
HETATM   21  O   UNL     3     -10.866  11.416  64.111  1.00  0.00    -0.347 OA 
HETATM   22  H   UNL     3     -11.591  12.023  64.207  1.00  0.00     0.000 HD 
BRANCH  20  23
HETATM   23  C   UNL     3      -9.920  12.759  65.971  1.00  0.00    -0.271 C  
HETATM   24  O   UNL     3     -11.410  15.705  64.921  1.00  0.00    -0.372 OA 
HETATM   25  C   UNL     3     -11.401  14.291  66.851  1.00  0.00    -0.343 C  
HETATM   26  C   UNL     3     -10.627  13.252  67.190  1.00  0.00    -0.258 C  
HETATM   27  O   UNL     3     -12.163  15.058  67.702  1.00  0.00    -0.464 OA 
HETATM   28  O   UNL     3     -10.075  13.829  65.023  1.00  0.00    -0.343 OA 
HETATM   29  C   UNL     3     -11.056  14.681  65.482  1.00  0.00    -0.345 C  
HETATM   30  O   UNL     3     -10.269  12.711  68.261  1.00  0.00    -0.229 OA 
HETATM   31  H   UNL     3     -12.387  14.804  68.590  1.00  0.00     0.000 HD 
ENDBRANCH  20  23
ENDBRANCH   7  20
TORSDOF 4
ENDMDL
MODEL      274
REMARK 921   NORMALIZED FREE ENERGY PREDICTED BY IDOCK:   -3.99 KCAL/MOL
REMARK 922        TOTAL FREE ENERGY PREDICTED BY IDOCK:   -6.85 KCAL/MOL
REMARK 923 INTER-LIGAND FREE ENERGY PREDICTED BY IDOCK:   -6.25 KCAL/MOL
REMARK 924 INTRA-LIGAND FREE ENERGY PREDICTED BY IDOCK:   -0.60 KCAL/MOL
REMARK 927      BINDING AFFINITY PREDICTED BY RF-SCORE:    0.00 PKD
ROOT
HETATM    1 CA   UNL     1      -7.393  13.032  69.856  1.00  0.00    -0.322 Ca 
HETATM    2  O   UNL     2      -7.841   6.606  72.592  1.00  0.00    -0.101 OA 
HETATM    3  C   UNL     2      -7.747   8.017  72.366  1.00  0.00    -0.114 C  
HETATM    4  H   UNL     2      -7.898   6.473  73.531  1.00  0.00     0.000 HD 
HETATM    5  O   UNL     3     -12.151  11.220  67.915  1.00  0.00    -0.634 OA 
HETATM    6  H   UNL     3     -12.633  10.454  67.625  1.00  0.00     0.000 HD 
HETATM    7  C   UNL     3     -11.274  11.596  66.816  1.00  0.00    -0.308 C  
ENDROOT
BRANCH   3   8
HETATM    8  C   UNL     2      -7.656   8.229  70.873  1.00  0.00    -0.076 C  
HETATM    9  H   UNL     2      -6.202   8.430  69.566  1.00  0.00     0.000 HD 
HETATM   10  O   UNL     2      -6.260   8.296  70.505  1.00  0.00    -0.035 OA 
BRANCH   8  11
HETATM   11  C   UNL     2      -8.359   9.487  70.322  1.00  0.00    -0.195 C  
HETATM   12  C   UNL     2      -9.607   9.360  69.484  1.00  0.00    -0.180 C  
HETATM   13  O   UNL     2      -7.459   9.936  69.303  1.00  0.00    -0.080 OA 
HETATM   14  O   UNL     2      -6.982   8.821  67.336  1.00  0.00    -0.073 OA 
HETATM   15  H   UNL     2     -10.928   8.540  67.208  1.00  0.00     0.000 HD 
HETATM   16  O   UNL     2     -10.686   9.819  69.946  1.00  0.00    -0.231 OA 
HETATM   17  C   UNL     2      -7.732   9.131  68.234  1.00  0.00    -0.091 C  
HETATM   18  C   UNL     2      -9.202   8.904  68.275  1.00  0.00    -0.140 C  
HETATM   19  O   UNL     2      -9.990   8.684  67.182  1.00  0.00    -0.188 OA 
ENDBRANCH   8  11
ENDBRANCH   3   8
BRANCH   7  20
HETATM   20  C   UNL     3     -10.497  12.832  67.283  1.00  0.00    -0.232 C  
HETATM   21  O   UNL     3     -11.248  13.540  68.268  1.00  0.00    -0.248 OA 
HETATM   22  H   UNL     3     -10.766  14.305  68.558  1.00  0.00     0.000 HD 
BRANCH  20  23
HETATM   23  C   UNL     3      -9.788  13.778  66.274  1.00  0.00    -0.303 C  
HETATM   24  O   UNL     3     -11.343  16.141  64.276  1.00  0.00    -0.628 OA 
HETATM   25  C   UNL     3      -9.737  16.071  66.048  1.00  0.00    -0.344 C  
HETATM   26  C   UNL     3      -9.088  15.050  66.621  1.00  0.00    -0.280 C  
HETATM   27  O   UNL     3      -9.370  17.397  66.079  1.00  0.00    -0.476 OA 
HETATM   28  O   UNL     3     -10.640  14.139  65.175  1.00  0.00    -0.348 OA 
HETATM   29  C   UNL     3     -10.719  15.513  65.115  1.00  0.00    -0.440 C  
HETATM   30  O   UNL     3      -8.006  14.905  67.235  1.00  0.00    -0.185 OA 
HETATM   31  H   UNL     3      -8.733  17.758  66.684  1.00  0.00     0.000 HD 
ENDBRANCH  20  23
ENDBRANCH   7  20
TORSDOF 4
ENDMDL
MODEL      275
REMARK 921   NORMALIZED FREE ENERGY PREDICTED BY IDOCK:   -3.95 KCAL/MOL
REMARK 922        TOTAL FREE ENERGY PREDICTED BY IDOCK:   -6.80 KCAL/MOL
REMARK 923 INTER-LIGAND FREE ENERGY PREDICTED BY IDOCK:   -7.02 KCAL/MOL
REMARK 924 INTRA-LIGAND FREE ENERGY PREDICTED BY IDOCK:    0.21 KCAL/MOL
REMARK 927      BINDING AFFINITY PREDICTED BY RF-SCORE:    0.00 PKD
ROOT
HETATM    1 CA   UNL     1      -7.405  11.540  67.625  1.00  0.00    -0.080 Ca 
HETATM    2  O   UNL     2      -9.898   7.778  72.973  1.00  0.00    -0.231 OA 
HETATM    3  C   UNL     2      -9.099   8.552  72.072  1.00  0.00    -0.247 C  
HETATM    4  H   UNL     2      -9.370   7.609  73.746  1.00  0.00     0.000 HD 
HETATM    5  O   UNL     3     -11.543  14.593  69.426  1.00  0.00    -0.271 OA 
HETATM    6  H   UNL     3     -12.404  14.579  69.826  1.00  0.00     0.000 HD 
HETATM    7  C   UNL     3     -11.736  14.269  68.019  1.00  0.00    -0.351 C  
ENDROOT
BRANCH   3   8
HETATM    8  C   UNL     2      -9.937   8.821  70.844  1.00  0.00    -0.222 C  
HETATM    9  H   UNL     2     -10.912   7.724  69.538  1.00  0.00     0.000 HD 
HETATM   10  O   UNL     2     -10.384   7.555  70.310  1.00  0.00    -0.206 OA 
BRANCH   8  11
HETATM   11  C   UNL     2      -9.246   9.605  69.709  1.00  0.00    -0.219 C  
HETATM   12  C   UNL     2      -9.973  10.717  68.995  1.00  0.00    -0.213 C  
HETATM   13  O   UNL     2      -9.207   8.652  68.641  1.00  0.00    -0.139 OA 
HETATM   14  O   UNL     2     -11.041   7.806  67.517  1.00  0.00    -0.058 OA 
HETATM   15  H   UNL     2     -12.008  11.642  67.381  1.00  0.00     0.000 HD 
HETATM   16  O   UNL     2      -9.535  11.893  69.119  1.00  0.00     0.153 OA 
HETATM   17  C   UNL     2     -10.464   8.692  68.108  1.00  0.00    -0.187 C  
HETATM   18  C   UNL     2     -10.886  10.117  68.195  1.00  0.00    -0.262 C  
HETATM   19  O   UNL     2     -11.739  10.733  67.326  1.00  0.00    -0.396 OA 
ENDBRANCH   8  11
ENDBRANCH   3   8
BRANCH   7  20
HETATM   20  C   UNL     3     -10.347  14.292  67.373  1.00  0.00    -0.259 C  
HETATM   21  O   UNL     3      -9.524  15.265  68.014  1.00  0.00    -0.196 OA 
HETATM   22  H   UNL     3      -8.663  15.279  67.613  1.00  0.00     0.000 HD 
BRANCH  20  23
HETATM   23  C   UNL     3     -10.166  14.276  65.829  1.00  0.00    -0.334 C  
HETATM   24  O   UNL     3     -10.994  11.656  63.720  1.00  0.00    -0.366 OA 
HETATM   25  C   UNL     3     -11.634  13.932  64.086  1.00  0.00    -0.298 C  
HETATM   26  C   UNL     3     -11.095  14.898  64.840  1.00  0.00    -0.414 C  
HETATM   27  O   UNL     3     -12.491  14.104  63.023  1.00  0.00    -1.077 OA 
HETATM   28  O   UNL     3      -9.955  12.949  65.320  1.00  0.00    -0.258 OA 
HETATM   29  C   UNL     3     -10.914  12.688  64.365  1.00  0.00    -0.351 C  
HETATM   30  O   UNL     3     -11.083  16.150  64.822  1.00  0.00    -0.532 OA 
HETATM   31  H   UNL     3     -12.958  14.912  62.842  1.00  0.00     0.000 HD 
ENDBRANCH  20  23
ENDBRANCH   7  20
TORSDOF 4
ENDMDL
MODEL      276
REMARK 921   NORMALIZED FREE ENERGY PREDICTED BY IDOCK:   -3.95 KCAL/MOL
REMARK 922        TOTAL FREE ENERGY PREDICTED BY IDOCK:   -6.80 KCAL/MOL
REMARK 923 INTER-LIGAND FREE ENERGY PREDICTED BY IDOCK:   -7.08 KCAL/MOL
REMARK 924 INTRA-LIGAND FREE ENERGY PREDICTED BY IDOCK:    0.28 KCAL/MOL
REMARK 927      BINDING AFFINITY PREDICTED BY RF-SCORE:    0.00 PKD
ROOT
HETATM    1 CA   UNL     1     -13.589  10.131  69.755  1.00  0.00    -0.608 Ca 
HETATM    2  O   UNL     2     -10.206   4.870  72.893  1.00  0.00    -0.160 OA 
HETATM    3  C   UNL     2     -11.123   5.696  72.166  1.00  0.00    -0.241 C  
HETATM    4  H   UNL     2     -10.524   3.976  72.837  1.00  0.00     0.000 HD 
HETATM    5  O   UNL     3      -8.799  10.056  67.160  1.00  0.00    -0.134 OA 
HETATM    6  H   UNL     3      -7.870   9.880  67.246  1.00  0.00     0.000 HD 
HETATM    7  C   UNL     3      -9.027  11.367  67.751  1.00  0.00    -0.147 C  
ENDROOT
BRANCH   3   8
HETATM    8  C   UNL     2     -10.618   7.117  72.255  1.00  0.00    -0.215 C  
HETATM    9  H   UNL     2     -10.389   8.441  73.688  1.00  0.00     0.000 HD 
HETATM   10  O   UNL     2     -10.706   7.547  73.632  1.00  0.00    -0.343 OA 
BRANCH   8  11
HETATM   11  C   UNL     2     -11.351   8.154  71.379  1.00  0.00    -0.259 C  
HETATM   12  C   UNL     2     -12.200   9.227  72.014  1.00  0.00    -0.348 C  
HETATM   13  O   UNL     2     -12.395   7.380  70.776  1.00  0.00    -0.242 OA 
HETATM   14  O   UNL     2     -14.181   6.424  71.888  1.00  0.00    -0.032 OA 
HETATM   15  H   UNL     2     -14.383  10.038  73.489  1.00  0.00     0.000 HD 
HETATM   16  O   UNL     2     -11.835  10.428  71.892  1.00  0.00     0.011 OA 
HETATM   17  C   UNL     2     -13.354   7.297  71.745  1.00  0.00    -0.304 C  
HETATM   18  C   UNL     2     -13.326   8.610  72.446  1.00  0.00    -0.343 C  
HETATM   19  O   UNL     2     -14.402   9.201  73.042  1.00  0.00    -0.439 OA 
ENDBRANCH   8  11
ENDBRANCH   3   8
BRANCH   7  20
HETATM   20  C   UNL     3     -10.527  11.652  67.611  1.00  0.00    -0.191 C  
HETATM   21  O   UNL     3     -11.233  11.120  68.731  1.00  0.00    -0.208 OA 
HETATM   22  H   UNL     3     -12.162  11.297  68.645  1.00  0.00     0.000 HD 
BRANCH  20  23
HETATM   23  C   UNL     3     -11.276  11.430  66.268  1.00  0.00    -0.161 C  
HETATM   24  O   UNL     3     -13.139  13.807  64.571  1.00  0.00    -0.443 OA 
HETATM   25  C   UNL     3     -11.172  12.489  64.224  1.00  0.00    -0.355 C  
HETATM   26  C   UNL     3     -10.655  11.464  64.911  1.00  0.00    -0.307 C  
HETATM   27  O   UNL     3     -10.903  12.819  62.915  1.00  0.00    -0.388 OA 
HETATM   28  O   UNL     3     -12.431  12.277  66.142  1.00  0.00    -0.466 OA 
HETATM   29  C   UNL     3     -12.311  13.012  64.983  1.00  0.00    -0.473 C  
HETATM   30  O   UNL     3      -9.911  10.491  64.649  1.00  0.00    -0.288 OA 
HETATM   31  H   UNL     3     -10.164  12.479  62.423  1.00  0.00     0.000 HD 
ENDBRANCH  20  23
ENDBRANCH   7  20
TORSDOF 4
ENDMDL
MODEL      277
REMARK 921   NORMALIZED FREE ENERGY PREDICTED BY IDOCK:   -3.94 KCAL/MOL
REMARK 922        TOTAL FREE ENERGY PREDICTED BY IDOCK:   -6.79 KCAL/MOL
REMARK 923 INTER-LIGAND FREE ENERGY PREDICTED BY IDOCK:   -4.93 KCAL/MOL
REMARK 924 INTRA-LIGAND FREE ENERGY PREDICTED BY IDOCK:   -1.86 KCAL/MOL
REMARK 927      BINDING AFFINITY PREDICTED BY RF-SCORE:    0.00 PKD
ROOT
HETATM    1 CA   UNL     1     -11.558   5.701  68.568  1.00  0.00    -0.253 Ca 
HETATM    2  O   UNL     2     -12.939  11.757  71.792  1.00  0.00    -0.423 OA 
HETATM    3  C   UNL     2     -12.909  10.398  71.339  1.00  0.00    -0.452 C  
HETATM    4  H   UNL     2     -13.584  11.809  72.488  1.00  0.00     0.000 HD 
HETATM    5  O   UNL     3      -6.826   6.885  70.995  1.00  0.00    -0.056 OA 
HETATM    6  H   UNL     3      -6.248   7.585  71.274  1.00  0.00     0.000 HD 
HETATM    7  C   UNL     3      -6.627   6.733  69.560  1.00  0.00    -0.048 C  
ENDROOT
BRANCH   3   8
HETATM    8  C   UNL     2     -11.882  10.315  70.235  1.00  0.00    -0.288 C  
HETATM    9  H   UNL     2     -11.725  11.009  68.404  1.00  0.00     0.000 HD 
HETATM   10  O   UNL     2     -12.371  11.062  69.099  1.00  0.00    -0.451 OA 
BRANCH   8  11
HETATM   11  C   UNL     2     -11.516   8.894  69.755  1.00  0.00     0.193 C  
HETATM   12  C   UNL     2     -11.346   7.773  70.748  1.00  0.00    -0.279 C  
HETATM   13  O   UNL     2     -10.148   9.036  69.353  1.00  0.00    -0.186 OA 
HETATM   14  O   UNL     2      -8.367   9.482  70.756  1.00  0.00    -0.243 OA 
HETATM   15  H   UNL     2     -10.042   6.583  72.866  1.00  0.00     0.000 HD 
HETATM   16  O   UNL     2     -12.163   6.812  70.710  1.00  0.00    -0.390 OA 
HETATM   17  C   UNL     2      -9.446   8.985  70.523  1.00  0.00    -0.221 C  
HETATM   18  C   UNL     2     -10.167   8.000  71.375  1.00  0.00    -0.196 C  
HETATM   19  O   UNL     2      -9.583   7.211  72.323  1.00  0.00    -0.143 OA 
ENDBRANCH   8  11
ENDBRANCH   3   8
BRANCH   7  20
HETATM   20  C   UNL     3      -7.560   5.603  69.110  1.00  0.00    -0.088 C  
HETATM   21  O   UNL     3      -6.798   4.446  68.767  1.00  0.00    -0.048 OA 
HETATM   22  H   UNL     3      -7.376   3.746  68.488  1.00  0.00     0.000 HD 
BRANCH  20  23
HETATM   23  C   UNL     3      -8.735   5.861  68.127  1.00  0.00    -0.111 C  
HETATM   24  O   UNL     3      -8.723   8.120  65.501  1.00  0.00    -0.161 OA 
HETATM   25  C   UNL     3      -8.908   5.758  65.831  1.00  0.00    -0.150 C  
HETATM   26  C   UNL     3      -9.073   5.023  66.938  1.00  0.00    -0.117 C  
HETATM   27  O   UNL     3      -9.175   5.365  64.539  1.00  0.00    -0.361 OA 
HETATM   28  O   UNL     3      -8.734   7.204  67.616  1.00  0.00    -0.122 OA 
HETATM   29  C   UNL     3      -8.705   7.149  66.240  1.00  0.00    -0.146 C  
HETATM   30  O   UNL     3      -9.552   3.898  67.206  1.00  0.00    -0.193 OA 
HETATM   31  H   UNL     3      -9.307   4.462  64.274  1.00  0.00     0.000 HD 
ENDBRANCH  20  23
ENDBRANCH   7  20
TORSDOF 4
ENDMDL
MODEL      278
REMARK 921   NORMALIZED FREE ENERGY PREDICTED BY IDOCK:   -3.94 KCAL/MOL
REMARK 922        TOTAL FREE ENERGY PREDICTED BY IDOCK:   -6.79 KCAL/MOL
REMARK 923 INTER-LIGAND FREE ENERGY PREDICTED BY IDOCK:   -5.96 KCAL/MOL
REMARK 924 INTRA-LIGAND FREE ENERGY PREDICTED BY IDOCK:   -0.83 KCAL/MOL
REMARK 927      BINDING AFFINITY PREDICTED BY RF-SCORE:    0.00 PKD
ROOT
HETATM    1 CA   UNL     1      -7.167  12.611  69.059  1.00  0.00    -0.087 Ca 
HETATM    2  O   UNL     2      -9.586   7.160  72.721  1.00  0.00    -0.144 OA 
HETATM    3  C   UNL     2      -8.836   8.267  72.207  1.00  0.00    -0.209 C  
HETATM    4  H   UNL     2      -9.142   6.856  73.504  1.00  0.00     0.000 HD 
HETATM    5  O   UNL     3     -12.006  14.390  70.820  1.00  0.00    -0.301 OA 
HETATM    6  H   UNL     3     -12.894  14.137  71.042  1.00  0.00     0.000 HD 
HETATM    7  C   UNL     3     -11.949  14.455  69.366  1.00  0.00    -0.328 C  
ENDROOT
BRANCH   3   8
HETATM    8  C   UNL     2      -9.541   8.750  70.962  1.00  0.00    -0.229 C  
HETATM    9  H   UNL     2     -11.159   9.795  70.577  1.00  0.00     0.000 HD 
HETATM   10  O   UNL     2     -10.715   9.492  71.360  1.00  0.00    -0.346 OA 
BRANCH   8  11
HETATM   11  C   UNL     2      -9.979   7.657  69.963  1.00  0.00    -0.190 C  
HETATM   12  C   UNL     2      -8.951   6.897  69.164  1.00  0.00    -0.133 C  
HETATM   13  O   UNL     2     -10.565   8.414  68.898  1.00  0.00    -0.212 OA 
HETATM   14  O   UNL     2      -9.437   9.853  67.485  1.00  0.00    -0.148 OA 
HETATM   15  H   UNL     2      -6.955   6.778  67.265  1.00  0.00     0.000 HD 
HETATM   16  O   UNL     2      -8.823   5.660  69.376  1.00  0.00    -0.111 OA 
HETATM   17  C   UNL     2      -9.496   8.860  68.174  1.00  0.00    -0.143 C  
HETATM   18  C   UNL     2      -8.499   7.755  68.219  1.00  0.00    -0.124 C  
HETATM   19  O   UNL     2      -7.591   7.483  67.237  1.00  0.00    -0.103 OA 
ENDBRANCH   8  11
ENDBRANCH   3   8
BRANCH   7  20
HETATM   20  C   UNL     3     -10.516  14.863  69.006  1.00  0.00    -0.247 C  
HETATM   21  O   UNL     3     -10.140  16.030  69.736  1.00  0.00    -0.266 OA 
HETATM   22  H   UNL     3      -9.252  16.282  69.513  1.00  0.00     0.000 HD 
BRANCH  20  23
HETATM   23  C   UNL     3     -10.023  14.893  67.532  1.00  0.00    -0.219 C  
HETATM   24  O   UNL     3     -10.853  17.283  65.167  1.00  0.00    -0.640 OA 
HETATM   25  C   UNL     3      -8.900  16.475  66.289  1.00  0.00    -0.329 C  
HETATM   26  C   UNL     3      -8.700  15.406  67.069  1.00  0.00    -0.229 C  
HETATM   27  O   UNL     3      -7.936  17.193  65.619  1.00  0.00    -0.381 OA 
HETATM   28  O   UNL     3     -10.969  15.527  66.655  1.00  0.00    -0.312 OA 
HETATM   29  C   UNL     3     -10.334  16.562  66.003  1.00  0.00    -0.345 C  
HETATM   30  O   UNL     3      -7.721  14.687  67.375  1.00  0.00    -0.182 OA 
HETATM   31  H   UNL     3      -7.006  17.136  65.804  1.00  0.00     0.000 HD 
ENDBRANCH  20  23
ENDBRANCH   7  20
TORSDOF 4
ENDMDL
MODEL      279
REMARK 921   NORMALIZED FREE ENERGY PREDICTED BY IDOCK:   -3.93 KCAL/MOL
REMARK 922        TOTAL FREE ENERGY PREDICTED BY IDOCK:   -6.77 KCAL/MOL
REMARK 923 INTER-LIGAND FREE ENERGY PREDICTED BY IDOCK:   -5.83 KCAL/MOL
REMARK 924 INTRA-LIGAND FREE ENERGY PREDICTED BY IDOCK:   -0.94 KCAL/MOL
REMARK 927      BINDING AFFINITY PREDICTED BY RF-SCORE:    0.00 PKD
ROOT
HETATM    1 CA   UNL     1     -11.601  16.353  68.646  1.00  0.00    -0.297 Ca 
HETATM    2  O   UNL     2     -10.971  11.015  64.166  1.00  0.00    -0.410 OA 
HETATM    3  C   UNL     2     -11.339  12.215  64.855  1.00  0.00    -0.326 C  
HETATM    4  H   UNL     2     -11.472  10.986  63.359  1.00  0.00     0.000 HD 
HETATM    5  O   UNL     3      -6.412  16.739  67.029  1.00  0.00    -0.160 OA 
HETATM    6  H   UNL     3      -5.647  16.253  66.747  1.00  0.00     0.000 HD 
HETATM    7  C   UNL     3      -6.476  16.605  68.477  1.00  0.00    -0.139 C  
ENDROOT
BRANCH   3   8
HETATM    8  C   UNL     2     -10.542  12.260  66.138  1.00  0.00    -0.249 C  
HETATM    9  H   UNL     2     -10.369  13.510  67.643  1.00  0.00     0.000 HD 
HETATM   10  O   UNL     2     -10.871  13.481  66.837  1.00  0.00    -0.279 OA 
BRANCH   8  11
HETATM   11  C   UNL     2      -9.008  12.192  65.985  1.00  0.00     0.020 C  
HETATM   12  C   UNL     2      -8.331  10.886  65.652  1.00  0.00    -0.105 C  
HETATM   13  O   UNL     2      -8.546  12.337  67.333  1.00  0.00    -0.161 OA 
HETATM   14  O   UNL     2      -8.871  10.816  69.043  1.00  0.00    -0.162 OA 
HETATM   15  H   UNL     2      -7.636   8.288  66.259  1.00  0.00     0.000 HD 
HETATM   16  O   UNL     2      -7.739  10.786  64.542  1.00  0.00     0.064 OA 
HETATM   17  C   UNL     2      -8.699  11.093  67.877  1.00  0.00    -0.136 C  
HETATM   18  C   UNL     2      -8.377  10.139  66.780  1.00  0.00    -0.122 C  
HETATM   19  O   UNL     2      -7.841   8.897  66.958  1.00  0.00    -0.100 OA 
ENDBRANCH   8  11
ENDBRANCH   3   8
BRANCH   7  20
HETATM   20  C   UNL     3      -7.711  17.390  68.933  1.00  0.00    -0.209 C  
HETATM   21  O   UNL     3      -8.871  16.563  68.863  1.00  0.00    -0.241 OA 
HETATM   22  H   UNL     3      -9.636  17.049  69.145  1.00  0.00     0.000 HD 
BRANCH  20  23
HETATM   23  C   UNL     3      -7.979  18.841  68.445  1.00  0.00    -0.334 C  
HETATM   24  O   UNL     3      -6.963  20.181  65.416  1.00  0.00    -0.304 OA 
HETATM   25  C   UNL     3      -9.004  19.698  66.567  1.00  0.00    -0.369 C  
HETATM   26  C   UNL     3      -9.249  19.331  67.831  1.00  0.00    -0.315 C  
HETATM   27  O   UNL     3      -9.902  20.258  65.688  1.00  0.00    -0.574 OA 
HETATM   28  O   UNL     3      -6.957  19.313  67.551  1.00  0.00    -0.207 OA 
HETATM   29  C   UNL     3      -7.553  19.706  66.373  1.00  0.00    -0.291 C  
HETATM   30  O   UNL     3     -10.214  19.426  68.624  1.00  0.00    -0.421 OA 
HETATM   31  H   UNL     3     -10.844  20.253  65.814  1.00  0.00     0.000 HD 
ENDBRANCH  20  23
ENDBRANCH   7  20
TORSDOF 4
ENDMDL
MODEL      280
REMARK 921   NORMALIZED FREE ENERGY PREDICTED BY IDOCK:   -3.92 KCAL/MOL
REMARK 922        TOTAL FREE ENERGY PREDICTED BY IDOCK:   -6.76 KCAL/MOL
REMARK 923 INTER-LIGAND FREE ENERGY PREDICTED BY IDOCK:   -6.77 KCAL/MOL
REMARK 924 INTRA-LIGAND FREE ENERGY PREDICTED BY IDOCK:    0.01 KCAL/MOL
REMARK 927      BINDING AFFINITY PREDICTED BY RF-SCORE:    0.00 PKD
ROOT
HETATM    1 CA   UNL     1     -10.629  16.902  66.254  1.00  0.00    -0.284 Ca 
HETATM    2  O   UNL     2     -10.054  10.520  63.442  1.00  0.00    -0.474 OA 
HETATM    3  C   UNL     2     -10.225  11.921  63.687  1.00  0.00    -0.438 C  
HETATM    4  H   UNL     2     -10.109  10.388  62.503  1.00  0.00     0.000 HD 
HETATM    5  O   UNL     3      -5.537  15.463  67.553  1.00  0.00    -0.294 OA 
HETATM    6  H   UNL     3      -4.965  14.737  67.773  1.00  0.00     0.000 HD 
HETATM    7  C   UNL     3      -6.291  15.775  68.759  1.00  0.00    -0.109 C  
ENDROOT
BRANCH   3   8
HETATM    8  C   UNL     2     -10.138  12.130  65.181  1.00  0.00    -0.261 C  
HETATM    9  H   UNL     2     -11.325  11.823  66.716  1.00  0.00     0.000 HD 
HETATM   10  O   UNL     2     -11.379  11.691  65.777  1.00  0.00    -0.284 OA 
BRANCH   8  11
HETATM   11  C   UNL     2      -9.865  13.575  65.649  1.00  0.00    -0.167 C  
HETATM   12  C   UNL     2     -10.295  14.028  67.021  1.00  0.00    -0.267 C  
HETATM   13  O   UNL     2     -10.788  14.343  64.869  1.00  0.00    -0.376 OA 
HETATM   14  O   UNL     2     -13.091  14.269  65.042  1.00  0.00    -0.682 OA 
HETATM   15  H   UNL     2     -12.239  14.586  68.894  1.00  0.00     0.000 HD 
HETATM   16  O   UNL     2      -9.401  14.339  67.855  1.00  0.00    -0.187 OA 
HETATM   17  C   UNL     2     -11.981  14.197  65.518  1.00  0.00    -0.391 C  
HETATM   18  C   UNL     2     -11.641  14.167  66.967  1.00  0.00    -0.382 C  
HETATM   19  O   UNL     2     -12.456  14.605  67.970  1.00  0.00    -0.032 OA 
ENDBRANCH   8  11
ENDBRANCH   3   8
BRANCH   7  20
HETATM   20  C   UNL     3      -7.213  16.947  68.404  1.00  0.00    -0.195 C  
HETATM   21  O   UNL     3      -8.546  16.667  68.826  1.00  0.00    -0.245 OA 
HETATM   22  H   UNL     3      -9.118  17.393  68.606  1.00  0.00     0.000 HD 
BRANCH  20  23
HETATM   23  C   UNL     3      -7.156  17.635  67.011  1.00  0.00    -0.179 C  
HETATM   24  O   UNL     3      -9.749  19.363  65.497  1.00  0.00    -0.252 OA 
HETATM   25  C   UNL     3      -7.543  19.798  66.316  1.00  0.00    -0.309 C  
HETATM   26  C   UNL     3      -6.569  18.978  66.729  1.00  0.00    -0.189 C  
HETATM   27  O   UNL     3      -7.397  21.102  65.901  1.00  0.00    -0.306 OA 
HETATM   28  O   UNL     3      -8.443  17.677  66.372  1.00  0.00    -0.272 OA 
HETATM   29  C   UNL     3      -8.739  18.989  66.071  1.00  0.00    -0.051 C  
HETATM   30  O   UNL     3      -5.319  19.031  66.799  1.00  0.00    -0.145 OA 
HETATM   31  H   UNL     3      -6.620  21.626  66.061  1.00  0.00     0.000 HD 
ENDBRANCH  20  23
ENDBRANCH   7  20
TORSDOF 4
ENDMDL
MODEL      281
REMARK 921   NORMALIZED FREE ENERGY PREDICTED BY IDOCK:   -3.92 KCAL/MOL
REMARK 922        TOTAL FREE ENERGY PREDICTED BY IDOCK:   -6.76 KCAL/MOL
REMARK 923 INTER-LIGAND FREE ENERGY PREDICTED BY IDOCK:   -6.91 KCAL/MOL
REMARK 924 INTRA-LIGAND FREE ENERGY PREDICTED BY IDOCK:    0.15 KCAL/MOL
REMARK 927      BINDING AFFINITY PREDICTED BY RF-SCORE:    0.00 PKD
ROOT
HETATM    1 CA   UNL     1     -10.694  12.483  68.793  1.00  0.00    -0.189 Ca 
HETATM    2  O   UNL     2     -11.900   6.076  71.336  1.00  0.00    -0.191 OA 
HETATM    3  C   UNL     2     -11.989   7.433  70.888  1.00  0.00    -0.277 C  
HETATM    4  H   UNL     2     -12.768   5.811  71.615  1.00  0.00     0.000 HD 
HETATM    5  O   UNL     3      -9.578   9.266  64.540  1.00  0.00    -0.379 OA 
HETATM    6  H   UNL     3      -9.243   8.419  64.272  1.00  0.00     0.000 HD 
HETATM    7  C   UNL     3      -8.418  10.084  64.865  1.00  0.00    -0.166 C  
ENDROOT
BRANCH   3   8
HETATM    8  C   UNL     2     -10.608   7.853  70.444  1.00  0.00    -0.228 C  
HETATM    9  H   UNL     2      -8.905   6.939  70.091  1.00  0.00     0.000 HD 
HETATM   10  O   UNL     2      -9.774   6.675  70.370  1.00  0.00    -0.174 OA 
BRANCH   8  11
HETATM   11  C   UNL     2      -9.895   8.892  71.336  1.00  0.00    -0.306 C  
HETATM   12  C   UNL     2      -8.464   8.679  71.762  1.00  0.00    -0.155 C  
HETATM   13  O   UNL     2     -10.529   8.709  72.607  1.00  0.00    -0.250 OA 
HETATM   14  O   UNL     2     -10.369   6.826  73.937  1.00  0.00    -0.327 OA 
HETATM   15  H   UNL     2      -6.521   7.280  73.129  1.00  0.00     0.000 HD 
HETATM   16  O   UNL     2      -7.589   9.484  71.340  1.00  0.00    -0.311 OA 
HETATM   17  C   UNL     2      -9.914   7.610  73.135  1.00  0.00    -0.304 C  
HETATM   18  C   UNL     2      -8.493   7.705  72.702  1.00  0.00    -0.126 C  
HETATM   19  O   UNL     2      -7.428   7.219  73.405  1.00  0.00    -0.075 OA 
ENDBRANCH   8  11
ENDBRANCH   3   8
BRANCH   7  20
HETATM   20  C   UNL     3      -8.960  11.452  65.298  1.00  0.00    -0.008 C  
HETATM   21  O   UNL     3      -8.341  11.860  66.517  1.00  0.00    -0.304 OA 
HETATM   22  H   UNL     3      -8.676  12.707  66.785  1.00  0.00     0.000 HD 
BRANCH  20  23
HETATM   23  C   UNL     3     -10.479  11.777  65.257  1.00  0.00    -0.274 C  
HETATM   24  O   UNL     3     -11.941  14.757  66.245  1.00  0.00    -0.290 OA 
HETATM   25  C   UNL     3     -11.693  13.457  64.252  1.00  0.00    -0.412 C  
HETATM   26  C   UNL     3     -11.241  12.214  64.050  1.00  0.00    -0.390 C  
HETATM   27  O   UNL     3     -12.490  14.188  63.400  1.00  0.00    -1.122 OA 
HETATM   28  O   UNL     3     -10.861  12.721  66.270  1.00  0.00    -0.269 OA 
HETATM   29  C   UNL     3     -11.474  13.794  65.660  1.00  0.00    -0.310 C  
HETATM   30  O   UNL     3     -11.414  11.324  63.186  1.00  0.00    -0.071 OA 
HETATM   31  H   UNL     3     -12.633  13.969  62.486  1.00  0.00     0.000 HD 
ENDBRANCH  20  23
ENDBRANCH   7  20
TORSDOF 4
ENDMDL
MODEL      282
REMARK 921   NORMALIZED FREE ENERGY PREDICTED BY IDOCK:   -3.92 KCAL/MOL
REMARK 922        TOTAL FREE ENERGY PREDICTED BY IDOCK:   -6.76 KCAL/MOL
REMARK 923 INTER-LIGAND FREE ENERGY PREDICTED BY IDOCK:   -5.73 KCAL/MOL
REMARK 924 INTRA-LIGAND FREE ENERGY PREDICTED BY IDOCK:   -1.03 KCAL/MOL
REMARK 927      BINDING AFFINITY PREDICTED BY RF-SCORE:    0.00 PKD
ROOT
HETATM    1 CA   UNL     1      -7.589   8.521  70.046  1.00  0.00    -0.054 Ca 
HETATM    2  O   UNL     2     -10.010  14.041  66.491  1.00  0.00    -0.268 OA 
HETATM    3  C   UNL     2      -9.205  13.040  67.124  1.00  0.00    -0.226 C  
HETATM    4  H   UNL     2      -9.421  14.633  66.037  1.00  0.00     0.000 HD 
HETATM    5  O   UNL     3     -10.535   6.211  66.087  1.00  0.00    -0.440 OA 
HETATM    6  H   UNL     3     -11.299   6.304  65.530  1.00  0.00     0.000 HD 
HETATM    7  C   UNL     3     -11.025   5.782  67.390  1.00  0.00    -0.062 C  
ENDROOT
BRANCH   3   8
HETATM    8  C   UNL     2     -10.143  12.099  67.845  1.00  0.00    -0.197 C  
HETATM    9  H   UNL     2     -10.716  10.234  67.615  1.00  0.00     0.000 HD 
HETATM   10  O   UNL     2     -10.126  10.826  67.162  1.00  0.00    -0.190 OA 
BRANCH   8  11
HETATM   11  C   UNL     2     -11.610  12.562  67.963  1.00  0.00    -0.342 C  
HETATM   12  C   UNL     2     -12.024  13.521  69.051  1.00  0.00    -0.335 C  
HETATM   13  O   UNL     2     -12.277  11.390  68.442  1.00  0.00    -0.571 OA 
HETATM   14  O   UNL     2     -11.973  10.414  70.515  1.00  0.00    -0.282 OA 
HETATM   15  H   UNL     2     -12.392  14.166  71.706  1.00  0.00     0.000 HD 
HETATM   16  O   UNL     2     -12.427  14.668  68.716  1.00  0.00    -0.071 OA 
HETATM   17  C   UNL     2     -12.016  11.377  69.783  1.00  0.00    -0.353 C  
HETATM   18  C   UNL     2     -12.026  12.806  70.201  1.00  0.00    -0.296 C  
HETATM   19  O   UNL     2     -12.385  13.255  71.439  1.00  0.00    -0.257 OA 
ENDBRANCH   8  11
ENDBRANCH   3   8
BRANCH   7  20
HETATM   20  C   UNL     3      -9.792   5.632  68.289  1.00  0.00    -0.141 C  
HETATM   21  O   UNL     3      -9.546   4.252  68.556  1.00  0.00    -0.154 OA 
HETATM   22  H   UNL     3      -8.782   4.159  69.113  1.00  0.00     0.000 HD 
BRANCH  20  23
HETATM   23  C   UNL     3      -9.581   6.533  69.537  1.00  0.00    -0.145 C  
HETATM   24  O   UNL     3     -11.995   7.334  71.889  1.00  0.00    -0.287 OA 
HETATM   25  C   UNL     3      -9.900   6.182  71.793  1.00  0.00    -0.164 C  
HETATM   26  C   UNL     3      -8.974   6.097  70.830  1.00  0.00    -0.143 C  
HETATM   27  O   UNL     3      -9.715   5.928  73.133  1.00  0.00    -0.156 OA 
HETATM   28  O   UNL     3     -10.786   7.210  69.931  1.00  0.00    -0.243 OA 
HETATM   29  C   UNL     3     -11.054   6.898  71.246  1.00  0.00    -0.258 C  
HETATM   30  O   UNL     3      -7.741   5.881  70.785  1.00  0.00    -0.093 OA 
HETATM   31  H   UNL     3      -8.965   5.463  73.487  1.00  0.00     0.000 HD 
ENDBRANCH  20  23
ENDBRANCH   7  20
TORSDOF 4
ENDMDL
MODEL      283
REMARK 921   NORMALIZED FREE ENERGY PREDICTED BY IDOCK:   -3.91 KCAL/MOL
REMARK 922        TOTAL FREE ENERGY PREDICTED BY IDOCK:   -6.75 KCAL/MOL
REMARK 923 INTER-LIGAND FREE ENERGY PREDICTED BY IDOCK:   -5.86 KCAL/MOL
REMARK 924 INTRA-LIGAND FREE ENERGY PREDICTED BY IDOCK:   -0.89 KCAL/MOL
REMARK 927      BINDING AFFINITY PREDICTED BY RF-SCORE:    0.00 PKD
ROOT
HETATM    1 CA   UNL     1     -10.902  14.319  69.108  1.00  0.00    -0.207 Ca 
HETATM    2  O   UNL     2     -11.331  11.559  62.691  1.00  0.00    -0.361 OA 
HETATM    3  C   UNL     2     -11.537  12.283  63.910  1.00  0.00    -0.444 C  
HETATM    4  H   UNL     2     -12.027  11.807  62.093  1.00  0.00     0.000 HD 
HETATM    5  O   UNL     3      -6.340  16.100  66.719  1.00  0.00    -0.296 OA 
HETATM    6  H   UNL     3      -5.663  15.896  66.085  1.00  0.00     0.000 HD 
HETATM    7  C   UNL     3      -6.014  15.352  67.925  1.00  0.00    -0.149 C  
ENDROOT
BRANCH   3   8
HETATM    8  C   UNL     2     -10.430  11.890  64.860  1.00  0.00    -0.287 C  
HETATM    9  H   UNL     2      -8.708  10.957  64.705  1.00  0.00     0.000 HD 
HETATM   10  O   UNL     2      -9.404  11.204  64.107  1.00  0.00    -0.213 OA 
BRANCH   8  11
HETATM   11  C   UNL     2     -10.841  10.989  66.044  1.00  0.00    -0.122 C  
HETATM   12  C   UNL     2     -10.838  11.530  67.452  1.00  0.00    -0.246 C  
HETATM   13  O   UNL     2      -9.735  10.087  66.157  1.00  0.00    -0.196 OA 
HETATM   14  O   UNL     2      -7.584  10.656  66.782  1.00  0.00    -0.109 OA 
HETATM   15  H   UNL     2      -9.535  12.556  69.655  1.00  0.00     0.000 HD 
HETATM   16  O   UNL     2     -11.940  11.626  68.058  1.00  0.00    -0.577 OA 
HETATM   17  C   UNL     2      -8.785  10.799  66.832  1.00  0.00    -0.141 C  
HETATM   18  C   UNL     2      -9.536  11.628  67.814  1.00  0.00    -0.178 C  
HETATM   19  O   UNL     2      -9.056  12.027  69.028  1.00  0.00     0.123 OA 
ENDBRANCH   8  11
ENDBRANCH   3   8
BRANCH   7  20
HETATM   20  C   UNL     3      -7.106  15.681  68.949  1.00  0.00    -0.138 C  
HETATM   21  O   UNL     3      -7.924  14.535  69.178  1.00  0.00    -0.244 OA 
HETATM   22  H   UNL     3      -8.601  14.738  69.813  1.00  0.00     0.000 HD 
BRANCH  20  23
HETATM   23  C   UNL     3      -7.926  16.998  68.870  1.00  0.00    -0.217 C  
HETATM   24  O   UNL     3      -7.568  19.466  66.466  1.00  0.00    -0.236 OA 
HETATM   25  C   UNL     3      -9.239  17.928  67.220  1.00  0.00    -0.254 C  
HETATM   26  C   UNL     3      -9.298  17.134  68.296  1.00  0.00    -0.265 C  
HETATM   27  O   UNL     3     -10.301  18.346  66.451  1.00  0.00    -0.376 OA 
HETATM   28  O   UNL     3      -7.185  18.065  68.255  1.00  0.00    -0.231 OA 
HETATM   29  C   UNL     3      -7.909  18.540  67.183  1.00  0.00    -0.230 C  
HETATM   30  O   UNL     3     -10.209  16.616  68.982  1.00  0.00    -0.265 OA 
HETATM   31  H   UNL     3     -11.164  17.949  66.475  1.00  0.00     0.000 HD 
ENDBRANCH  20  23
ENDBRANCH   7  20
TORSDOF 4
ENDMDL
MODEL      284
REMARK 921   NORMALIZED FREE ENERGY PREDICTED BY IDOCK:   -3.89 KCAL/MOL
REMARK 922        TOTAL FREE ENERGY PREDICTED BY IDOCK:   -6.73 KCAL/MOL
REMARK 923 INTER-LIGAND FREE ENERGY PREDICTED BY IDOCK:   -7.35 KCAL/MOL
REMARK 924 INTRA-LIGAND FREE ENERGY PREDICTED BY IDOCK:    0.63 KCAL/MOL
REMARK 927      BINDING AFFINITY PREDICTED BY RF-SCORE:    0.00 PKD
ROOT
HETATM    1 CA   UNL     1      -8.490  14.405  70.216  1.00  0.00    -0.358 Ca 
HETATM    2  O   UNL     2      -5.922  20.639  68.342  1.00  0.00    -0.287 OA 
HETATM    3  C   UNL     2      -6.111  19.282  68.756  1.00  0.00    -0.233 C  
HETATM    4  H   UNL     2      -4.986  20.787  68.272  1.00  0.00     0.000 HD 
HETATM    5  O   UNL     3     -10.358  15.003  65.133  1.00  0.00    -0.379 OA 
HETATM    6  H   UNL     3     -10.657  15.627  64.482  1.00  0.00     0.000 HD 
HETATM    7  C   UNL     3     -11.469  14.804  66.053  1.00  0.00    -0.316 C  
ENDROOT
BRANCH   3   8
HETATM    8  C   UNL     2      -7.600  19.048  68.867  1.00  0.00    -0.320 C  
HETATM    9  H   UNL     2      -8.806  17.517  68.620  1.00  0.00     0.000 HD 
HETATM   10  O   UNL     2      -7.870  17.664  68.552  1.00  0.00    -0.265 OA 
BRANCH   8  11
HETATM   11  C   UNL     2      -8.493  19.929  67.967  1.00  0.00    -0.257 C  
HETATM   12  C   UNL     2      -9.815  19.409  67.460  1.00  0.00    -0.346 C  
HETATM   13  O   UNL     2      -7.777  19.947  66.727  1.00  0.00    -0.268 OA 
HETATM   14  O   UNL     2      -7.435  18.133  65.338  1.00  0.00    -0.499 OA 
HETATM   15  H   UNL     2     -11.315  17.655  65.952  1.00  0.00     0.000 HD 
HETATM   16  O   UNL     2     -10.871  19.973  67.856  1.00  0.00    -0.233 OA 
HETATM   17  C   UNL     2      -8.096  18.758  66.136  1.00  0.00    -0.199 C  
HETATM   18  C   UNL     2      -9.518  18.506  66.495  1.00  0.00    -0.320 C  
HETATM   19  O   UNL     2     -10.408  17.815  65.724  1.00  0.00    -0.570 OA 
ENDBRANCH   8  11
ENDBRANCH   3   8
BRANCH   7  20
HETATM   20  C   UNL     3     -10.987  13.797  67.104  1.00  0.00    -0.290 C  
HETATM   21  O   UNL     3      -9.686  14.155  67.566  1.00  0.00    -0.227 OA 
HETATM   22  H   UNL     3      -9.387  13.532  68.217  1.00  0.00     0.000 HD 
BRANCH  20  23
HETATM   23  C   UNL     3     -11.152  12.266  66.900  1.00  0.00    -0.290 C  
HETATM   24  O   UNL     3      -8.617  10.045  66.100  1.00  0.00    -0.130 OA 
HETATM   25  C   UNL     3     -10.155  10.439  67.890  1.00  0.00    -0.171 C  
HETATM   26  C   UNL     3     -11.218  11.247  67.989  1.00  0.00    -0.287 C  
HETATM   27  O   UNL     3      -9.886   9.337  68.671  1.00  0.00    -0.155 OA 
HETATM   28  O   UNL     3     -10.183  11.732  65.983  1.00  0.00    -0.217 OA 
HETATM   29  C   UNL     3      -9.491  10.721  66.615  1.00  0.00    -0.175 C  
HETATM   30  O   UNL     3     -12.274  11.263  68.662  1.00  0.00    -0.562 OA 
HETATM   31  H   UNL     3     -10.318   9.154  69.497  1.00  0.00     0.000 HD 
ENDBRANCH  20  23
ENDBRANCH   7  20
TORSDOF 4
ENDMDL
MODEL      285
REMARK 921   NORMALIZED FREE ENERGY PREDICTED BY IDOCK:   -3.89 KCAL/MOL
REMARK 922        TOTAL FREE ENERGY PREDICTED BY IDOCK:   -6.72 KCAL/MOL
REMARK 923 INTER-LIGAND FREE ENERGY PREDICTED BY IDOCK:   -6.69 KCAL/MOL
REMARK 924 INTRA-LIGAND FREE ENERGY PREDICTED BY IDOCK:   -0.03 KCAL/MOL
REMARK 927      BINDING AFFINITY PREDICTED BY RF-SCORE:    0.00 PKD
ROOT
HETATM    1 CA   UNL     1     -10.227  13.263  68.414  1.00  0.00    -0.199 Ca 
HETATM    2  O   UNL     2      -8.259  19.458  65.823  1.00  0.00    -0.439 OA 
HETATM    3  C   UNL     2      -8.341  18.192  66.487  1.00  0.00    -0.265 C  
HETATM    4  H   UNL     2      -7.380  19.794  65.960  1.00  0.00     0.000 HD 
HETATM    5  O   UNL     3     -10.581  12.489  63.033  1.00  0.00    -0.538 OA 
HETATM    6  H   UNL     3     -10.770  12.901  62.198  1.00  0.00     0.000 HD 
HETATM    7  C   UNL     3     -11.867  12.222  63.662  1.00  0.00    -0.522 C  
ENDROOT
BRANCH   3   8
HETATM    8  C   UNL     2      -9.738  17.659  66.269  1.00  0.00    -0.263 C  
HETATM    9  H   UNL     2     -11.501  17.958  67.082  1.00  0.00     0.000 HD 
HETATM   10  O   UNL     2     -10.622  18.294  67.219  1.00  0.00    -0.398 OA 
BRANCH   8  11
HETATM   11  C   UNL     2      -9.908  16.131  66.399  1.00  0.00    -0.284 C  
HETATM   12  C   UNL     2     -10.901  15.553  67.377  1.00  0.00    -0.312 C  
HETATM   13  O   UNL     2      -8.700  15.730  67.055  1.00  0.00    -0.192 OA 
HETATM   14  O   UNL     2      -8.092  16.275  69.217  1.00  0.00    -0.237 OA 
HETATM   15  H   UNL     2     -11.808  15.120  69.944  1.00  0.00     0.000 HD 
HETATM   16  O   UNL     2     -11.888  14.916  66.919  1.00  0.00    -0.315 OA 
HETATM   17  C   UNL     2      -8.920  16.019  68.372  1.00  0.00    -0.188 C  
HETATM   18  C   UNL     2     -10.360  15.724  68.607  1.00  0.00    -0.225 C  
HETATM   19  O   UNL     2     -10.889  15.309  69.794  1.00  0.00    -0.256 OA 
ENDBRANCH   8  11
ENDBRANCH   3   8
BRANCH   7  20
HETATM   20  C   UNL     3     -11.562  11.557  65.009  1.00  0.00     0.038 C  
HETATM   21  O   UNL     3     -12.185  12.284  66.066  1.00  0.00    -0.646 OA 
HETATM   22  H   UNL     3     -11.996  11.872  66.901  1.00  0.00     0.000 HD 
BRANCH  20  23
HETATM   23  C   UNL     3     -10.130  11.076  65.373  1.00  0.00    -0.269 C  
HETATM   24  O   UNL     3      -7.978  12.626  67.603  1.00  0.00    -0.144 OA 
HETATM   25  C   UNL     3      -9.122  10.537  67.375  1.00  0.00    -0.139 C  
HETATM   26  C   UNL     3      -9.799   9.999  66.352  1.00  0.00    -0.224 C  
HETATM   27  O   UNL     3      -8.586   9.863  68.448  1.00  0.00    -0.113 OA 
HETATM   28  O   UNL     3      -9.269  12.164  65.750  1.00  0.00    -0.151 OA 
HETATM   29  C   UNL     3      -8.764  11.908  67.006  1.00  0.00    -0.181 C  
HETATM   30  O   UNL     3     -10.085   8.839  65.975  1.00  0.00    -0.228 OA 
HETATM   31  H   UNL     3      -8.818   8.972  68.687  1.00  0.00     0.000 HD 
ENDBRANCH  20  23
ENDBRANCH   7  20
TORSDOF 4
ENDMDL
MODEL      286
REMARK 921   NORMALIZED FREE ENERGY PREDICTED BY IDOCK:   -3.89 KCAL/MOL
REMARK 922        TOTAL FREE ENERGY PREDICTED BY IDOCK:   -6.72 KCAL/MOL
REMARK 923 INTER-LIGAND FREE ENERGY PREDICTED BY IDOCK:   -5.11 KCAL/MOL
REMARK 924 INTRA-LIGAND FREE ENERGY PREDICTED BY IDOCK:   -1.61 KCAL/MOL
REMARK 927      BINDING AFFINITY PREDICTED BY RF-SCORE:    0.00 PKD
ROOT
HETATM    1 CA   UNL     1     -12.566   6.620  69.245  1.00  0.00    -0.606 Ca 
HETATM    2  O   UNL     2      -7.920   9.173  64.678  1.00  0.00    -0.112 OA 
HETATM    3  C   UNL     2      -9.086   8.873  65.454  1.00  0.00    -0.163 C  
HETATM    4  H   UNL     2      -8.154   9.867  64.072  1.00  0.00     0.000 HD 
HETATM    5  O   UNL     3      -8.782   8.835  72.481  1.00  0.00    -0.406 OA 
HETATM    6  H   UNL     3      -7.857   9.026  72.578  1.00  0.00     0.000 HD 
HETATM    7  C   UNL     3      -8.947   7.423  72.798  1.00  0.00    -0.140 C  
ENDROOT
BRANCH   3   8
HETATM    8  C   UNL     2      -8.713   7.770  66.417  1.00  0.00    -0.150 C  
HETATM    9  H   UNL     2      -8.707   5.806  66.372  1.00  0.00     0.000 HD 
HETATM   10  O   UNL     2      -8.941   6.500  65.766  1.00  0.00    -0.134 OA 
BRANCH   8  11
HETATM   11  C   UNL     2      -9.467   7.762  67.763  1.00  0.00    -0.143 C  
HETATM   12  C   UNL     2      -9.620   9.034  68.560  1.00  0.00    -0.153 C  
HETATM   13  O   UNL     2      -8.562   7.071  68.631  1.00  0.00    -0.121 OA 
HETATM   14  O   UNL     2      -6.490   7.835  69.309  1.00  0.00    -0.035 OA 
HETATM   15  H   UNL     2      -8.570  11.128  70.014  1.00  0.00     0.000 HD 
HETATM   16  O   UNL     2     -10.779   9.504  68.719  1.00  0.00    -0.222 OA 
HETATM   17  C   UNL     2      -7.641   8.016  68.980  1.00  0.00    -0.098 C  
HETATM   18  C   UNL     2      -8.404   9.288  69.099  1.00  0.00    -0.127 C  
HETATM   19  O   UNL     2      -8.083  10.316  69.938  1.00  0.00    -0.157 OA 
ENDBRANCH   8  11
ENDBRANCH   3   8
BRANCH   7  20
HETATM   20  C   UNL     3     -10.440   7.113  72.640  1.00  0.00    -0.237 C  
HETATM   21  O   UNL     3     -11.158   7.571  73.785  1.00  0.00    -0.522 OA 
HETATM   22  H   UNL     3     -12.083   7.379  73.687  1.00  0.00     0.000 HD 
BRANCH  20  23
HETATM   23  C   UNL     3     -10.936   5.731  72.133  1.00  0.00    -0.257 C  
HETATM   24  O   UNL     3      -9.720   4.032  69.370  1.00  0.00    -0.193 OA 
HETATM   25  C   UNL     3      -9.861   3.731  71.740  1.00  0.00    -0.174 C  
HETATM   26  C   UNL     3     -10.526   4.406  72.685  1.00  0.00    -0.182 C  
HETATM   27  O   UNL     3      -9.373   2.447  71.838  1.00  0.00    -0.086 OA 
HETATM   28  O   UNL     3     -10.772   5.581  70.713  1.00  0.00    -0.261 OA 
HETATM   29  C   UNL     3     -10.016   4.454  70.476  1.00  0.00    -0.185 C  
HETATM   30  O   UNL     3     -10.983   4.145  73.822  1.00  0.00    -0.242 OA 
HETATM   31  H   UNL     3      -9.273   1.978  72.658  1.00  0.00     0.000 HD 
ENDBRANCH  20  23
ENDBRANCH   7  20
TORSDOF 4
ENDMDL
MODEL      287
REMARK 921   NORMALIZED FREE ENERGY PREDICTED BY IDOCK:   -3.88 KCAL/MOL
REMARK 922        TOTAL FREE ENERGY PREDICTED BY IDOCK:   -6.71 KCAL/MOL
REMARK 923 INTER-LIGAND FREE ENERGY PREDICTED BY IDOCK:   -6.19 KCAL/MOL
REMARK 924 INTRA-LIGAND FREE ENERGY PREDICTED BY IDOCK:   -0.52 KCAL/MOL
REMARK 927      BINDING AFFINITY PREDICTED BY RF-SCORE:    0.00 PKD
ROOT
HETATM    1 CA   UNL     1      -6.943  17.854  64.975  1.00  0.00    -0.234 Ca 
HETATM    2  O   UNL     2      -8.707  12.175  68.665  1.00  0.00    -0.326 OA 
HETATM    3  C   UNL     2      -8.024  13.244  68.001  1.00  0.00    -0.152 C  
HETATM    4  H   UNL     2      -8.052  11.658  69.118  1.00  0.00     0.000 HD 
HETATM    5  O   UNL     3     -10.054  19.912  68.947  1.00  0.00    -0.435 OA 
HETATM    6  H   UNL     3     -10.794  19.749  69.519  1.00  0.00     0.000 HD 
HETATM    7  C   UNL     3     -10.607  20.263  67.646  1.00  0.00    -0.082 C  
ENDROOT
BRANCH   3   8
HETATM    8  C   UNL     2      -9.067  14.067  67.281  1.00  0.00    -0.220 C  
HETATM    9  H   UNL     2      -9.095  15.235  65.702  1.00  0.00     0.000 HD 
HETATM   10  O   UNL     2      -8.439  14.717  66.154  1.00  0.00     0.185 OA 
BRANCH   8  11
HETATM   11  C   UNL     2      -9.779  15.147  68.124  1.00  0.00    -0.217 C  
HETATM   12  C   UNL     2     -10.581  14.760  69.341  1.00  0.00    -0.218 C  
HETATM   13  O   UNL     2     -10.858  15.554  67.274  1.00  0.00    -0.309 OA 
HETATM   14  O   UNL     2     -12.658  14.244  66.654  1.00  0.00    -0.318 OA 
HETATM   15  H   UNL     2     -12.713  13.486  70.538  1.00  0.00     0.000 HD 
HETATM   16  O   UNL     2     -10.177  15.148  70.471  1.00  0.00    -0.075 OA 
HETATM   17  C   UNL     2     -11.804  14.584  67.442  1.00  0.00    -0.388 C  
HETATM   18  C   UNL     2     -11.720  14.193  68.876  1.00  0.00    -0.334 C  
HETATM   19  O   UNL     2     -12.766  13.735  69.624  1.00  0.00    -0.116 OA 
ENDBRANCH   8  11
ENDBRANCH   3   8
BRANCH   7  20
HETATM   20  C   UNL     3      -9.412  20.526  66.723  1.00  0.00    -0.280 C  
HETATM   21  O   UNL     3      -9.822  20.453  65.358  1.00  0.00    -0.470 OA 
HETATM   22  H   UNL     3      -9.081  20.616  64.786  1.00  0.00     0.000 HD 
BRANCH  20  23
HETATM   23  C   UNL     3      -8.029  19.861  66.971  1.00  0.00    -0.301 C  
HETATM   24  O   UNL     3      -5.953  20.453  69.680  1.00  0.00    -0.333 OA 
HETATM   25  C   UNL     3      -7.175  18.632  68.723  1.00  0.00    -0.305 C  
HETATM   26  C   UNL     3      -7.811  18.503  67.552  1.00  0.00    -0.232 C  
HETATM   27  O   UNL     3      -6.740  17.610  69.537  1.00  0.00    -0.216 OA 
HETATM   28  O   UNL     3      -7.145  20.708  67.724  1.00  0.00    -0.302 OA 
HETATM   29  C   UNL     3      -6.733  20.022  68.845  1.00  0.00    -0.297 C  
HETATM   30  O   UNL     3      -8.126  17.552  66.801  1.00  0.00    -0.217 OA 
HETATM   31  H   UNL     3      -7.028  16.708  69.457  1.00  0.00     0.000 HD 
ENDBRANCH  20  23
ENDBRANCH   7  20
TORSDOF 4
ENDMDL
MODEL      288
REMARK 921   NORMALIZED FREE ENERGY PREDICTED BY IDOCK:   -3.87 KCAL/MOL
REMARK 922        TOTAL FREE ENERGY PREDICTED BY IDOCK:   -6.70 KCAL/MOL
REMARK 923 INTER-LIGAND FREE ENERGY PREDICTED BY IDOCK:   -5.35 KCAL/MOL
REMARK 924 INTRA-LIGAND FREE ENERGY PREDICTED BY IDOCK:   -1.35 KCAL/MOL
REMARK 927      BINDING AFFINITY PREDICTED BY RF-SCORE:    0.00 PKD
ROOT
HETATM    1 CA   UNL     1     -12.614   6.946  69.896  1.00  0.00    -0.576 Ca 
HETATM    2  O   UNL     2      -7.836   6.264  64.830  1.00  0.00    -0.098 OA 
HETATM    3  C   UNL     2      -9.008   6.211  65.651  1.00  0.00    -0.041 C  
HETATM    4  H   UNL     2      -8.036   5.805  64.022  1.00  0.00     0.000 HD 
HETATM    5  O   UNL     3     -11.726  12.101  68.371  1.00  0.00    -0.300 OA 
HETATM    6  H   UNL     3     -11.081  12.714  68.039  1.00  0.00     0.000 HD 
HETATM    7  C   UNL     3     -11.457  11.947  69.793  1.00  0.00    -0.229 C  
ENDROOT
BRANCH   3   8
HETATM    8  C   UNL     2      -8.690   6.940  66.936  1.00  0.00    -0.118 C  
HETATM    9  H   UNL     2      -9.128   6.701  68.836  1.00  0.00     0.000 HD 
HETATM   10  O   UNL     2      -9.328   6.242  68.028  1.00  0.00    -0.117 OA 
BRANCH   8  11
HETATM   11  C   UNL     2      -9.116   8.422  66.998  1.00  0.00    -0.144 C  
HETATM   12  C   UNL     2      -8.874   9.337  65.823  1.00  0.00    -0.177 C  
HETATM   13  O   UNL     2      -8.170   8.989  67.911  1.00  0.00    -0.109 OA 
HETATM   14  O   UNL     2      -5.901   9.215  67.538  1.00  0.00    -0.045 OA 
HETATM   15  H   UNL     2      -7.193  10.670  64.091  1.00  0.00     0.000 HD 
HETATM   16  O   UNL     2      -9.874   9.806  65.215  1.00  0.00    -0.313 OA 
HETATM   17  C   UNL     2      -7.049   9.186  67.156  1.00  0.00    -0.082 C  
HETATM   18  C   UNL     2      -7.544   9.590  65.812  1.00  0.00    -0.100 C  
HETATM   19  O   UNL     2      -6.878  10.411  64.949  1.00  0.00    -0.114 OA 
ENDBRANCH   8  11
ENDBRANCH   3   8
BRANCH   7  20
HETATM   20  C   UNL     3     -12.498  10.957  70.329  1.00  0.00    -0.303 C  
HETATM   21  O   UNL     3     -13.279  11.573  71.351  1.00  0.00    -0.314 OA 
HETATM   22  H   UNL     3     -13.924  10.959  71.683  1.00  0.00     0.000 HD 
BRANCH  20  23
HETATM   23  C   UNL     3     -12.126   9.485  70.660  1.00  0.00    -0.162 C  
HETATM   24  O   UNL     3      -8.914   8.209  70.891  1.00  0.00    -0.138 OA 
HETATM   25  C   UNL     3     -10.819   8.533  72.302  1.00  0.00    -0.348 C  
HETATM   26  C   UNL     3     -12.080   8.889  72.028  1.00  0.00    -0.371 C  
HETATM   27  O   UNL     3     -10.376   7.893  73.437  1.00  0.00    -0.311 OA 
HETATM   28  O   UNL     3     -10.877   9.092  70.067  1.00  0.00    -0.228 OA 
HETATM   29  C   UNL     3     -10.041   8.642  71.066  1.00  0.00    -0.215 C  
HETATM   30  O   UNL     3     -13.198   8.720  72.566  1.00  0.00    -0.400 OA 
HETATM   31  H   UNL     3     -10.881   7.821  74.239  1.00  0.00     0.000 HD 
ENDBRANCH  20  23
ENDBRANCH   7  20
TORSDOF 4
ENDMDL
MODEL      289
REMARK 921   NORMALIZED FREE ENERGY PREDICTED BY IDOCK:   -3.87 KCAL/MOL
REMARK 922        TOTAL FREE ENERGY PREDICTED BY IDOCK:   -6.70 KCAL/MOL
REMARK 923 INTER-LIGAND FREE ENERGY PREDICTED BY IDOCK:   -6.04 KCAL/MOL
REMARK 924 INTRA-LIGAND FREE ENERGY PREDICTED BY IDOCK:   -0.66 KCAL/MOL
REMARK 927      BINDING AFFINITY PREDICTED BY RF-SCORE:    0.00 PKD
ROOT
HETATM    1 CA   UNL     1     -11.630   8.930  68.905  1.00  0.00    -0.438 Ca 
HETATM    2  O   UNL     2      -9.223  15.413  67.830  1.00  0.00    -0.179 OA 
HETATM    3  C   UNL     2      -9.989  14.255  68.183  1.00  0.00    -0.230 C  
HETATM    4  H   UNL     2      -9.713  16.175  68.117  1.00  0.00     0.000 HD 
HETATM    5  O   UNL     3      -7.066   9.033  71.878  1.00  0.00    -0.291 OA 
HETATM    6  H   UNL     3      -6.187   9.387  71.943  1.00  0.00     0.000 HD 
HETATM    7  C   UNL     3      -7.004   7.951  70.905  1.00  0.00    -0.048 C  
ENDROOT
BRANCH   3   8
HETATM    8  C   UNL     2      -9.209  13.044  67.728  1.00  0.00    -0.200 C  
HETATM    9  H   UNL     2      -7.311  12.549  67.626  1.00  0.00     0.000 HD 
HETATM   10  O   UNL     2      -7.801  13.310  67.913  1.00  0.00    -0.123 OA 
BRANCH   8  11
HETATM   11  C   UNL     2      -9.427  12.608  66.263  1.00  0.00    -0.207 C  
HETATM   12  C   UNL     2     -10.576  13.169  65.462  1.00  0.00    -0.288 C  
HETATM   13  O   UNL     2      -9.895  11.261  66.398  1.00  0.00    -0.201 OA 
HETATM   14  O   UNL     2     -11.906  10.616  67.336  1.00  0.00    -0.274 OA 
HETATM   15  H   UNL     2     -13.272  13.490  64.983  1.00  0.00     0.000 HD 
HETATM   16  O   UNL     2     -10.311  13.896  64.467  1.00  0.00    -0.436 OA 
HETATM   17  C   UNL     2     -11.217  11.393  66.714  1.00  0.00    -0.252 C  
HETATM   18  C   UNL     2     -11.694  12.571  65.938  1.00  0.00    -0.426 C  
HETATM   19  O   UNL     2     -12.967  12.739  65.477  1.00  0.00    -0.448 OA 
ENDBRANCH   8  11
ENDBRANCH   3   8
BRANCH   7  20
HETATM   20  C   UNL     3      -8.422   7.379  70.801  1.00  0.00    -0.131 C  
HETATM   21  O   UNL     3      -9.130   8.015  69.738  1.00  0.00    -0.148 OA 
HETATM   22  H   UNL     3     -10.009   7.661  69.673  1.00  0.00     0.000 HD 
BRANCH  20  23
HETATM   23  C   UNL     3      -9.304   7.155  72.060  1.00  0.00    -0.137 C  
HETATM   24  O   UNL     3     -12.733   6.661  72.071  1.00  0.00    -0.301 OA 
HETATM   25  C   UNL     3     -10.749   5.470  72.680  1.00  0.00    -0.243 C  
HETATM   26  C   UNL     3      -9.473   5.860  72.783  1.00  0.00    -0.148 C  
HETATM   27  O   UNL     3     -11.317   4.359  73.261  1.00  0.00    -0.279 OA 
HETATM   28  O   UNL     3     -10.650   7.626  71.874  1.00  0.00    -0.210 OA 
HETATM   29  C   UNL     3     -11.516   6.583  72.117  1.00  0.00    -0.292 C  
HETATM   30  O   UNL     3      -8.468   5.483  73.428  1.00  0.00    -0.116 OA 
HETATM   31  H   UNL     3     -10.819   3.637  73.627  1.00  0.00     0.000 HD 
ENDBRANCH  20  23
ENDBRANCH   7  20
TORSDOF 4
ENDMDL
MODEL      290
REMARK 921   NORMALIZED FREE ENERGY PREDICTED BY IDOCK:   -3.87 KCAL/MOL
REMARK 922        TOTAL FREE ENERGY PREDICTED BY IDOCK:   -6.70 KCAL/MOL
REMARK 923 INTER-LIGAND FREE ENERGY PREDICTED BY IDOCK:   -5.92 KCAL/MOL
REMARK 924 INTRA-LIGAND FREE ENERGY PREDICTED BY IDOCK:   -0.78 KCAL/MOL
REMARK 927      BINDING AFFINITY PREDICTED BY RF-SCORE:    0.00 PKD
ROOT
HETATM    1 CA   UNL     1     -13.159   6.701  69.750  1.00  0.00    -0.575 Ca 
HETATM    2  O   UNL     2      -8.432   9.418  65.364  1.00  0.00    -0.133 OA 
HETATM    3  C   UNL     2      -9.609   9.095  66.112  1.00  0.00    -0.266 C  
HETATM    4  H   UNL     2      -8.650  10.144  64.792  1.00  0.00     0.000 HD 
HETATM    5  O   UNL     3      -9.381   8.698  73.131  1.00  0.00    -0.187 OA 
HETATM    6  H   UNL     3      -8.454   8.872  73.247  1.00  0.00     0.000 HD 
HETATM    7  C   UNL     3      -9.567   7.275  73.374  1.00  0.00    -0.226 C  
ENDROOT
BRANCH   3   8
HETATM    8  C   UNL     2      -9.262   7.940  67.022  1.00  0.00    -0.148 C  
HETATM    9  H   UNL     2      -8.654   7.745  68.879  1.00  0.00     0.000 HD 
HETATM   10  O   UNL     2      -8.873   8.472  68.307  1.00  0.00    -0.141 OA 
BRANCH   8  11
HETATM   11  C   UNL     2      -8.139   7.003  66.529  1.00  0.00    -0.111 C  
HETATM   12  C   UNL     2      -8.334   6.159  65.294  1.00  0.00    -0.144 C  
HETATM   13  O   UNL     2      -8.143   5.957  67.507  1.00  0.00    -0.102 OA 
HETATM   14  O   UNL     2      -9.847   4.434  67.849  1.00  0.00    -0.147 OA 
HETATM   15  H   UNL     2      -9.602   4.139  63.910  1.00  0.00     0.000 HD 
HETATM   16  O   UNL     2      -7.612   6.397  64.287  1.00  0.00    -0.084 OA 
HETATM   17  C   UNL     2      -9.183   5.153  67.137  1.00  0.00    -0.117 C  
HETATM   18  C   UNL     2      -9.181   5.164  65.648  1.00  0.00    -0.151 C  
HETATM   19  O   UNL     2      -9.603   4.133  64.859  1.00  0.00    -0.159 OA 
ENDBRANCH   8  11
ENDBRANCH   3   8
BRANCH   7  20
HETATM   20  C   UNL     3     -11.062   6.994  73.187  1.00  0.00    -0.224 C  
HETATM   21  O   UNL     3     -11.315   5.594  73.291  1.00  0.00    -0.459 OA 
HETATM   22  H   UNL     3     -12.241   5.420  73.175  1.00  0.00     0.000 HD 
BRANCH  20  23
HETATM   23  C   UNL     3     -11.881   7.669  72.052  1.00  0.00    -0.301 C  
HETATM   24  O   UNL     3     -12.841  10.996  71.950  1.00  0.00    -0.416 OA 
HETATM   25  C   UNL     3     -11.473   9.486  70.695  1.00  0.00    -0.297 C  
HETATM   26  C   UNL     3     -11.328   8.157  70.754  1.00  0.00    -0.270 C  
HETATM   27  O   UNL     3     -11.144  10.301  69.635  1.00  0.00    -0.240 OA 
HETATM   28  O   UNL     3     -12.668   8.772  72.531  1.00  0.00    -0.396 OA 
HETATM   29  C   UNL     3     -12.332   9.896  71.808  1.00  0.00    -0.368 C  
HETATM   30  O   UNL     3     -10.981   7.255  69.958  1.00  0.00    -0.253 OA 
HETATM   31  H   UNL     3     -10.586  10.034  68.913  1.00  0.00     0.000 HD 
ENDBRANCH  20  23
ENDBRANCH   7  20
TORSDOF 4
ENDMDL
MODEL      291
REMARK 921   NORMALIZED FREE ENERGY PREDICTED BY IDOCK:   -3.86 KCAL/MOL
REMARK 922        TOTAL FREE ENERGY PREDICTED BY IDOCK:   -6.69 KCAL/MOL
REMARK 923 INTER-LIGAND FREE ENERGY PREDICTED BY IDOCK:   -5.85 KCAL/MOL
REMARK 924 INTRA-LIGAND FREE ENERGY PREDICTED BY IDOCK:   -0.84 KCAL/MOL
REMARK 927      BINDING AFFINITY PREDICTED BY RF-SCORE:    0.00 PKD
ROOT
HETATM    1 CA   UNL     1     -12.449   6.168  67.666  1.00  0.00    -0.101 Ca 
HETATM    2  O   UNL     2     -13.079  11.653  71.966  1.00  0.00    -0.478 OA 
HETATM    3  C   UNL     2     -13.256  10.441  71.224  1.00  0.00    -0.339 C  
HETATM    4  H   UNL     2     -13.815  11.731  72.562  1.00  0.00     0.000 HD 
HETATM    5  O   UNL     3      -8.100   5.667  70.909  1.00  0.00    -0.113 OA 
HETATM    6  H   UNL     3      -7.447   6.137  71.414  1.00  0.00     0.000 HD 
HETATM    7  C   UNL     3      -7.679   5.746  69.517  1.00  0.00    -0.092 C  
ENDROOT
BRANCH   3   8
HETATM    8  C   UNL     2     -12.085  10.317  70.277  1.00  0.00    -0.249 C  
HETATM    9  H   UNL     2     -10.395   9.317  70.252  1.00  0.00     0.000 HD 
HETATM   10  O   UNL     2     -11.131   9.394  70.847  1.00  0.00    -0.265 OA 
BRANCH   8  11
HETATM   11  C   UNL     2     -11.344  11.629  69.941  1.00  0.00    -0.150 C  
HETATM   12  C   UNL     2     -12.005  12.684  69.091  1.00  0.00    -0.243 C  
HETATM   13  O   UNL     2     -10.342  11.199  69.012  1.00  0.00    -0.210 OA 
HETATM   14  O   UNL     2     -10.732  10.376  66.889  1.00  0.00    -0.252 OA 
HETATM   15  H   UNL     2     -13.079  13.558  66.706  1.00  0.00     0.000 HD 
HETATM   16  O   UNL     2     -12.272  13.797  69.620  1.00  0.00    -0.332 OA 
HETATM   17  C   UNL     2     -11.006  11.094  67.824  1.00  0.00    -0.262 C  
HETATM   18  C   UNL     2     -11.995  12.207  67.823  1.00  0.00    -0.128 C  
HETATM   19  O   UNL     2     -12.448  12.848  66.707  1.00  0.00    -0.336 OA 
ENDBRANCH   8  11
ENDBRANCH   3   8
BRANCH   7  20
HETATM   20  C   UNL     3      -8.732   4.987  68.701  1.00  0.00    -0.093 C  
HETATM   21  O   UNL     3      -8.761   3.616  69.094  1.00  0.00    -0.079 OA 
HETATM   22  H   UNL     3      -9.413   3.145  68.588  1.00  0.00     0.000 HD 
BRANCH  20  23
HETATM   23  C   UNL     3      -8.861   5.174  67.164  1.00  0.00    -0.109 C  
HETATM   24  O   UNL     3      -9.317   2.641  64.845  1.00  0.00    -0.146 OA 
HETATM   25  C   UNL     3     -10.485   4.570  65.644  1.00  0.00    -0.229 C  
HETATM   26  C   UNL     3     -10.103   5.577  66.440  1.00  0.00    -0.182 C  
HETATM   27  O   UNL     3     -11.548   4.575  64.770  1.00  0.00    -0.988 OA 
HETATM   28  O   UNL     3      -8.389   4.029  66.434  1.00  0.00    -0.104 OA 
HETATM   29  C   UNL     3      -9.404   3.583  65.616  1.00  0.00    -0.158 C  
HETATM   30  O   UNL     3     -10.446   6.770  66.607  1.00  0.00    -0.214 OA 
HETATM   31  H   UNL     3     -12.249   5.216  64.788  1.00  0.00     0.000 HD 
ENDBRANCH  20  23
ENDBRANCH   7  20
TORSDOF 4
ENDMDL
MODEL      292
REMARK 921   NORMALIZED FREE ENERGY PREDICTED BY IDOCK:   -3.86 KCAL/MOL
REMARK 922        TOTAL FREE ENERGY PREDICTED BY IDOCK:   -6.68 KCAL/MOL
REMARK 923 INTER-LIGAND FREE ENERGY PREDICTED BY IDOCK:   -6.36 KCAL/MOL
REMARK 924 INTRA-LIGAND FREE ENERGY PREDICTED BY IDOCK:   -0.33 KCAL/MOL
REMARK 927      BINDING AFFINITY PREDICTED BY RF-SCORE:    0.00 PKD
ROOT
HETATM    1 CA   UNL     1      -6.837  12.985  66.344  1.00  0.00    -0.327 Ca 
HETATM    2  O   UNL     2     -10.465  18.326  69.041  1.00  0.00    -0.440 OA 
HETATM    3  C   UNL     2      -9.509  17.486  68.384  1.00  0.00    -0.292 C  
HETATM    4  H   UNL     2     -10.187  19.226  68.913  1.00  0.00     0.000 HD 
HETATM    5  O   UNL     3     -11.612  12.636  63.744  1.00  0.00    -0.400 OA 
HETATM    6  H   UNL     3     -12.549  12.777  63.815  1.00  0.00     0.000 HD 
HETATM    7  C   UNL     3     -11.330  11.388  64.439  1.00  0.00    -0.141 C  
ENDROOT
BRANCH   3   8
HETATM    8  C   UNL     2      -9.952  16.056  68.588  1.00  0.00    -0.220 C  
HETATM    9  H   UNL     2      -9.707  14.358  67.631  1.00  0.00     0.000 HD 
HETATM   10  O   UNL     2      -9.428  15.257  67.503  1.00  0.00    -0.200 OA 
BRANCH   8  11
HETATM   11  C   UNL     2     -11.475  15.822  68.666  1.00  0.00    -0.386 C  
HETATM   12  C   UNL     2     -12.094  15.226  69.905  1.00  0.00    -0.343 C  
HETATM   13  O   UNL     2     -11.675  14.720  67.773  1.00  0.00    -0.346 OA 
HETATM   14  O   UNL     2     -10.898  12.567  68.090  1.00  0.00    -0.206 OA 
HETATM   15  H   UNL     2     -12.439  13.151  71.688  1.00  0.00     0.000 HD 
HETATM   16  O   UNL     2     -12.880  15.941  70.584  1.00  0.00    -0.442 OA 
HETATM   17  C   UNL     2     -11.316  13.624  68.505  1.00  0.00    -0.290 C  
HETATM   18  C   UNL     2     -11.766  13.912  69.895  1.00  0.00    -0.291 C  
HETATM   19  O   UNL     2     -12.152  12.968  70.802  1.00  0.00    -0.332 OA 
ENDBRANCH   8  11
ENDBRANCH   3   8
BRANCH   7  20
HETATM   20  C   UNL     3      -9.818  11.160  64.326  1.00  0.00    -0.286 C  
HETATM   21  O   UNL     3      -9.460  10.918  62.966  1.00  0.00    -0.280 OA 
HETATM   22  H   UNL     3      -8.523  10.777  62.896  1.00  0.00     0.000 HD 
BRANCH  20  23
HETATM   23  C   UNL     3      -9.056  10.241  65.320  1.00  0.00    -0.191 C  
HETATM   24  O   UNL     3      -7.247  11.300  68.078  1.00  0.00    -0.075 OA 
HETATM   25  C   UNL     3      -9.177   9.967  67.605  1.00  0.00    -0.137 C  
HETATM   26  C   UNL     3      -9.672   9.492  66.456  1.00  0.00    -0.222 C  
HETATM   27  O   UNL     3      -9.449   9.498  68.871  1.00  0.00    -0.150 OA 
HETATM   28  O   UNL     3      -7.923  10.899  65.912  1.00  0.00    -0.157 OA 
HETATM   29  C   UNL     3      -8.057  10.853  67.283  1.00  0.00    -0.123 C  
HETATM   30  O   UNL     3     -10.388   8.522  66.119  1.00  0.00    -0.078 OA 
HETATM   31  H   UNL     3     -10.176   8.923  69.080  1.00  0.00     0.000 HD 
ENDBRANCH  20  23
ENDBRANCH   7  20
TORSDOF 4
ENDMDL
MODEL      293
REMARK 921   NORMALIZED FREE ENERGY PREDICTED BY IDOCK:   -3.86 KCAL/MOL
REMARK 922        TOTAL FREE ENERGY PREDICTED BY IDOCK:   -6.68 KCAL/MOL
REMARK 923 INTER-LIGAND FREE ENERGY PREDICTED BY IDOCK:   -6.53 KCAL/MOL
REMARK 924 INTRA-LIGAND FREE ENERGY PREDICTED BY IDOCK:   -0.15 KCAL/MOL
REMARK 927      BINDING AFFINITY PREDICTED BY RF-SCORE:    0.00 PKD
ROOT
HETATM    1 CA   UNL     1      -8.829  11.189  65.225  1.00  0.00    -0.174 Ca 
HETATM    2  O   UNL     2      -6.527   6.426  69.805  1.00  0.00    -0.043 OA 
HETATM    3  C   UNL     2      -6.659   7.467  68.831  1.00  0.00    -0.048 C  
HETATM    4  H   UNL     2      -5.602   6.341  70.005  1.00  0.00     0.000 HD 
HETATM    5  O   UNL     3     -11.107  12.810  69.901  1.00  0.00    -0.473 OA 
HETATM    6  H   UNL     3     -11.467  12.523  70.732  1.00  0.00     0.000 HD 
HETATM    7  C   UNL     3     -12.137  12.570  68.901  1.00  0.00    -0.122 C  
ENDROOT
BRANCH   3   8
HETATM    8  C   UNL     2      -8.130   7.602  68.513  1.00  0.00    -0.124 C  
HETATM    9  H   UNL     2      -9.443   9.063  68.523  1.00  0.00     0.000 HD 
HETATM   10  O   UNL     2      -8.518   8.978  68.722  1.00  0.00    -0.127 OA 
BRANCH   8  11
HETATM   11  C   UNL     2      -9.085   6.703  69.327  1.00  0.00    -0.138 C  
HETATM   12  C   UNL     2      -8.913   5.205  69.322  1.00  0.00    -0.100 C  
HETATM   13  O   UNL     2     -10.307   6.784  68.586  1.00  0.00    -0.166 OA 
HETATM   14  O   UNL     2     -10.654   5.953  66.458  1.00  0.00    -0.243 OA 
HETATM   15  H   UNL     2      -8.919   2.766  68.037  1.00  0.00     0.000 HD 
HETATM   16  O   UNL     2      -8.593   4.637  70.402  1.00  0.00    -0.083 OA 
HETATM   17  C   UNL     2     -10.130   5.914  67.548  1.00  0.00    -0.165 C  
HETATM   18  C   UNL     2      -9.345   4.781  68.111  1.00  0.00    -0.134 C  
HETATM   19  O   UNL     2      -9.419   3.489  67.678  1.00  0.00    -0.197 OA 
ENDBRANCH   8  11
ENDBRANCH   3   8
BRANCH   7  20
HETATM   20  C   UNL     3     -11.556  13.033  67.560  1.00  0.00    -0.356 C  
HETATM   21  O   UNL     3     -10.161  12.739  67.502  1.00  0.00    -0.213 OA 
HETATM   22  H   UNL     3      -9.801  13.026  66.671  1.00  0.00     0.000 HD 
BRANCH  20  23
HETATM   23  C   UNL     3     -11.901  14.424  66.960  1.00  0.00    -0.412 C  
HETATM   24  O   UNL     3      -9.612  16.818  65.944  1.00  0.00    -0.458 OA 
HETATM   25  C   UNL     3     -11.332  15.461  64.981  1.00  0.00    -0.333 C  
HETATM   26  C   UNL     3     -12.274  14.689  65.538  1.00  0.00    -0.199 C  
HETATM   27  O   UNL     3     -11.342  15.974  63.704  1.00  0.00    -0.948 OA 
HETATM   28  O   UNL     3     -10.890  15.406  67.242  1.00  0.00    -0.306 OA 
HETATM   29  C   UNL     3     -10.451  15.938  66.049  1.00  0.00    -0.345 C  
HETATM   30  O   UNL     3     -13.406  14.271  65.204  1.00  0.00    -0.626 OA 
HETATM   31  H   UNL     3     -11.915  15.664  63.011  1.00  0.00     0.000 HD 
ENDBRANCH  20  23
ENDBRANCH   7  20
TORSDOF 4
ENDMDL
MODEL      294
REMARK 921   NORMALIZED FREE ENERGY PREDICTED BY IDOCK:   -3.85 KCAL/MOL
REMARK 922        TOTAL FREE ENERGY PREDICTED BY IDOCK:   -6.67 KCAL/MOL
REMARK 923 INTER-LIGAND FREE ENERGY PREDICTED BY IDOCK:   -5.44 KCAL/MOL
REMARK 924 INTRA-LIGAND FREE ENERGY PREDICTED BY IDOCK:   -1.23 KCAL/MOL
REMARK 927      BINDING AFFINITY PREDICTED BY RF-SCORE:    0.00 PKD
ROOT
HETATM    1 CA   UNL     1      -7.595   6.704  67.891  1.00  0.00    -0.084 Ca 
HETATM    2  O   UNL     2      -8.933   2.845  73.573  1.00  0.00    -0.081 OA 
HETATM    3  C   UNL     2      -8.329   3.593  72.512  1.00  0.00    -0.085 C  
HETATM    4  H   UNL     2      -8.235   2.563  74.154  1.00  0.00     0.000 HD 
HETATM    5  O   UNL     3     -10.646  10.043  70.930  1.00  0.00    -0.355 OA 
HETATM    6  H   UNL     3     -11.355  10.092  71.560  1.00  0.00     0.000 HD 
HETATM    7  C   UNL     3     -11.266   9.847  69.627  1.00  0.00    -0.208 C  
ENDROOT
BRANCH   3   8
HETATM    8  C   UNL     2      -9.439   4.042  71.590  1.00  0.00    -0.149 C  
HETATM    9  H   UNL     2     -10.353   3.294  70.020  1.00  0.00     0.000 HD 
HETATM   10  O   UNL     2      -9.655   3.011  70.600  1.00  0.00    -0.165 OA 
BRANCH   8  11
HETATM   11  C   UNL     2      -9.209   5.378  70.852  1.00  0.00    -0.150 C  
HETATM   12  C   UNL     2      -8.731   6.594  71.604  1.00  0.00    -0.130 C  
HETATM   13  O   UNL     2     -10.541   5.814  70.559  1.00  0.00    -0.250 OA 
HETATM   14  O   UNL     2     -12.125   6.456  72.115  1.00  0.00    -0.326 OA 
HETATM   15  H   UNL     2      -9.076   8.564  73.502  1.00  0.00     0.000 HD 
HETATM   16  O   UNL     2      -7.591   7.057  71.330  1.00  0.00    -0.084 OA 
HETATM   17  C   UNL     2     -10.981   6.363  71.730  1.00  0.00    -0.255 C  
HETATM   18  C   UNL     2      -9.791   7.031  72.325  1.00  0.00    -0.153 C  
HETATM   19  O   UNL     2      -9.834   8.138  73.122  1.00  0.00    -0.279 OA 
ENDBRANCH   8  11
ENDBRANCH   3   8
BRANCH   7  20
HETATM   20  C   UNL     3     -10.123   9.768  68.609  1.00  0.00    -0.169 C  
HETATM   21  O   UNL     3      -8.881  10.071  69.243  1.00  0.00    -0.153 OA 
HETATM   22  H   UNL     3      -8.173  10.022  68.612  1.00  0.00     0.000 HD 
BRANCH  20  23
HETATM   23  C   UNL     3     -10.246  10.402  67.196  1.00  0.00    -0.222 C  
HETATM   24  O   UNL     3     -12.489  12.876  66.273  1.00  0.00    -0.453 OA 
HETATM   25  C   UNL     3     -10.121  12.575  66.439  1.00  0.00    -0.243 C  
HETATM   26  C   UNL     3      -9.374  11.485  66.651  1.00  0.00    -0.189 C  
HETATM   27  O   UNL     3      -9.699  13.763  65.886  1.00  0.00    -0.403 OA 
HETATM   28  O   UNL     3     -11.580  10.858  66.918  1.00  0.00    -0.327 OA 
HETATM   29  C   UNL     3     -11.527  12.196  66.590  1.00  0.00    -0.365 C  
HETATM   30  O   UNL     3      -8.202  11.132  66.383  1.00  0.00    -0.162 OA 
HETATM   31  H   UNL     3      -8.786  14.009  65.787  1.00  0.00     0.000 HD 
ENDBRANCH  20  23
ENDBRANCH   7  20
TORSDOF 4
ENDMDL
MODEL      295
REMARK 921   NORMALIZED FREE ENERGY PREDICTED BY IDOCK:   -3.84 KCAL/MOL
REMARK 922        TOTAL FREE ENERGY PREDICTED BY IDOCK:   -6.66 KCAL/MOL
REMARK 923 INTER-LIGAND FREE ENERGY PREDICTED BY IDOCK:   -5.84 KCAL/MOL
REMARK 924 INTRA-LIGAND FREE ENERGY PREDICTED BY IDOCK:   -0.82 KCAL/MOL
REMARK 927      BINDING AFFINITY PREDICTED BY RF-SCORE:    0.00 PKD
ROOT
HETATM    1 CA   UNL     1      -7.100  11.573  68.092  1.00  0.00    -0.064 Ca 
HETATM    2  O   UNL     2     -11.846  13.133  63.192  1.00  0.00    -0.800 OA 
HETATM    3  C   UNL     2     -10.652  12.935  63.957  1.00  0.00    -0.389 C  
HETATM    4  H   UNL     2     -11.586  13.472  62.343  1.00  0.00     0.000 HD 
HETATM    5  O   UNL     3      -9.352   6.732  67.007  1.00  0.00    -0.133 OA 
HETATM    6  H   UNL     3     -10.150   6.284  66.751  1.00  0.00     0.000 HD 
HETATM    7  C   UNL     3      -9.488   7.040  68.423  1.00  0.00    -0.133 C  
ENDROOT
BRANCH   3   8
HETATM    8  C   UNL     2     -11.066  12.396  65.307  1.00  0.00    -0.303 C  
HETATM    9  H   UNL     2     -12.761  11.879  66.155  1.00  0.00     0.000 HD 
HETATM   10  O   UNL     2     -12.500  12.218  65.307  1.00  0.00    -0.585 OA 
BRANCH   8  11
HETATM   11  C   UNL     2     -10.689  13.260  66.528  1.00  0.00    -0.285 C  
HETATM   12  C   UNL     2      -9.540  12.862  67.420  1.00  0.00    -0.203 C  
HETATM   13  O   UNL     2     -11.766  13.013  67.439  1.00  0.00    -0.339 OA 
HETATM   14  O   UNL     2     -12.226  10.998  68.472  1.00  0.00    -0.582 OA 
HETATM   15  H   UNL     2      -8.340  11.142  69.210  1.00  0.00     0.000 HD 
HETATM   16  O   UNL     2      -8.528  13.613  67.462  1.00  0.00    -0.165 OA 
HETATM   17  C   UNL     2     -11.458  11.810  68.006  1.00  0.00    -0.319 C  
HETATM   18  C   UNL     2      -9.976  11.805  68.146  1.00  0.00    -0.194 C  
HETATM   19  O   UNL     2      -9.285  11.145  69.120  1.00  0.00    -0.089 OA 
ENDBRANCH   8  11
ENDBRANCH   3   8
BRANCH   7  20
HETATM   20  C   UNL     3      -8.200   7.762  68.837  1.00  0.00    -0.127 C  
HETATM   21  O   UNL     3      -7.252   7.721  67.771  1.00  0.00    -0.088 OA 
HETATM   22  H   UNL     3      -6.454   8.169  68.027  1.00  0.00     0.000 HD 
BRANCH  20  23
HETATM   23  C   UNL     3      -7.549   7.533  70.229  1.00  0.00    -0.090 C  
HETATM   24  O   UNL     3      -8.706   8.798  73.239  1.00  0.00    -0.313 OA 
HETATM   25  C   UNL     3      -8.351   6.668  72.209  1.00  0.00    -0.107 C  
HETATM   26  C   UNL     3      -7.723   6.319  71.079  1.00  0.00    -0.105 C  
HETATM   27  O   UNL     3      -8.641   5.846  73.274  1.00  0.00    -0.119 OA 
HETATM   28  O   UNL     3      -7.793   8.626  71.130  1.00  0.00    -0.094 OA 
HETATM   29  C   UNL     3      -8.394   8.131  72.267  1.00  0.00    -0.158 C  
HETATM   30  O   UNL     3      -7.151   5.290  70.651  1.00  0.00    -0.056 OA 
HETATM   31  H   UNL     3      -8.613   4.897  73.236  1.00  0.00     0.000 HD 
ENDBRANCH  20  23
ENDBRANCH   7  20
TORSDOF 4
ENDMDL
MODEL      296
REMARK 921   NORMALIZED FREE ENERGY PREDICTED BY IDOCK:   -3.83 KCAL/MOL
REMARK 922        TOTAL FREE ENERGY PREDICTED BY IDOCK:   -6.65 KCAL/MOL
REMARK 923 INTER-LIGAND FREE ENERGY PREDICTED BY IDOCK:   -5.82 KCAL/MOL
REMARK 924 INTRA-LIGAND FREE ENERGY PREDICTED BY IDOCK:   -0.83 KCAL/MOL
REMARK 927      BINDING AFFINITY PREDICTED BY RF-SCORE:    0.00 PKD
ROOT
HETATM    1 CA   UNL     1     -10.248  13.691  64.148  1.00  0.00    -0.379 Ca 
HETATM    2  O   UNL     2      -6.608   7.980  62.387  1.00  0.00    -0.085 OA 
HETATM    3  C   UNL     2      -7.086   9.313  62.599  1.00  0.00    -0.100 C  
HETATM    4  H   UNL     2      -5.756   8.046  61.972  1.00  0.00     0.000 HD 
HETATM    5  O   UNL     3      -9.250  11.360  68.971  1.00  0.00    -0.383 OA 
HETATM    6  H   UNL     3      -9.130  10.535  69.427  1.00  0.00     0.000 HD 
HETATM    7  C   UNL     3     -10.685  11.522  68.782  1.00  0.00    -0.211 C  
ENDROOT
BRANCH   3   8
HETATM    8  C   UNL     2      -8.441   9.207  63.259  1.00  0.00    -0.195 C  
HETATM    9  H   UNL     2     -10.275   9.738  62.801  1.00  0.00     0.000 HD 
HETATM   10  O   UNL     2      -9.423   9.805  62.385  1.00  0.00    -0.259 OA 
BRANCH   8  11
HETATM   11  C   UNL     2      -8.570   9.864  64.650  1.00  0.00    -0.182 C  
HETATM   12  C   UNL     2      -7.412   9.843  65.616  1.00  0.00    -0.116 C  
HETATM   13  O   UNL     2      -9.447   8.969  65.345  1.00  0.00    -0.211 OA 
HETATM   14  O   UNL     2      -8.957   6.793  65.947  1.00  0.00    -0.147 OA 
HETATM   15  H   UNL     2      -5.631   8.506  67.242  1.00  0.00     0.000 HD 
HETATM   16  O   UNL     2      -6.874  10.940  65.927  1.00  0.00    -0.113 OA 
HETATM   17  C   UNL     2      -8.638   7.942  65.738  1.00  0.00    -0.147 C  
HETATM   18  C   UNL     2      -7.335   8.574  66.084  1.00  0.00    -0.081 C  
HETATM   19  O   UNL     2      -6.462   8.103  67.021  1.00  0.00    -0.055 OA 
ENDBRANCH   8  11
ENDBRANCH   3   8
BRANCH   7  20
HETATM   20  C   UNL     3     -10.878  12.853  68.046  1.00  0.00    -0.241 C  
HETATM   21  O   UNL     3      -9.616  13.369  67.627  1.00  0.00    -0.207 OA 
HETATM   22  H   UNL     3      -9.736  14.194  67.171  1.00  0.00     0.000 HD 
BRANCH  20  23
HETATM   23  C   UNL     3     -11.826  13.956  68.593  1.00  0.00    -0.372 C  
HETATM   24  O   UNL     3     -12.764  14.361  71.903  1.00  0.00    -0.328 OA 
HETATM   25  C   UNL     3     -11.574  15.572  70.217  1.00  0.00    -0.335 C  
HETATM   26  C   UNL     3     -11.434  15.363  68.902  1.00  0.00    -0.342 C  
HETATM   27  O   UNL     3     -11.373  16.759  70.885  1.00  0.00    -0.485 OA 
HETATM   28  O   UNL     3     -12.539  13.528  69.766  1.00  0.00    -0.164 OA 
HETATM   29  C   UNL     3     -12.286  14.424  70.782  1.00  0.00    -0.343 C  
HETATM   30  O   UNL     3     -11.196  16.075  67.900  1.00  0.00    -0.338 OA 
HETATM   31  H   UNL     3     -10.911  17.504  70.517  1.00  0.00     0.000 HD 
ENDBRANCH  20  23
ENDBRANCH   7  20
TORSDOF 4
ENDMDL
MODEL      297
REMARK 921   NORMALIZED FREE ENERGY PREDICTED BY IDOCK:   -3.83 KCAL/MOL
REMARK 922        TOTAL FREE ENERGY PREDICTED BY IDOCK:   -6.65 KCAL/MOL
REMARK 923 INTER-LIGAND FREE ENERGY PREDICTED BY IDOCK:   -5.78 KCAL/MOL
REMARK 924 INTRA-LIGAND FREE ENERGY PREDICTED BY IDOCK:   -0.87 KCAL/MOL
REMARK 927      BINDING AFFINITY PREDICTED BY RF-SCORE:    0.00 PKD
ROOT
HETATM    1 CA   UNL     1     -13.381   8.802  70.743  1.00  0.00    -0.471 Ca 
HETATM    2  O   UNL     2      -9.987  14.188  67.838  1.00  0.00    -0.223 OA 
HETATM    3  C   UNL     2     -10.909  13.333  68.523  1.00  0.00    -0.265 C  
HETATM    4  H   UNL     2     -10.312  15.078  67.920  1.00  0.00     0.000 HD 
HETATM    5  O   UNL     3      -8.631   8.819  73.413  1.00  0.00    -0.320 OA 
HETATM    6  H   UNL     3      -7.702   9.004  73.346  1.00  0.00     0.000 HD 
HETATM    7  C   UNL     3      -8.841   7.527  72.774  1.00  0.00    -0.145 C  
ENDROOT
BRANCH   3   8
HETATM    8  C   UNL     2     -10.393  11.919  68.393  1.00  0.00    -0.209 C  
HETATM    9  H   UNL     2     -10.643  10.234  69.372  1.00  0.00     0.000 HD 
HETATM   10  O   UNL     2     -10.968  11.123  69.453  1.00  0.00    -0.238 OA 
BRANCH   8  11
HETATM   11  C   UNL     2      -8.860  11.750  68.442  1.00  0.00    -0.161 C  
HETATM   12  C   UNL     2      -8.026  11.976  67.206  1.00  0.00    -0.174 C  
HETATM   13  O   UNL     2      -8.699  10.331  68.555  1.00  0.00    -0.120 OA 
HETATM   14  O   UNL     2      -9.246   8.776  66.935  1.00  0.00    -0.144 OA 
HETATM   15  H   UNL     2      -7.266  11.320  64.638  1.00  0.00     0.000 HD 
HETATM   16  O   UNL     2      -7.213  12.939  67.201  1.00  0.00    -0.105 OA 
HETATM   17  C   UNL     2      -8.860   9.871  67.279  1.00  0.00    -0.132 C  
HETATM   18  C   UNL     2      -8.244  10.906  66.404  1.00  0.00    -0.163 C  
HETATM   19  O   UNL     2      -7.659  10.660  65.196  1.00  0.00    -0.092 OA 
ENDBRANCH   8  11
ENDBRANCH   3   8
BRANCH   7  20
HETATM   20  C   UNL     3     -10.341   7.228  72.881  1.00  0.00    -0.262 C  
HETATM   21  O   UNL     3     -10.716   7.084  74.250  1.00  0.00    -0.523 OA 
HETATM   22  H   UNL     3     -11.645   6.899  74.316  1.00  0.00     0.000 HD 
BRANCH  20  23
HETATM   23  C   UNL     3     -11.032   6.187  71.956  1.00  0.00    -0.258 C  
HETATM   24  O   UNL     3     -11.401   6.457  68.523  1.00  0.00    -0.303 OA 
HETATM   25  C   UNL     3     -10.315   5.023  70.101  1.00  0.00    -0.236 C  
HETATM   26  C   UNL     3     -10.403   4.938  71.434  1.00  0.00    -0.151 C  
HETATM   27  O   UNL     3      -9.851   4.050  69.246  1.00  0.00    -0.166 OA 
HETATM   28  O   UNL     3     -11.615   6.796  70.792  1.00  0.00    -0.323 OA 
HETATM   29  C   UNL     3     -11.090   6.189  69.672  1.00  0.00    -0.419 C  
HETATM   30  O   UNL     3     -10.218   4.044  72.291  1.00  0.00    -0.180 OA 
HETATM   31  H   UNL     3      -9.348   3.293  69.525  1.00  0.00     0.000 HD 
ENDBRANCH  20  23
ENDBRANCH   7  20
TORSDOF 4
ENDMDL
MODEL      298
REMARK 921   NORMALIZED FREE ENERGY PREDICTED BY IDOCK:   -3.80 KCAL/MOL
REMARK 922        TOTAL FREE ENERGY PREDICTED BY IDOCK:   -6.62 KCAL/MOL
REMARK 923 INTER-LIGAND FREE ENERGY PREDICTED BY IDOCK:   -6.11 KCAL/MOL
REMARK 924 INTRA-LIGAND FREE ENERGY PREDICTED BY IDOCK:   -0.51 KCAL/MOL
REMARK 927      BINDING AFFINITY PREDICTED BY RF-SCORE:    0.00 PKD
ROOT
HETATM    1 CA   UNL     1      -8.281  13.087  67.870  1.00  0.00    -0.109 Ca 
HETATM    2  O   UNL     2      -9.329   6.522  65.685  1.00  0.00    -0.377 OA 
HETATM    3  C   UNL     2      -9.127   7.718  66.446  1.00  0.00    -0.175 C  
HETATM    4  H   UNL     2      -9.455   5.811  66.302  1.00  0.00     0.000 HD 
HETATM    5  O   UNL     3     -13.017  13.443  65.201  1.00  0.00    -0.710 OA 
HETATM    6  H   UNL     3     -13.530  13.105  64.476  1.00  0.00     0.000 HD 
HETATM    7  C   UNL     3     -12.049  14.366  64.625  1.00  0.00    -0.471 C  
ENDROOT
BRANCH   3   8
HETATM    8  C   UNL     2      -8.928   8.849  65.464  1.00  0.00    -0.197 C  
HETATM    9  H   UNL     2      -9.959  10.424  64.904  1.00  0.00     0.000 HD 
HETATM   10  O   UNL     2     -10.084   9.713  65.522  1.00  0.00    -0.290 OA 
BRANCH   8  11
HETATM   11  C   UNL     2      -8.707   8.438  63.993  1.00  0.00     0.242 C  
HETATM   12  C   UNL     2      -7.581   7.507  63.620  1.00  0.00    -0.118 C  
HETATM   13  O   UNL     2      -8.200   9.638  63.399  1.00  0.00    -0.138 OA 
HETATM   14  O   UNL     2      -6.166  10.625  63.874  1.00  0.00    -0.043 OA 
HETATM   15  H   UNL     2      -4.899   6.905  63.407  1.00  0.00     0.000 HD 
HETATM   16  O   UNL     2      -7.874   6.371  63.157  1.00  0.00    -0.097 OA 
HETATM   17  C   UNL     2      -6.881   9.657  63.749  1.00  0.00    -0.112 C  
HETATM   18  C   UNL     2      -6.443   8.234  63.718  1.00  0.00    -0.072 C  
HETATM   19  O   UNL     2      -5.178   7.812  63.428  1.00  0.00    -0.040 OA 
ENDBRANCH   8  11
ENDBRANCH   3   8
BRANCH   7  20
HETATM   20  C   UNL     3     -11.222  14.913  65.795  1.00  0.00    -0.334 C  
HETATM   21  O   UNL     3     -12.063  15.144  66.924  1.00  0.00    -0.142 OA 
HETATM   22  H   UNL     3     -11.550  15.482  67.648  1.00  0.00     0.000 HD 
BRANCH  20  23
HETATM   23  C   UNL     3     -10.167  16.035  65.591  1.00  0.00    -0.386 C  
HETATM   24  O   UNL     3     -10.709  19.429  66.031  1.00  0.00    -0.457 OA 
HETATM   25  C   UNL     3      -9.358  17.693  66.974  1.00  0.00    -0.257 C  
HETATM   26  C   UNL     3      -9.123  16.435  66.580  1.00  0.00    -0.250 C  
HETATM   27  O   UNL     3      -8.585  18.442  67.831  1.00  0.00    -0.262 OA 
HETATM   28  O   UNL     3     -10.767  17.281  65.197  1.00  0.00    -0.687 OA 
HETATM   29  C   UNL     3     -10.391  18.253  66.098  1.00  0.00    -0.398 C  
HETATM   30  O   UNL     3      -8.198  15.604  66.734  1.00  0.00    -0.233 OA 
HETATM   31  H   UNL     3      -7.915  18.079  68.398  1.00  0.00     0.000 HD 
ENDBRANCH  20  23
ENDBRANCH   7  20
TORSDOF 4
ENDMDL
MODEL      299
REMARK 921   NORMALIZED FREE ENERGY PREDICTED BY IDOCK:   -3.79 KCAL/MOL
REMARK 922        TOTAL FREE ENERGY PREDICTED BY IDOCK:   -6.61 KCAL/MOL
REMARK 923 INTER-LIGAND FREE ENERGY PREDICTED BY IDOCK:   -5.68 KCAL/MOL
REMARK 924 INTRA-LIGAND FREE ENERGY PREDICTED BY IDOCK:   -0.93 KCAL/MOL
REMARK 927      BINDING AFFINITY PREDICTED BY RF-SCORE:    0.00 PKD
ROOT
HETATM    1 CA   UNL     1     -10.876  12.798  62.796  1.00  0.00    -0.450 Ca 
HETATM    2  O   UNL     2      -6.194   7.597  62.794  1.00  0.00    -0.064 OA 
HETATM    3  C   UNL     2      -6.891   8.840  62.653  1.00  0.00    -0.094 C  
HETATM    4  H   UNL     2      -5.303   7.736  62.496  1.00  0.00     0.000 HD 
HETATM    5  O   UNL     3     -10.383  11.614  68.092  1.00  0.00    -0.182 OA 
HETATM    6  H   UNL     3     -10.224  10.922  68.723  1.00  0.00     0.000 HD 
HETATM    7  C   UNL     3     -11.773  11.481  67.678  1.00  0.00    -0.208 C  
ENDROOT
BRANCH   3   8
HETATM    8  C   UNL     2      -8.308   8.619  63.128  1.00  0.00    -0.144 C  
HETATM    9  H   UNL     2     -10.007   9.596  62.990  1.00  0.00     0.000 HD 
HETATM   10  O   UNL     2      -9.116   9.735  62.691  1.00  0.00    -0.260 OA 
BRANCH   8  11
HETATM   11  C   UNL     2      -8.494   8.459  64.652  1.00  0.00    -0.075 C  
HETATM   12  C   UNL     2      -9.172   9.540  65.457  1.00  0.00    -0.234 C  
HETATM   13  O   UNL     2      -7.163   8.618  65.155  1.00  0.00    -0.084 OA 
HETATM   14  O   UNL     2      -5.914  10.560  65.082  1.00  0.00    -0.131 OA 
HETATM   15  H   UNL     2      -9.285  12.102  66.468  1.00  0.00     0.000 HD 
HETATM   16  O   UNL     2     -10.276   9.274  66.005  1.00  0.00    -0.269 OA 
HETATM   17  C   UNL     2      -6.966   9.969  65.169  1.00  0.00    -0.134 C  
HETATM   18  C   UNL     2      -8.281  10.556  65.546  1.00  0.00    -0.162 C  
HETATM   19  O   UNL     2      -8.447  11.728  66.227  1.00  0.00    -0.135 OA 
ENDBRANCH   8  11
ENDBRANCH   3   8
BRANCH   7  20
HETATM   20  C   UNL     3     -12.031  12.597  66.659  1.00  0.00    -0.312 C  
HETATM   21  O   UNL     3     -11.288  12.353  65.466  1.00  0.00    -0.319 OA 
HETATM   22  H   UNL     3     -11.447  13.044  64.835  1.00  0.00     0.000 HD 
BRANCH  20  23
HETATM   23  C   UNL     3     -12.027  14.095  67.073  1.00  0.00    -0.439 C  
HETATM   24  O   UNL     3     -10.792  15.370  70.048  1.00  0.00    -0.264 OA 
HETATM   25  C   UNL     3     -10.345  15.540  67.703  1.00  0.00    -0.269 C  
HETATM   26  C   UNL     3     -11.029  15.115  66.633  1.00  0.00    -0.318 C  
HETATM   27  O   UNL     3      -9.381  16.522  67.723  1.00  0.00    -0.209 OA 
HETATM   28  O   UNL     3     -12.093  14.266  68.499  1.00  0.00    -0.329 OA 
HETATM   29  C   UNL     3     -11.013  15.023  68.899  1.00  0.00    -0.252 C  
HETATM   30  O   UNL     3     -11.118  15.455  65.431  1.00  0.00    -0.343 OA 
HETATM   31  H   UNL     3      -8.948  16.858  66.946  1.00  0.00     0.000 HD 
ENDBRANCH  20  23
ENDBRANCH   7  20
TORSDOF 4
ENDMDL
MODEL      300
REMARK 921   NORMALIZED FREE ENERGY PREDICTED BY IDOCK:   -3.79 KCAL/MOL
REMARK 922        TOTAL FREE ENERGY PREDICTED BY IDOCK:   -6.60 KCAL/MOL
REMARK 923 INTER-LIGAND FREE ENERGY PREDICTED BY IDOCK:   -4.38 KCAL/MOL
REMARK 924 INTRA-LIGAND FREE ENERGY PREDICTED BY IDOCK:   -2.22 KCAL/MOL
REMARK 927      BINDING AFFINITY PREDICTED BY RF-SCORE:    0.00 PKD
ROOT
HETATM    1 CA   UNL     1      -9.138   3.537  71.077  1.00  0.00    -0.074 Ca 
HETATM    2  O   UNL     2      -6.740   6.307  65.114  1.00  0.00    -0.044 OA 
HETATM    3  C   UNL     2      -7.491   5.632  66.131  1.00  0.00    -0.082 C  
HETATM    4  H   UNL     2      -7.235   6.242  64.306  1.00  0.00     0.000 HD 
HETATM    5  O   UNL     3      -9.005   8.869  72.189  1.00  0.00    -0.381 OA 
HETATM    6  H   UNL     3      -8.553   9.688  72.023  1.00  0.00     0.000 HD 
HETATM    7  C   UNL     3      -8.193   8.137  73.151  1.00  0.00    -0.193 C  
ENDROOT
BRANCH   3   8
HETATM    8  C   UNL     2      -6.702   5.735  67.416  1.00  0.00    -0.059 C  
HETATM    9  H   UNL     2      -5.038   4.957  68.111  1.00  0.00     0.000 HD 
HETATM   10  O   UNL     2      -5.534   4.893  67.303  1.00  0.00    -0.012 OA 
BRANCH   8  11
HETATM   11  C   UNL     2      -7.454   5.344  68.706  1.00  0.00    -0.075 C  
HETATM   12  C   UNL     2      -8.890   5.760  68.909  1.00  0.00    -0.110 C  
HETATM   13  O   UNL     2      -6.845   6.180  69.696  1.00  0.00    -0.060 OA 
HETATM   14  O   UNL     2      -6.995   8.483  69.798  1.00  0.00    -0.046 OA 
HETATM   15  H   UNL     2     -10.833   7.686  69.251  1.00  0.00     0.000 HD 
HETATM   16  O   UNL     2      -9.771   4.860  68.962  1.00  0.00    -0.148 OA 
HETATM   17  C   UNL     2      -7.449   7.393  69.531  1.00  0.00    -0.090 C  
HETATM   18  C   UNL     2      -8.862   7.087  69.178  1.00  0.00    -0.135 C  
HETATM   19  O   UNL     2      -9.932   7.881  69.477  1.00  0.00    -0.181 OA 
ENDBRANCH   8  11
ENDBRANCH   3   8
BRANCH   7  20
HETATM   20  C   UNL     3      -8.923   6.816  73.420  1.00  0.00    -0.129 C  
HETATM   21  O   UNL     3      -8.243   5.741  72.774  1.00  0.00    -0.111 OA 
HETATM   22  H   UNL     3      -8.694   4.922  72.941  1.00  0.00     0.000 HD 
BRANCH  20  23
HETATM   23  C   UNL     3     -10.468   6.702  73.308  1.00  0.00    -0.276 C  
HETATM   24  O   UNL     3     -12.620   9.232  72.324  1.00  0.00    -0.369 OA 
HETATM   25  C   UNL     3     -11.943   7.064  71.574  1.00  0.00    -0.334 C  
HETATM   26  C   UNL     3     -11.214   6.106  72.161  1.00  0.00    -0.287 C  
HETATM   27  O   UNL     3     -12.815   6.902  70.521  1.00  0.00    -0.535 OA 
HETATM   28  O   UNL     3     -11.125   7.961  73.532  1.00  0.00    -0.214 OA 
HETATM   29  C   UNL     3     -11.910   8.247  72.437  1.00  0.00    -0.396 C  
HETATM   30  O   UNL     3     -11.123   4.861  72.063  1.00  0.00    -0.043 OA 
HETATM   31  H   UNL     3     -12.836   6.134  69.962  1.00  0.00     0.000 HD 
ENDBRANCH  20  23
ENDBRANCH   7  20
TORSDOF 4
ENDMDL
MODEL      301
REMARK 921   NORMALIZED FREE ENERGY PREDICTED BY IDOCK:   -3.78 KCAL/MOL
REMARK 922        TOTAL FREE ENERGY PREDICTED BY IDOCK:   -6.59 KCAL/MOL
REMARK 923 INTER-LIGAND FREE ENERGY PREDICTED BY IDOCK:   -6.47 KCAL/MOL
REMARK 924 INTRA-LIGAND FREE ENERGY PREDICTED BY IDOCK:   -0.12 KCAL/MOL
REMARK 927      BINDING AFFINITY PREDICTED BY RF-SCORE:    0.00 PKD
ROOT
HETATM    1 CA   UNL     1      -5.985  14.522  68.228  1.00  0.00    -0.076 Ca 
HETATM    2  O   UNL     2     -10.967   9.761  67.012  1.00  0.00    -0.162 OA 
HETATM    3  C   UNL     2      -9.951  10.596  67.579  1.00  0.00    -0.171 C  
HETATM    4  H   UNL     2     -11.283   9.190  67.703  1.00  0.00     0.000 HD 
HETATM    5  O   UNL     3     -10.290  17.589  66.904  1.00  0.00    -0.317 OA 
HETATM    6  H   UNL     3     -11.079  17.637  66.378  1.00  0.00     0.000 HD 
HETATM    7  C   UNL     3      -9.178  17.875  66.009  1.00  0.00    -0.010 C  
ENDROOT
BRANCH   3   8
HETATM    8  C   UNL     2      -9.450  11.504  66.481  1.00  0.00    -0.204 C  
HETATM    9  H   UNL     2      -7.743  12.371  66.041  1.00  0.00     0.000 HD 
HETATM   10  O   UNL     2      -8.058  11.799  66.732  1.00  0.00    -0.166 OA 
BRANCH   8  11
HETATM   11  C   UNL     2     -10.202  12.841  66.310  1.00  0.00    -0.253 C  
HETATM   12  C   UNL     2     -11.710  12.874  66.310  1.00  0.00    -0.399 C  
HETATM   13  O   UNL     2      -9.979  13.159  64.932  1.00  0.00    -0.233 OA 
HETATM   14  O   UNL     2     -10.797  11.977  63.123  1.00  0.00    -0.356 OA 
HETATM   15  H   UNL     2     -14.152  12.220  65.209  1.00  0.00     0.000 HD 
HETATM   16  O   UNL     2     -12.295  13.476  67.251  1.00  0.00    -0.297 OA 
HETATM   17  C   UNL     2     -10.884  12.390  64.257  1.00  0.00    -0.355 C  
HETATM   18  C   UNL     2     -12.098  12.360  65.118  1.00  0.00    -0.405 C  
HETATM   19  O   UNL     2     -13.378  12.239  64.660  1.00  0.00    -0.717 OA 
ENDBRANCH   8  11
ENDBRANCH   3   8
BRANCH   7  20
HETATM   20  C   UNL     3      -7.905  17.798  66.859  1.00  0.00    -0.224 C  
HETATM   21  O   UNL     3      -6.915  17.021  66.188  1.00  0.00    -0.220 OA 
HETATM   22  H   UNL     3      -6.125  16.973  66.715  1.00  0.00     0.000 HD 
BRANCH  20  23
HETATM   23  C   UNL     3      -7.961  17.512  68.385  1.00  0.00    -0.261 C  
HETATM   24  O   UNL     3     -10.099  15.281  69.951  1.00  0.00    -0.254 OA 
HETATM   25  C   UNL     3      -7.748  15.580  69.624  1.00  0.00    -0.138 C  
HETATM   26  C   UNL     3      -7.040  16.605  69.133  1.00  0.00    -0.226 C  
HETATM   27  O   UNL     3      -7.274  14.564  70.422  1.00  0.00    -0.353 OA 
HETATM   28  O   UNL     3      -9.272  17.108  68.816  1.00  0.00    -0.269 OA 
HETATM   29  C   UNL     3      -9.169  15.886  69.445  1.00  0.00    -0.235 C  
HETATM   30  O   UNL     3      -5.871  17.033  69.263  1.00  0.00    -0.169 OA 
HETATM   31  H   UNL     3      -6.352  14.366  70.539  1.00  0.00     0.000 HD 
ENDBRANCH  20  23
ENDBRANCH   7  20
TORSDOF 4
ENDMDL
MODEL      302
REMARK 921   NORMALIZED FREE ENERGY PREDICTED BY IDOCK:   -3.78 KCAL/MOL
REMARK 922        TOTAL FREE ENERGY PREDICTED BY IDOCK:   -6.59 KCAL/MOL
REMARK 923 INTER-LIGAND FREE ENERGY PREDICTED BY IDOCK:   -5.52 KCAL/MOL
REMARK 924 INTRA-LIGAND FREE ENERGY PREDICTED BY IDOCK:   -1.07 KCAL/MOL
REMARK 927      BINDING AFFINITY PREDICTED BY RF-SCORE:    0.00 PKD
ROOT
HETATM    1 CA   UNL     1      -6.791  14.942  69.737  1.00  0.00    -0.107 Ca 
HETATM    2  O   UNL     2     -12.543  13.133  66.186  1.00  0.00    -0.398 OA 
HETATM    3  C   UNL     2     -11.595  13.571  67.165  1.00  0.00    -0.357 C  
HETATM    4  H   UNL     2     -13.408  13.226  66.567  1.00  0.00     0.000 HD 
HETATM    5  O   UNL     3      -6.759  18.412  65.537  1.00  0.00    -0.385 OA 
HETATM    6  H   UNL     3      -6.986  18.529  64.622  1.00  0.00     0.000 HD 
HETATM    7  C   UNL     3      -5.522  17.646  65.561  1.00  0.00     0.081 C  
ENDROOT
BRANCH   3   8
HETATM    8  C   UNL     2     -10.219  13.423  66.558  1.00  0.00    -0.282 C  
HETATM    9  H   UNL     2      -9.386  13.869  64.835  1.00  0.00     0.000 HD 
HETATM   10  O   UNL     2     -10.251  13.962  65.218  1.00  0.00    -0.336 OA 
BRANCH   8  11
HETATM   11  C   UNL     2      -9.661  11.985  66.484  1.00  0.00    -0.216 C  
HETATM   12  C   UNL     2     -10.078  10.952  67.501  1.00  0.00    -0.184 C  
HETATM   13  O   UNL     2      -8.298  12.151  66.891  1.00  0.00    -0.179 OA 
HETATM   14  O   UNL     2      -7.583  12.778  68.997  1.00  0.00    -0.003 OA 
HETATM   15  H   UNL     2     -10.169   9.984  70.081  1.00  0.00     0.000 HD 
HETATM   16  O   UNL     2     -10.746   9.959  67.104  1.00  0.00    -0.253 OA 
HETATM   17  C   UNL     2      -8.358  12.220  68.253  1.00  0.00    -0.174 C  
HETATM   18  C   UNL     2      -9.438  11.276  68.650  1.00  0.00    -0.175 C  
HETATM   19  O   UNL     2      -9.480  10.587  69.828  1.00  0.00    -0.102 OA 
ENDBRANCH   8  11
ENDBRANCH   3   8
BRANCH   7  20
HETATM   20  C   UNL     3      -5.156  17.457  67.038  1.00  0.00    -0.143 C  
HETATM   21  O   UNL     3      -5.171  16.071  67.373  1.00  0.00    -0.238 OA 
HETATM   22  H   UNL     3      -4.944  15.954  68.288  1.00  0.00     0.000 HD 
BRANCH  20  23
HETATM   23  C   UNL     3      -5.771  18.351  68.150  1.00  0.00    -0.176 C  
HETATM   24  O   UNL     3      -7.472  21.327  67.647  1.00  0.00    -0.350 OA 
HETATM   25  C   UNL     3      -7.904  19.142  68.520  1.00  0.00    -0.345 C  
HETATM   26  C   UNL     3      -7.087  18.124  68.817  1.00  0.00    -0.279 C  
HETATM   27  O   UNL     3      -9.183  19.332  68.993  1.00  0.00    -0.355 OA 
HETATM   28  O   UNL     3      -5.807  19.739  67.775  1.00  0.00    -0.191 OA 
HETATM   29  C   UNL     3      -7.107  20.184  67.870  1.00  0.00    -0.290 C  
HETATM   30  O   UNL     3      -7.119  17.144  69.597  1.00  0.00    -0.080 OA 
HETATM   31  H   UNL     3      -9.699  18.655  69.415  1.00  0.00     0.000 HD 
ENDBRANCH  20  23
ENDBRANCH   7  20
TORSDOF 4
ENDMDL
MODEL      303
REMARK 921   NORMALIZED FREE ENERGY PREDICTED BY IDOCK:   -3.77 KCAL/MOL
REMARK 922        TOTAL FREE ENERGY PREDICTED BY IDOCK:   -6.58 KCAL/MOL
REMARK 923 INTER-LIGAND FREE ENERGY PREDICTED BY IDOCK:   -6.59 KCAL/MOL
REMARK 924 INTRA-LIGAND FREE ENERGY PREDICTED BY IDOCK:    0.01 KCAL/MOL
REMARK 927      BINDING AFFINITY PREDICTED BY RF-SCORE:    0.00 PKD
ROOT
HETATM    1 CA   UNL     1     -10.606  10.982  71.139  1.00  0.00    -0.216 Ca 
HETATM    2  O   UNL     2     -10.749  17.243  68.017  1.00  0.00    -0.380 OA 
HETATM    3  C   UNL     2     -10.573  16.141  68.915  1.00  0.00    -0.275 C  
HETATM    4  H   UNL     2     -10.377  18.011  68.435  1.00  0.00     0.000 HD 
HETATM    5  O   UNL     3      -7.530  10.195  66.712  1.00  0.00    -0.100 OA 
HETATM    6  H   UNL     3      -7.396  10.439  65.804  1.00  0.00     0.000 HD 
HETATM    7  C   UNL     3      -8.636   9.248  66.726  1.00  0.00    -0.127 C  
ENDROOT
BRANCH   3   8
HETATM    8  C   UNL     2     -11.165  14.920  68.251  1.00  0.00    -0.294 C  
HETATM    9  H   UNL     2     -11.484  13.052  68.768  1.00  0.00     0.000 HD 
HETATM   10  O   UNL     2     -11.113  13.820  69.186  1.00  0.00    -0.252 OA 
BRANCH   8  11
HETATM   11  C   UNL     2     -10.490  14.468  66.938  1.00  0.00    -0.269 C  
HETATM   12  C   UNL     2     -11.264  14.462  65.644  1.00  0.00    -0.323 C  
HETATM   13  O   UNL     2     -10.359  13.054  67.118  1.00  0.00    -0.240 OA 
HETATM   14  O   UNL     2     -12.100  11.540  67.244  1.00  0.00    -0.548 OA 
HETATM   15  H   UNL     2     -13.303  13.529  64.040  1.00  0.00     0.000 HD 
HETATM   16  O   UNL     2     -10.906  15.253  64.730  1.00  0.00    -0.411 OA 
HETATM   17  C   UNL     2     -11.598  12.560  66.828  1.00  0.00    -0.382 C  
HETATM   18  C   UNL     2     -12.112  13.408  65.718  1.00  0.00    -0.436 C  
HETATM   19  O   UNL     2     -12.976  12.988  64.748  1.00  0.00    -0.735 OA 
ENDBRANCH   8  11
ENDBRANCH   3   8
BRANCH   7  20
HETATM   20  C   UNL     3      -8.851   8.855  68.192  1.00  0.00    -0.134 C  
HETATM   21  O   UNL     3      -7.943   9.567  69.030  1.00  0.00    -0.087 OA 
HETATM   22  H   UNL     3      -8.076   9.324  69.938  1.00  0.00     0.000 HD 
BRANCH  20  23
HETATM   23  C   UNL     3      -9.025   7.371  68.620  1.00  0.00    -0.131 C  
HETATM   24  O   UNL     3      -8.544   6.113  71.811  1.00  0.00    -0.132 OA 
HETATM   25  C   UNL     3     -10.321   6.346  70.226  1.00  0.00    -0.205 C  
HETATM   26  C   UNL     3     -10.322   6.705  68.936  1.00  0.00    -0.193 C  
HETATM   27  O   UNL     3     -11.310   5.652  70.885  1.00  0.00    -0.142 OA 
HETATM   28  O   UNL     3      -8.175   7.020  69.725  1.00  0.00    -0.127 OA 
HETATM   29  C   UNL     3      -8.963   6.526  70.742  1.00  0.00    -0.144 C  
HETATM   30  O   UNL     3     -11.063   6.499  67.947  1.00  0.00    -0.303 OA 
HETATM   31  H   UNL     3     -12.192   5.535  70.549  1.00  0.00     0.000 HD 
ENDBRANCH  20  23
ENDBRANCH   7  20
TORSDOF 4
ENDMDL
MODEL      304
REMARK 921   NORMALIZED FREE ENERGY PREDICTED BY IDOCK:   -3.77 KCAL/MOL
REMARK 922        TOTAL FREE ENERGY PREDICTED BY IDOCK:   -6.57 KCAL/MOL
REMARK 923 INTER-LIGAND FREE ENERGY PREDICTED BY IDOCK:   -6.27 KCAL/MOL
REMARK 924 INTRA-LIGAND FREE ENERGY PREDICTED BY IDOCK:   -0.30 KCAL/MOL
REMARK 927      BINDING AFFINITY PREDICTED BY RF-SCORE:    0.00 PKD
ROOT
HETATM    1 CA   UNL     1     -12.475  10.327  69.861  1.00  0.00    -0.261 Ca 
HETATM    2  O   UNL     2      -9.955   5.463  74.215  1.00  0.00    -0.183 OA 
HETATM    3  C   UNL     2     -10.774   6.304  73.394  1.00  0.00    -0.259 C  
HETATM    4  H   UNL     2     -10.520   4.801  74.596  1.00  0.00     0.000 HD 
HETATM    5  O   UNL     3      -9.030   7.538  66.693  1.00  0.00    -0.139 OA 
HETATM    6  H   UNL     3      -8.218   7.046  66.671  1.00  0.00     0.000 HD 
HETATM    7  C   UNL     3      -8.659   8.946  66.716  1.00  0.00    -0.115 C  
ENDROOT
BRANCH   3   8
HETATM    8  C   UNL     2      -9.874   7.356  72.789  1.00  0.00    -0.189 C  
HETATM    9  H   UNL     2      -8.559   8.645  73.473  1.00  0.00     0.000 HD 
HETATM   10  O   UNL     2      -9.124   7.983  73.854  1.00  0.00    -0.257 OA 
BRANCH   8  11
HETATM   11  C   UNL     2     -10.578   8.465  71.978  1.00  0.00    -0.317 C  
HETATM   12  C   UNL     2     -12.078   8.613  72.028  1.00  0.00    -0.375 C  
HETATM   13  O   UNL     2     -10.450   8.003  70.629  1.00  0.00    -0.205 OA 
HETATM   14  O   UNL     2     -11.461   6.123  69.744  1.00  0.00    -0.433 OA 
HETATM   15  H   UNL     2     -14.626   7.678  71.542  1.00  0.00     0.000 HD 
HETATM   16  O   UNL     2     -12.559   9.660  72.541  1.00  0.00    -0.213 OA 
HETATM   17  C   UNL     2     -11.439   7.070  70.498  1.00  0.00    -0.319 C  
HETATM   18  C   UNL     2     -12.581   7.587  71.300  1.00  0.00    -0.314 C  
HETATM   19  O   UNL     2     -13.897   7.348  71.031  1.00  0.00    -0.242 OA 
ENDBRANCH   8  11
ENDBRANCH   3   8
BRANCH   7  20
HETATM   20  C   UNL     3      -9.971   9.740  66.751  1.00  0.00    -0.218 C  
HETATM   21  O   UNL     3     -10.495   9.879  65.432  1.00  0.00    -0.126 OA 
HETATM   22  H   UNL     3     -11.308  10.370  65.454  1.00  0.00     0.000 HD 
BRANCH  20  23
HETATM   23  C   UNL     3     -10.114  11.037  67.595  1.00  0.00    -0.182 C  
HETATM   24  O   UNL     3      -8.548  14.058  66.947  1.00  0.00    -0.204 OA 
HETATM   25  C   UNL     3     -10.771  13.182  67.067  1.00  0.00    -0.262 C  
HETATM   26  C   UNL     3     -11.244  12.009  67.507  1.00  0.00    -0.294 C  
HETATM   27  O   UNL     3     -11.487  14.347  66.911  1.00  0.00    -0.337 OA 
HETATM   28  O   UNL     3      -8.939  11.863  67.528  1.00  0.00    -0.162 OA 
HETATM   29  C   UNL     3      -9.309  13.114  67.086  1.00  0.00    -0.235 C  
HETATM   30  O   UNL     3     -12.331  11.595  67.971  1.00  0.00    -0.429 OA 
HETATM   31  H   UNL     3     -12.436  14.391  66.899  1.00  0.00     0.000 HD 
ENDBRANCH  20  23
ENDBRANCH   7  20
TORSDOF 4
ENDMDL
MODEL      305
REMARK 921   NORMALIZED FREE ENERGY PREDICTED BY IDOCK:   -3.76 KCAL/MOL
REMARK 922        TOTAL FREE ENERGY PREDICTED BY IDOCK:   -6.56 KCAL/MOL
REMARK 923 INTER-LIGAND FREE ENERGY PREDICTED BY IDOCK:   -6.75 KCAL/MOL
REMARK 924 INTRA-LIGAND FREE ENERGY PREDICTED BY IDOCK:    0.19 KCAL/MOL
REMARK 927      BINDING AFFINITY PREDICTED BY RF-SCORE:    0.00 PKD
ROOT
HETATM    1 CA   UNL     1     -12.274  10.199  69.301  1.00  0.00    -0.402 Ca 
HETATM    2  O   UNL     2      -9.298   3.997  68.018  1.00  0.00    -0.145 OA 
HETATM    3  C   UNL     2     -10.187   5.071  68.345  1.00  0.00    -0.072 C  
HETATM    4  H   UNL     2      -9.799   3.191  68.059  1.00  0.00     0.000 HD 
HETATM    5  O   UNL     3     -10.784  10.631  64.078  1.00  0.00    -0.432 OA 
HETATM    6  H   UNL     3     -10.141  10.374  63.429  1.00  0.00     0.000 HD 
HETATM    7  C   UNL     3     -10.177  11.699  64.861  1.00  0.00    -0.270 C  
ENDROOT
BRANCH   3   8
HETATM    8  C   UNL     2      -9.389   6.352  68.280  1.00  0.00    -0.109 C  
HETATM    9  H   UNL     2      -7.777   7.051  69.158  1.00  0.00     0.000 HD 
HETATM   10  O   UNL     2      -8.278   6.245  69.198  1.00  0.00    -0.111 OA 
BRANCH   8  11
HETATM   11  C   UNL     2     -10.160   7.649  68.606  1.00  0.00    -0.190 C  
HETATM   12  C   UNL     2      -9.616   8.627  69.616  1.00  0.00    -0.170 C  
HETATM   13  O   UNL     2     -11.285   7.172  69.351  1.00  0.00    -0.158 OA 
HETATM   14  O   UNL     2     -11.203   6.190  71.442  1.00  0.00    -0.279 OA 
HETATM   15  H   UNL     2      -8.880   9.307  72.185  1.00  0.00     0.000 HD 
HETATM   16  O   UNL     2      -9.268   9.771  69.213  1.00  0.00    -0.168 OA 
HETATM   17  C   UNL     2     -10.795   6.968  70.609  1.00  0.00    -0.246 C  
HETATM   18  C   UNL     2      -9.807   8.060  70.831  1.00  0.00    -0.175 C  
HETATM   19  O   UNL     2      -9.510   8.610  72.044  1.00  0.00    -0.261 OA 
ENDBRANCH   8  11
ENDBRANCH   3   8
BRANCH   7  20
HETATM   20  C   UNL     3     -11.216  12.113  65.910  1.00  0.00    -0.339 C  
HETATM   21  O   UNL     3     -12.418  12.536  65.268  1.00  0.00    -0.608 OA 
HETATM   22  H   UNL     3     -13.061  12.792  65.918  1.00  0.00     0.000 HD 
BRANCH  20  23
HETATM   23  C   UNL     3     -10.836  13.008  67.122  1.00  0.00    -0.260 C  
HETATM   24  O   UNL     3     -10.620  16.465  67.101  1.00  0.00    -0.310 OA 
HETATM   25  C   UNL     3     -11.907  14.756  68.174  1.00  0.00    -0.287 C  
HETATM   26  C   UNL     3     -11.762  13.426  68.216  1.00  0.00    -0.356 C  
HETATM   27  O   UNL     3     -12.631  15.531  69.052  1.00  0.00    -0.553 OA 
HETATM   28  O   UNL     3     -10.200  14.232  66.718  1.00  0.00    -0.264 OA 
HETATM   29  C   UNL     3     -10.915  15.289  67.238  1.00  0.00    -0.327 C  
HETATM   30  O   UNL     3     -12.094  12.511  69.004  1.00  0.00    -0.259 OA 
HETATM   31  H   UNL     3     -13.275  15.185  69.659  1.00  0.00     0.000 HD 
ENDBRANCH  20  23
ENDBRANCH   7  20
TORSDOF 4
ENDMDL
MODEL      306
REMARK 921   NORMALIZED FREE ENERGY PREDICTED BY IDOCK:   -3.75 KCAL/MOL
REMARK 922        TOTAL FREE ENERGY PREDICTED BY IDOCK:   -6.55 KCAL/MOL
REMARK 923 INTER-LIGAND FREE ENERGY PREDICTED BY IDOCK:   -5.73 KCAL/MOL
REMARK 924 INTRA-LIGAND FREE ENERGY PREDICTED BY IDOCK:   -0.82 KCAL/MOL
REMARK 927      BINDING AFFINITY PREDICTED BY RF-SCORE:    0.00 PKD
ROOT
HETATM    1 CA   UNL     1      -7.608  11.558  67.072  1.00  0.00    -0.102 Ca 
HETATM    2  O   UNL     2     -12.710  14.134  63.035  1.00  0.00    -0.842 OA 
HETATM    3  C   UNL     2     -11.466  13.693  63.590  1.00  0.00     0.055 C  
HETATM    4  H   UNL     2     -12.533  14.446  62.155  1.00  0.00     0.000 HD 
HETATM    5  O   UNL     3     -10.883   7.261  66.376  1.00  0.00    -0.336 OA 
HETATM    6  H   UNL     3     -11.783   6.979  66.257  1.00  0.00     0.000 HD 
HETATM    7  C   UNL     3     -10.724   7.543  67.796  1.00  0.00    -0.163 C  
ENDROOT
BRANCH   3   8
HETATM    8  C   UNL     2     -11.748  13.197  64.989  1.00  0.00    -0.337 C  
HETATM    9  H   UNL     2     -13.205  12.214  65.867  1.00  0.00     0.000 HD 
HETATM   10  O   UNL     2     -13.028  12.525  64.987  1.00  0.00    -0.779 OA 
BRANCH   8  11
HETATM   11  C   UNL     2     -11.771  14.271  66.098  1.00  0.00    -0.390 C  
HETATM   12  C   UNL     2     -10.485  14.885  66.592  1.00  0.00    -0.292 C  
HETATM   13  O   UNL     2     -12.113  13.516  67.266  1.00  0.00    -0.368 OA 
HETATM   14  O   UNL     2     -10.796  11.902  68.265  1.00  0.00    -0.203 OA 
HETATM   15  H   UNL     2      -8.038  14.710  67.850  1.00  0.00     0.000 HD 
HETATM   16  O   UNL     2     -10.291  16.114  66.384  1.00  0.00    -0.296 OA 
HETATM   17  C   UNL     2     -10.939  12.932  67.646  1.00  0.00    -0.247 C  
HETATM   18  C   UNL     2      -9.882  13.937  67.349  1.00  0.00    -0.237 C  
HETATM   19  O   UNL     2      -8.712  14.069  68.039  1.00  0.00    -0.162 OA 
ENDBRANCH   8  11
ENDBRANCH   3   8
BRANCH   7  20
HETATM   20  C   UNL     3      -9.273   7.998  67.988  1.00  0.00    -0.135 C  
HETATM   21  O   UNL     3      -9.008   8.217  69.372  1.00  0.00    -0.145 OA 
HETATM   22  H   UNL     3      -8.109   8.499  69.492  1.00  0.00     0.000 HD 
BRANCH  20  23
HETATM   23  C   UNL     3      -8.631   9.079  67.075  1.00  0.00    -0.116 C  
HETATM   24  O   UNL     3      -5.262   9.350  66.317  1.00  0.00    -0.038 OA 
HETATM   25  C   UNL     3      -7.328   8.953  65.178  1.00  0.00    -0.092 C  
HETATM   26  C   UNL     3      -8.601   9.049  65.583  1.00  0.00    -0.166 C  
HETATM   27  O   UNL     3      -6.879   8.959  63.877  1.00  0.00    -0.087 OA 
HETATM   28  O   UNL     3      -7.272   9.367  67.444  1.00  0.00    -0.085 OA 
HETATM   29  C   UNL     3      -6.468   9.166  66.344  1.00  0.00    -0.066 C  
HETATM   30  O   UNL     3      -9.707   9.248  65.030  1.00  0.00    -0.106 OA 
HETATM   31  H   UNL     3      -7.438   8.822  63.121  1.00  0.00     0.000 HD 
ENDBRANCH  20  23
ENDBRANCH   7  20
TORSDOF 4
ENDMDL
MODEL      307
REMARK 921   NORMALIZED FREE ENERGY PREDICTED BY IDOCK:   -3.71 KCAL/MOL
REMARK 922        TOTAL FREE ENERGY PREDICTED BY IDOCK:   -6.51 KCAL/MOL
REMARK 923 INTER-LIGAND FREE ENERGY PREDICTED BY IDOCK:   -4.59 KCAL/MOL
REMARK 924 INTRA-LIGAND FREE ENERGY PREDICTED BY IDOCK:   -1.91 KCAL/MOL
REMARK 927      BINDING AFFINITY PREDICTED BY RF-SCORE:    0.00 PKD
ROOT
HETATM    1 CA   UNL     1      -7.831   5.728  70.273  1.00  0.00    -0.078 Ca 
HETATM    2  O   UNL     2      -8.819   4.681  63.425  1.00  0.00    -0.133 OA 
HETATM    3  C   UNL     2      -8.744   4.573  64.851  1.00  0.00    -0.140 C  
HETATM    4  H   UNL     2      -9.208   3.878  63.100  1.00  0.00     0.000 HD 
HETATM    5  O   UNL     3     -11.410   9.620  68.960  1.00  0.00    -0.452 OA 
HETATM    6  H   UNL     3     -11.699  10.213  68.277  1.00  0.00     0.000 HD 
HETATM    7  C   UNL     3     -10.218  10.215  69.546  1.00  0.00    -0.236 C  
ENDROOT
BRANCH   3   8
HETATM    8  C   UNL     2      -8.125   5.851  65.367  1.00  0.00    -0.130 C  
HETATM    9  H   UNL     2      -8.063   7.723  64.776  1.00  0.00     0.000 HD 
HETATM   10  O   UNL     2      -8.452   6.919  64.451  1.00  0.00     0.051 OA 
BRANCH   8  11
HETATM   11  C   UNL     2      -6.593   5.833  65.559  1.00  0.00    -0.044 C  
HETATM   12  C   UNL     2      -5.952   4.844  66.499  1.00  0.00    -0.023 C  
HETATM   13  O   UNL     2      -6.352   7.030  66.308  1.00  0.00    -0.047 OA 
HETATM   14  O   UNL     2      -7.047   7.430  68.475  1.00  0.00    -0.079 OA 
HETATM   15  H   UNL     2      -5.528   3.817  69.022  1.00  0.00     0.000 HD 
HETATM   16  O   UNL     2      -5.194   3.962  66.012  1.00  0.00    -0.008 OA 
HETATM   17  C   UNL     2      -6.669   6.693  67.593  1.00  0.00    -0.070 C  
HETATM   18  C   UNL     2      -6.230   5.279  67.751  1.00  0.00    -0.038 C  
HETATM   19  O   UNL     2      -5.808   4.718  68.921  1.00  0.00    -0.019 OA 
ENDBRANCH   8  11
ENDBRANCH   3   8
BRANCH   7  20
HETATM   20  C   UNL     3      -9.751   9.258  70.649  1.00  0.00    -0.272 C  
HETATM   21  O   UNL     3      -9.106   8.123  70.072  1.00  0.00    -0.149 OA 
HETATM   22  H   UNL     3      -8.817   7.530  70.755  1.00  0.00     0.000 HD 
BRANCH  20  23
HETATM   23  C   UNL     3     -10.671   8.882  71.844  1.00  0.00    -0.356 C  
HETATM   24  O   UNL     3     -14.133   9.009  71.854  1.00  0.00    -0.388 OA 
HETATM   25  C   UNL     3     -12.399   7.375  72.076  1.00  0.00    -0.266 C  
HETATM   26  C   UNL     3     -11.074   7.497  72.228  1.00  0.00    -0.273 C  
HETATM   27  O   UNL     3     -13.161   6.271  72.384  1.00  0.00    -0.516 OA 
HETATM   28  O   UNL     3     -11.909   9.613  71.829  1.00  0.00    -0.386 OA 
HETATM   29  C   UNL     3     -12.950   8.710  71.836  1.00  0.00    -0.372 C  
HETATM   30  O   UNL     3     -10.158   6.800  72.722  1.00  0.00    -0.170 OA 
HETATM   31  H   UNL     3     -12.803   5.405  72.541  1.00  0.00     0.000 HD 
ENDBRANCH  20  23
ENDBRANCH   7  20
TORSDOF 4
ENDMDL
MODEL      308
REMARK 921   NORMALIZED FREE ENERGY PREDICTED BY IDOCK:   -3.71 KCAL/MOL
REMARK 922        TOTAL FREE ENERGY PREDICTED BY IDOCK:   -6.50 KCAL/MOL
REMARK 923 INTER-LIGAND FREE ENERGY PREDICTED BY IDOCK:   -7.20 KCAL/MOL
REMARK 924 INTRA-LIGAND FREE ENERGY PREDICTED BY IDOCK:    0.70 KCAL/MOL
REMARK 927      BINDING AFFINITY PREDICTED BY RF-SCORE:    0.00 PKD
ROOT
HETATM    1 CA   UNL     1     -11.394  13.643  70.919  1.00  0.00    -0.470 Ca 
HETATM    2  O   UNL     2     -12.793   6.787  70.922  1.00  0.00    -0.406 OA 
HETATM    3  C   UNL     2     -12.797   8.206  71.112  1.00  0.00    -0.088 C  
HETATM    4  H   UNL     2     -13.575   6.443  71.338  1.00  0.00     0.000 HD 
HETATM    5  O   UNL     3     -12.057  12.543  65.624  1.00  0.00    -0.480 OA 
HETATM    6  H   UNL     3     -11.948  11.888  64.946  1.00  0.00     0.000 HD 
HETATM    7  C   UNL     3     -10.741  13.123  65.853  1.00  0.00    -0.274 C  
ENDROOT
BRANCH   3   8
HETATM    8  C   UNL     2     -11.553   8.752  70.450  1.00  0.00    -0.088 C  
HETATM    9  H   UNL     2     -10.188   8.051  69.223  1.00  0.00     0.000 HD 
HETATM   10  O   UNL     2     -10.970   7.707  69.640  1.00  0.00    -0.226 OA 
BRANCH   8  11
HETATM   11  C   UNL     2     -10.461   9.292  71.398  1.00  0.00    -0.338 C  
HETATM   12  C   UNL     2      -9.064   8.726  71.353  1.00  0.00    -0.243 C  
HETATM   13  O   UNL     2     -10.863   8.777  72.672  1.00  0.00    -0.163 OA 
HETATM   14  O   UNL     2     -10.890   6.548  73.281  1.00  0.00    -0.266 OA 
HETATM   15  H   UNL     2      -7.272   6.656  71.681  1.00  0.00     0.000 HD 
HETATM   16  O   UNL     2      -8.124   9.482  70.984  1.00  0.00    -0.312 OA 
HETATM   17  C   UNL     2     -10.429   7.482  72.664  1.00  0.00    -0.271 C  
HETATM   18  C   UNL     2      -9.135   7.502  71.929  1.00  0.00    -0.129 C  
HETATM   19  O   UNL     2      -8.097   6.644  72.150  1.00  0.00    -0.105 OA 
ENDBRANCH   8  11
ENDBRANCH   3   8
BRANCH   7  20
HETATM   20  C   UNL     3     -10.917  14.182  66.948  1.00  0.00    -0.300 C  
HETATM   21  O   UNL     3     -12.304  14.402  67.199  1.00  0.00    -0.598 OA 
HETATM   22  H   UNL     3     -12.413  15.057  67.877  1.00  0.00     0.000 HD 
BRANCH  20  23
HETATM   23  C   UNL     3     -10.091  15.498  66.948  1.00  0.00    -0.262 C  
HETATM   24  O   UNL     3     -10.943  18.425  65.302  1.00  0.00    -0.563 OA 
HETATM   25  C   UNL     3     -10.600  17.665  67.545  1.00  0.00    -0.343 C  
HETATM   26  C   UNL     3     -10.095  16.525  68.031  1.00  0.00    -0.255 C  
HETATM   27  O   UNL     3     -10.713  18.863  68.213  1.00  0.00    -0.342 OA 
HETATM   28  O   UNL     3     -10.283  16.261  65.745  1.00  0.00    -0.345 OA 
HETATM   29  C   UNL     3     -10.715  17.523  66.092  1.00  0.00    -0.098 C  
HETATM   30  O   UNL     3      -9.524  16.175  69.090  1.00  0.00    -0.236 OA 
HETATM   31  H   UNL     3     -10.638  18.955  69.156  1.00  0.00     0.000 HD 
ENDBRANCH  20  23
ENDBRANCH   7  20
TORSDOF 4
ENDMDL
MODEL      309
REMARK 921   NORMALIZED FREE ENERGY PREDICTED BY IDOCK:   -3.70 KCAL/MOL
REMARK 922        TOTAL FREE ENERGY PREDICTED BY IDOCK:   -6.50 KCAL/MOL
REMARK 923 INTER-LIGAND FREE ENERGY PREDICTED BY IDOCK:   -6.05 KCAL/MOL
REMARK 924 INTRA-LIGAND FREE ENERGY PREDICTED BY IDOCK:   -0.45 KCAL/MOL
REMARK 927      BINDING AFFINITY PREDICTED BY RF-SCORE:    0.00 PKD
ROOT
HETATM    1 CA   UNL     1      -8.455  14.898  70.185  1.00  0.00    -0.350 Ca 
HETATM    2  O   UNL     2     -13.382  13.746  65.351  1.00  0.00    -0.669 OA 
HETATM    3  C   UNL     2     -12.645  14.088  66.530  1.00  0.00    -0.174 C  
HETATM    4  H   UNL     2     -14.292  13.967  65.512  1.00  0.00     0.000 HD 
HETATM    5  O   UNL     3      -6.941  18.182  66.110  1.00  0.00    -0.232 OA 
HETATM    6  H   UNL     3      -6.924  18.295  65.167  1.00  0.00     0.000 HD 
HETATM    7  C   UNL     3      -5.863  17.259  66.434  1.00  0.00    -0.187 C  
ENDROOT
BRANCH   3   8
HETATM    8  C   UNL     2     -11.198  13.737  66.274  1.00  0.00    -0.306 C  
HETATM    9  H   UNL     2      -9.482  14.689  66.361  1.00  0.00     0.000 HD 
HETATM   10  O   UNL     2     -10.392  14.910  66.522  1.00  0.00    -0.280 OA 
BRANCH   8  11
HETATM   11  C   UNL     2     -10.867  13.216  64.859  1.00  0.00    -0.332 C  
HETATM   12  C   UNL     2     -11.205  11.800  64.468  1.00  0.00    -0.305 C  
HETATM   13  O   UNL     2      -9.440  13.097  64.889  1.00  0.00     0.202 OA 
HETATM   14  O   UNL     2      -8.235  11.609  66.182  1.00  0.00    -0.064 OA 
HETATM   15  H   UNL     2     -10.903   9.072  64.729  1.00  0.00     0.000 HD 
HETATM   16  O   UNL     2     -12.069  11.619  63.566  1.00  0.00    -0.441 OA 
HETATM   17  C   UNL     2      -9.214  11.918  65.540  1.00  0.00    -0.007 C  
HETATM   18  C   UNL     2     -10.309  11.009  65.105  1.00  0.00    -0.283 C  
HETATM   19  O   UNL     2     -10.205   9.652  65.006  1.00  0.00    -0.011 OA 
ENDBRANCH   8  11
ENDBRANCH   3   8
BRANCH   7  20
HETATM   20  C   UNL     3      -5.891  17.076  67.956  1.00  0.00    -0.119 C  
HETATM   21  O   UNL     3      -6.328  15.758  68.283  1.00  0.00    -0.105 OA 
HETATM   22  H   UNL     3      -6.345  15.645  69.226  1.00  0.00     0.000 HD 
BRANCH  20  23
HETATM   23  C   UNL     3      -6.491  18.158  68.895  1.00  0.00    -0.229 C  
HETATM   24  O   UNL     3      -5.375  18.918  72.085  1.00  0.00    -0.695 OA 
HETATM   25  C   UNL     3      -5.581  19.990  69.956  1.00  0.00    -0.270 C  
HETATM   26  C   UNL     3      -6.203  19.621  68.830  1.00  0.00    -0.257 C  
HETATM   27  O   UNL     3      -5.204  21.268  70.304  1.00  0.00    -0.566 OA 
HETATM   28  O   UNL     3      -6.317  17.832  70.284  1.00  0.00     0.045 OA 
HETATM   29  C   UNL     3      -5.654  18.872  70.898  1.00  0.00    -0.156 C  
HETATM   30  O   UNL     3      -6.700  20.212  67.843  1.00  0.00    -0.255 OA 
HETATM   31  H   UNL     3      -5.157  21.993  69.692  1.00  0.00     0.000 HD 
ENDBRANCH  20  23
ENDBRANCH   7  20
TORSDOF 4
ENDMDL
MODEL      310
REMARK 921   NORMALIZED FREE ENERGY PREDICTED BY IDOCK:   -3.70 KCAL/MOL
REMARK 922        TOTAL FREE ENERGY PREDICTED BY IDOCK:   -6.49 KCAL/MOL
REMARK 923 INTER-LIGAND FREE ENERGY PREDICTED BY IDOCK:   -4.54 KCAL/MOL
REMARK 924 INTRA-LIGAND FREE ENERGY PREDICTED BY IDOCK:   -1.95 KCAL/MOL
REMARK 927      BINDING AFFINITY PREDICTED BY RF-SCORE:    0.00 PKD
ROOT
HETATM    1 CA   UNL     1     -11.552   6.495  67.847  1.00  0.00    -0.337 Ca 
HETATM    2  O   UNL     2      -5.364   5.427  64.759  1.00  0.00    -0.009 OA 
HETATM    3  C   UNL     2      -6.726   5.743  65.071  1.00  0.00    -0.047 C  
HETATM    4  H   UNL     2      -5.229   5.631  63.841  1.00  0.00     0.000 HD 
HETATM    5  O   UNL     3      -8.262   9.921  70.517  1.00  0.00    -0.348 OA 
HETATM    6  H   UNL     3      -7.378  10.063  70.833  1.00  0.00     0.000 HD 
HETATM    7  C   UNL     3      -8.893   9.002  71.454  1.00  0.00    -0.150 C  
ENDROOT
BRANCH   3   8
HETATM    8  C   UNL     2      -6.940   5.418  66.531  1.00  0.00    -0.064 C  
HETATM    9  H   UNL     2      -6.990   3.781  67.616  1.00  0.00     0.000 HD 
HETATM   10  O   UNL     2      -6.855   3.985  66.698  1.00  0.00    -0.055 OA 
BRANCH   8  11
HETATM   11  C   UNL     2      -8.274   5.895  67.143  1.00  0.00    -0.105 C  
HETATM   12  C   UNL     2      -8.786   7.286  66.868  1.00  0.00    -0.132 C  
HETATM   13  O   UNL     2      -7.950   6.054  68.529  1.00  0.00    -0.104 OA 
HETATM   14  O   UNL     2      -6.496   7.622  69.405  1.00  0.00    -0.034 OA 
HETATM   15  H   UNL     2      -8.582  10.029  67.056  1.00  0.00     0.000 HD 
HETATM   16  O   UNL     2      -9.856   7.410  66.211  1.00  0.00    -0.111 OA 
HETATM   17  C   UNL     2      -7.315   7.262  68.590  1.00  0.00    -0.100 C  
HETATM   18  C   UNL     2      -8.009   8.124  67.594  1.00  0.00    -0.122 C  
HETATM   19  O   UNL     2      -8.139   9.479  67.691  1.00  0.00    -0.109 OA 
ENDBRANCH   8  11
ENDBRANCH   3   8
BRANCH   7  20
HETATM   20  C   UNL     3     -10.320   8.772  70.943  1.00  0.00    -0.223 C  
HETATM   21  O   UNL     3     -11.217   9.693  71.563  1.00  0.00    -0.372 OA 
HETATM   22  H   UNL     3     -12.101   9.551  71.246  1.00  0.00     0.000 HD 
BRANCH  20  23
HETATM   23  C   UNL     3     -10.920   7.344  70.815  1.00  0.00    -0.255 C  
HETATM   24  O   UNL     3      -9.659   4.478  72.296  1.00  0.00    -0.143 OA 
HETATM   25  C   UNL     3     -11.648   5.807  72.369  1.00  0.00    -0.264 C  
HETATM   26  C   UNL     3     -12.075   6.814  71.598  1.00  0.00    -0.359 C  
HETATM   27  O   UNL     3     -12.421   5.019  73.192  1.00  0.00    -0.342 OA 
HETATM   28  O   UNL     3      -9.918   6.321  70.936  1.00  0.00    -0.183 OA 
HETATM   29  C   UNL     3     -10.284   5.469  71.956  1.00  0.00    -0.199 C  
HETATM   30  O   UNL     3     -13.187   7.301  71.290  1.00  0.00    -0.372 OA 
HETATM   31  H   UNL     3     -13.306   5.238  73.459  1.00  0.00     0.000 HD 
ENDBRANCH  20  23
ENDBRANCH   7  20
TORSDOF 4
ENDMDL
MODEL      311
REMARK 921   NORMALIZED FREE ENERGY PREDICTED BY IDOCK:   -3.70 KCAL/MOL
REMARK 922        TOTAL FREE ENERGY PREDICTED BY IDOCK:   -6.49 KCAL/MOL
REMARK 923 INTER-LIGAND FREE ENERGY PREDICTED BY IDOCK:   -6.67 KCAL/MOL
REMARK 924 INTRA-LIGAND FREE ENERGY PREDICTED BY IDOCK:    0.18 KCAL/MOL
REMARK 927      BINDING AFFINITY PREDICTED BY RF-SCORE:    0.00 PKD
ROOT
HETATM    1 CA   UNL     1     -13.148  11.862  69.829  1.00  0.00    -0.008 Ca 
HETATM    2  O   UNL     2      -9.991  17.269  66.703  1.00  0.00    -0.269 OA 
HETATM    3  C   UNL     2     -10.761  16.411  67.553  1.00  0.00    -0.298 C  
HETATM    4  H   UNL     2     -10.074  18.153  67.043  1.00  0.00     0.000 HD 
HETATM    5  O   UNL     3      -7.862  10.666  70.393  1.00  0.00    -0.343 OA 
HETATM    6  H   UNL     3      -7.001  10.738  69.998  1.00  0.00     0.000 HD 
HETATM    7  C   UNL     3      -8.547   9.587  69.696  1.00  0.00    -0.183 C  
ENDROOT
BRANCH   3   8
HETATM    8  C   UNL     2     -10.627  15.006  67.012  1.00  0.00    -0.293 C  
HETATM    9  H   UNL     2     -11.864  13.544  66.574  1.00  0.00     0.000 HD 
HETATM   10  O   UNL     2     -11.948  14.427  66.913  1.00  0.00    -0.410 OA 
BRANCH   8  11
HETATM   11  C   UNL     2      -9.742  14.045  67.834  1.00  0.00    -0.229 C  
HETATM   12  C   UNL     2      -8.905  12.998  67.142  1.00  0.00    -0.218 C  
HETATM   13  O   UNL     2     -10.700  13.181  68.455  1.00  0.00    -0.247 OA 
HETATM   14  O   UNL     2     -12.065  11.671  67.363  1.00  0.00    -0.605 OA 
HETATM   15  H   UNL     2      -8.648  10.723  65.605  1.00  0.00     0.000 HD 
HETATM   16  O   UNL     2      -7.650  13.091  67.216  1.00  0.00    -0.152 OA 
HETATM   17  C   UNL     2     -11.029  12.285  67.479  1.00  0.00    -0.254 C  
HETATM   18  C   UNL     2      -9.769  12.043  66.722  1.00  0.00    -0.207 C  
HETATM   19  O   UNL     2      -9.451  10.878  66.087  1.00  0.00    -0.188 OA 
ENDBRANCH   8  11
ENDBRANCH   3   8
BRANCH   7  20
HETATM   20  C   UNL     3      -9.936   9.470  70.333  1.00  0.00    -0.267 C  
HETATM   21  O   UNL     3     -10.680  10.667  70.109  1.00  0.00    -0.437 OA 
HETATM   22  H   UNL     3     -11.541  10.594  70.504  1.00  0.00     0.000 HD 
BRANCH  20  23
HETATM   23  C   UNL     3     -10.129   8.902  71.766  1.00  0.00    -0.337 C  
HETATM   24  O   UNL     3     -11.771   5.961  72.576  1.00  0.00    -0.303 OA 
HETATM   25  C   UNL     3      -9.571   6.889  72.741  1.00  0.00    -0.146 C  
HETATM   26  C   UNL     3      -9.111   8.130  72.539  1.00  0.00    -0.235 C  
HETATM   27  O   UNL     3      -8.955   5.893  73.463  1.00  0.00    -0.129 OA 
HETATM   28  O   UNL     3     -11.325   8.113  71.883  1.00  0.00    -0.263 OA 
HETATM   29  C   UNL     3     -10.981   6.861  72.343  1.00  0.00    -0.246 C  
HETATM   30  O   UNL     3      -8.136   8.804  72.944  1.00  0.00    -0.404 OA 
HETATM   31  H   UNL     3      -8.040   5.912  73.722  1.00  0.00     0.000 HD 
ENDBRANCH  20  23
ENDBRANCH   7  20
TORSDOF 4
ENDMDL
MODEL      312
REMARK 921   NORMALIZED FREE ENERGY PREDICTED BY IDOCK:   -3.67 KCAL/MOL
REMARK 922        TOTAL FREE ENERGY PREDICTED BY IDOCK:   -6.45 KCAL/MOL
REMARK 923 INTER-LIGAND FREE ENERGY PREDICTED BY IDOCK:   -5.79 KCAL/MOL
REMARK 924 INTRA-LIGAND FREE ENERGY PREDICTED BY IDOCK:   -0.66 KCAL/MOL
REMARK 927      BINDING AFFINITY PREDICTED BY RF-SCORE:    0.00 PKD
ROOT
HETATM    1 CA   UNL     1      -8.138  10.736  70.329  1.00  0.00    -0.329 Ca 
HETATM    2  O   UNL     2     -10.626  10.728  63.788  1.00  0.00    -0.519 OA 
HETATM    3  C   UNL     2      -9.829  10.611  64.972  1.00  0.00    -0.293 C  
HETATM    4  H   UNL     2     -10.101  10.413  63.061  1.00  0.00     0.000 HD 
HETATM    5  O   UNL     3     -12.309   7.243  70.627  1.00  0.00    -0.549 OA 
HETATM    6  H   UNL     3     -13.172   7.031  70.291  1.00  0.00     0.000 HD 
HETATM    7  C   UNL     3     -12.494   8.324  71.585  1.00  0.00    -0.320 C  
ENDROOT
BRANCH   3   8
HETATM    8  C   UNL     2     -10.664  11.111  66.128  1.00  0.00    -0.225 C  
HETATM    9  H   UNL     2     -12.174  12.350  66.341  1.00  0.00     0.000 HD 
HETATM   10  O   UNL     2     -11.649  12.035  65.614  1.00  0.00    -0.354 OA 
BRANCH   8  11
HETATM   11  C   UNL     2      -9.894  11.813  67.267  1.00  0.00    -0.185 C  
HETATM   12  C   UNL     2      -8.435  12.156  67.105  1.00  0.00    -0.182 C  
HETATM   13  O   UNL     2      -9.766  10.779  68.249  1.00  0.00    -0.155 OA 
HETATM   14  O   UNL     2      -8.519   8.847  68.022  1.00  0.00    -0.124 OA 
HETATM   15  H   UNL     2      -5.794  11.434  66.776  1.00  0.00     0.000 HD 
HETATM   16  O   UNL     2      -8.105  13.373  67.084  1.00  0.00    -0.163 OA 
HETATM   17  C   UNL     2      -8.720  10.021  67.806  1.00  0.00    -0.125 C  
HETATM   18  C   UNL     2      -7.761  10.985  67.202  1.00  0.00    -0.131 C  
HETATM   19  O   UNL     2      -6.406  10.819  67.162  1.00  0.00    -0.065 OA 
ENDBRANCH   8  11
ENDBRANCH   3   8
BRANCH   7  20
HETATM   20  C   UNL     3     -11.101   8.667  72.126  1.00  0.00    -0.364 C  
HETATM   21  O   UNL     3     -10.281   9.181  71.079  1.00  0.00    -0.251 OA 
HETATM   22  H   UNL     3      -9.418   9.394  71.415  1.00  0.00     0.000 HD 
BRANCH  20  23
HETATM   23  C   UNL     3     -10.334   7.700  73.070  1.00  0.00    -0.335 C  
HETATM   24  O   UNL     3     -10.975   4.318  73.461  1.00  0.00    -0.237 OA 
HETATM   25  C   UNL     3      -9.197   5.728  72.703  1.00  0.00    -0.137 C  
HETATM   26  C   UNL     3      -9.021   7.054  72.770  1.00  0.00    -0.130 C  
HETATM   27  O   UNL     3      -8.219   4.780  72.507  1.00  0.00    -0.111 OA 
HETATM   28  O   UNL     3     -11.159   6.614  73.525  1.00  0.00    -0.164 OA 
HETATM   29  C   UNL     3     -10.545   5.427  73.191  1.00  0.00    -0.239 C  
HETATM   30  O   UNL     3      -8.039   7.830  72.779  1.00  0.00    -0.105 OA 
HETATM   31  H   UNL     3      -7.345   4.976  72.190  1.00  0.00     0.000 HD 
ENDBRANCH  20  23
ENDBRANCH   7  20
TORSDOF 4
ENDMDL
MODEL      313
REMARK 921   NORMALIZED FREE ENERGY PREDICTED BY IDOCK:   -3.65 KCAL/MOL
REMARK 922        TOTAL FREE ENERGY PREDICTED BY IDOCK:   -6.43 KCAL/MOL
REMARK 923 INTER-LIGAND FREE ENERGY PREDICTED BY IDOCK:   -5.87 KCAL/MOL
REMARK 924 INTRA-LIGAND FREE ENERGY PREDICTED BY IDOCK:   -0.56 KCAL/MOL
REMARK 927      BINDING AFFINITY PREDICTED BY RF-SCORE:    0.00 PKD
ROOT
HETATM    1 CA   UNL     1      -7.437  13.924  66.361  1.00  0.00    -0.306 Ca 
HETATM    2  O   UNL     2      -8.517   8.575  70.743  1.00  0.00    -0.125 OA 
HETATM    3  C   UNL     2      -8.109   9.794  70.111  1.00  0.00    -0.182 C  
HETATM    4  H   UNL     2      -8.168   8.584  71.626  1.00  0.00     0.000 HD 
HETATM    5  O   UNL     3     -12.846  13.973  67.017  1.00  0.00    -0.331 OA 
HETATM    6  H   UNL     3     -13.617  13.438  67.165  1.00  0.00     0.000 HD 
HETATM    7  C   UNL     3     -12.515  13.837  65.606  1.00  0.00    -0.503 C  
ENDROOT
BRANCH   3   8
HETATM    8  C   UNL     2      -8.664   9.781  68.706  1.00  0.00    -0.128 C  
HETATM    9  H   UNL     2     -10.308  10.414  67.837  1.00  0.00     0.000 HD 
HETATM   10  O   UNL     2      -9.958  10.423  68.720  1.00  0.00    -0.171 OA 
BRANCH   8  11
HETATM   11  C   UNL     2      -8.823   8.392  68.053  1.00  0.00    -0.142 C  
HETATM   12  C   UNL     2      -7.615   7.529  67.788  1.00  0.00    -0.106 C  
HETATM   13  O   UNL     2      -9.160   8.713  66.698  1.00  0.00    -0.148 OA 
HETATM   14  O   UNL     2      -7.769   9.744  65.168  1.00  0.00    -0.113 OA 
HETATM   15  H   UNL     2      -5.224   7.026  66.511  1.00  0.00     0.000 HD 
HETATM   16  O   UNL     2      -7.509   6.441  68.417  1.00  0.00    -0.084 OA 
HETATM   17  C   UNL     2      -7.963   9.016  66.116  1.00  0.00    -0.103 C  
HETATM   18  C   UNL     2      -6.976   8.090  66.735  1.00  0.00    -0.073 C  
HETATM   19  O   UNL     2      -5.854   7.618  66.117  1.00  0.00    -0.036 OA 
ENDBRANCH   8  11
ENDBRANCH   3   8
BRANCH   7  20
HETATM   20  C   UNL     3     -11.271  14.700  65.366  1.00  0.00    -0.347 C  
HETATM   21  O   UNL     3     -10.432  14.090  64.387  1.00  0.00    -0.578 OA 
HETATM   22  H   UNL     3      -9.661  14.625  64.238  1.00  0.00     0.000 HD 
BRANCH  20  23
HETATM   23  C   UNL     3     -10.467  15.315  66.545  1.00  0.00    -0.298 C  
HETATM   24  O   UNL     3      -8.171  17.898  66.304  1.00  0.00    -0.353 OA 
HETATM   25  C   UNL     3     -10.276  17.464  67.356  1.00  0.00    -0.326 C  
HETATM   26  C   UNL     3     -10.981  16.336  67.507  1.00  0.00    -0.207 C  
HETATM   27  O   UNL     3     -10.403  18.616  68.100  1.00  0.00    -0.368 OA 
HETATM   28  O   UNL     3      -9.199  15.843  66.123  1.00  0.00    -0.299 OA 
HETATM   29  C   UNL     3      -9.131  17.169  66.492  1.00  0.00    -0.269 C  
HETATM   30  O   UNL     3     -11.834  15.911  68.319  1.00  0.00    -0.277 OA 
HETATM   31  H   UNL     3     -11.146  18.807  68.661  1.00  0.00     0.000 HD 
ENDBRANCH  20  23
ENDBRANCH   7  20
TORSDOF 4
ENDMDL
MODEL      314
REMARK 921   NORMALIZED FREE ENERGY PREDICTED BY IDOCK:   -3.65 KCAL/MOL
REMARK 922        TOTAL FREE ENERGY PREDICTED BY IDOCK:   -6.43 KCAL/MOL
REMARK 923 INTER-LIGAND FREE ENERGY PREDICTED BY IDOCK:   -5.35 KCAL/MOL
REMARK 924 INTRA-LIGAND FREE ENERGY PREDICTED BY IDOCK:   -1.08 KCAL/MOL
REMARK 927      BINDING AFFINITY PREDICTED BY RF-SCORE:    0.00 PKD
ROOT
HETATM    1 CA   UNL     1      -8.340   9.076  67.494  1.00  0.00    -0.105 Ca 
HETATM    2  O   UNL     2      -9.316   3.130  63.935  1.00  0.00    -0.107 OA 
HETATM    3  C   UNL     2      -9.310   4.186  64.903  1.00  0.00    -0.164 C  
HETATM    4  H   UNL     2      -9.859   2.432  64.281  1.00  0.00     0.000 HD 
HETATM    5  O   UNL     3     -10.949  10.761  63.017  1.00  0.00    -0.601 OA 
HETATM    6  H   UNL     3     -11.080  10.608  62.089  1.00  0.00     0.000 HD 
HETATM    7  C   UNL     3      -9.674  11.455  63.144  1.00  0.00    -0.393 C  
ENDROOT
BRANCH   3   8
HETATM    8  C   UNL     2      -8.446   5.297  64.352  1.00  0.00    -0.126 C  
HETATM    9  H   UNL     2      -7.731   5.779  62.588  1.00  0.00     0.000 HD 
HETATM   10  O   UNL     2      -8.275   5.081  62.934  1.00  0.00    -0.089 OA 
BRANCH   8  11
HETATM   11  C   UNL     2      -7.048   5.446  64.989  1.00  0.00    -0.065 C  
HETATM   12  C   UNL     2      -6.822   6.425  66.113  1.00  0.00    -0.057 C  
HETATM   13  O   UNL     2      -6.302   6.116  63.965  1.00  0.00    -0.029 OA 
HETATM   14  O   UNL     2      -6.664   8.274  63.222  1.00  0.00    -0.083 OA 
HETATM   15  H   UNL     2      -6.729   8.993  67.114  1.00  0.00     0.000 HD 
HETATM   16  O   UNL     2      -6.515   5.971  67.249  1.00  0.00    -0.043 OA 
HETATM   17  C   UNL     2      -6.664   7.427  64.087  1.00  0.00    -0.048 C  
HETATM   18  C   UNL     2      -6.834   7.656  65.548  1.00  0.00    -0.049 C  
HETATM   19  O   UNL     2      -6.621   8.846  66.182  1.00  0.00    -0.064 OA 
ENDBRANCH   8  11
ENDBRANCH   3   8
BRANCH   7  20
HETATM   20  C   UNL     3      -9.461  11.702  64.642  1.00  0.00    -0.046 C  
HETATM   21  O   UNL     3      -9.325  10.460  65.329  1.00  0.00    -0.182 OA 
HETATM   22  H   UNL     3      -9.193  10.613  66.257  1.00  0.00     0.000 HD 
BRANCH  20  23
HETATM   23  C   UNL     3     -10.320  12.732  65.427  1.00  0.00    -0.293 C  
HETATM   24  O   UNL     3     -12.083  15.373  64.044  1.00  0.00    -0.574 OA 
HETATM   25  C   UNL     3     -12.530  13.369  65.273  1.00  0.00    -0.483 C  
HETATM   26  C   UNL     3     -11.718  12.512  65.904  1.00  0.00    -0.426 C  
HETATM   27  O   UNL     3     -13.881  13.523  65.481  1.00  0.00     0.098 OA 
HETATM   28  O   UNL     3     -10.374  14.010  64.771  1.00  0.00    -0.423 OA 
HETATM   29  C   UNL     3     -11.695  14.337  64.557  1.00  0.00    -0.418 C  
HETATM   30  O   UNL     3     -11.829  11.705  66.855  1.00  0.00    -0.577 OA 
HETATM   31  H   UNL     3     -14.423  12.895  65.945  1.00  0.00     0.000 HD 
ENDBRANCH  20  23
ENDBRANCH   7  20
TORSDOF 4
ENDMDL
MODEL      315
REMARK 921   NORMALIZED FREE ENERGY PREDICTED BY IDOCK:   -3.65 KCAL/MOL
REMARK 922        TOTAL FREE ENERGY PREDICTED BY IDOCK:   -6.43 KCAL/MOL
REMARK 923 INTER-LIGAND FREE ENERGY PREDICTED BY IDOCK:   -6.30 KCAL/MOL
REMARK 924 INTRA-LIGAND FREE ENERGY PREDICTED BY IDOCK:   -0.12 KCAL/MOL
REMARK 927      BINDING AFFINITY PREDICTED BY RF-SCORE:    0.00 PKD
ROOT
HETATM    1 CA   UNL     1     -10.310  15.820  64.712  1.00  0.00    -0.334 Ca 
HETATM    2  O   UNL     2     -10.322  20.327  70.065  1.00  0.00    -0.597 OA 
HETATM    3  C   UNL     2     -10.656  19.490  68.952  1.00  0.00     0.257 C  
HETATM    4  H   UNL     2     -11.122  20.753  70.349  1.00  0.00     0.000 HD 
HETATM    5  O   UNL     3      -8.841  12.695  68.926  1.00  0.00    -0.368 OA 
HETATM    6  H   UNL     3      -8.379  12.674  69.756  1.00  0.00     0.000 HD 
HETATM    7  C   UNL     3      -7.823  12.642  67.886  1.00  0.00    -0.154 C  
ENDROOT
BRANCH   3   8
HETATM    8  C   UNL     2      -9.383  18.813  68.500  1.00  0.00    -0.350 C  
HETATM    9  H   UNL     2      -8.440  17.149  68.946  1.00  0.00     0.000 HD 
HETATM   10  O   UNL     2      -9.240  17.575  69.230  1.00  0.00    -0.019 OA 
BRANCH   8  11
HETATM   11  C   UNL     2      -8.083  19.627  68.675  1.00  0.00    -0.289 C  
HETATM   12  C   UNL     2      -7.311  20.102  67.469  1.00  0.00    -0.290 C  
HETATM   13  O   UNL     2      -7.155  18.647  69.153  1.00  0.00    -0.285 OA 
HETATM   14  O   UNL     2      -6.365  16.836  67.954  1.00  0.00    -0.129 OA 
HETATM   15  H   UNL     2      -5.822  19.625  65.198  1.00  0.00     0.000 HD 
HETATM   16  O   UNL     2      -7.228  21.344  67.264  1.00  0.00    -0.538 OA 
HETATM   17  C   UNL     2      -6.763  17.977  68.030  1.00  0.00    -0.197 C  
HETATM   18  C   UNL     2      -6.704  19.006  66.955  1.00  0.00    -0.197 C  
HETATM   19  O   UNL     2      -5.860  18.969  65.884  1.00  0.00    -0.150 OA 
ENDBRANCH   8  11
ENDBRANCH   3   8
BRANCH   7  20
HETATM   20  C   UNL     3      -8.568  12.676  66.547  1.00  0.00     0.060 C  
HETATM   21  O   UNL     3      -9.306  13.890  66.427  1.00  0.00    -0.368 OA 
HETATM   22  H   UNL     3      -9.767  13.911  65.597  1.00  0.00     0.000 HD 
BRANCH  20  23
HETATM   23  C   UNL     3      -9.352  11.442  66.020  1.00  0.00    -0.217 C  
HETATM   24  O   UNL     3     -11.879  11.507  63.651  1.00  0.00    -0.354 OA 
HETATM   25  C   UNL     3      -9.686  10.585  63.907  1.00  0.00    -0.325 C  
HETATM   26  C   UNL     3      -8.876  10.495  64.969  1.00  0.00    -0.191 C  
HETATM   27  O   UNL     3      -9.618   9.830  62.758  1.00  0.00    -0.540 OA 
HETATM   28  O   UNL     3     -10.685  11.781  65.604  1.00  0.00    -0.265 OA 
HETATM   29  C   UNL     3     -10.848  11.387  64.294  1.00  0.00    -0.349 C  
HETATM   30  O   UNL     3      -7.942   9.740  65.325  1.00  0.00    -0.114 OA 
HETATM   31  H   UNL     3      -8.864   9.309  62.508  1.00  0.00     0.000 HD 
ENDBRANCH  20  23
ENDBRANCH   7  20
TORSDOF 4
ENDMDL
MODEL      316
REMARK 921   NORMALIZED FREE ENERGY PREDICTED BY IDOCK:   -3.63 KCAL/MOL
REMARK 922        TOTAL FREE ENERGY PREDICTED BY IDOCK:   -6.41 KCAL/MOL
REMARK 923 INTER-LIGAND FREE ENERGY PREDICTED BY IDOCK:   -6.84 KCAL/MOL
REMARK 924 INTRA-LIGAND FREE ENERGY PREDICTED BY IDOCK:    0.44 KCAL/MOL
REMARK 927      BINDING AFFINITY PREDICTED BY RF-SCORE:    0.00 PKD
ROOT
HETATM    1 CA   UNL     1     -12.529  12.811  67.620  1.00  0.00    -0.318 Ca 
HETATM    2  O   UNL     2     -12.840   8.432  73.069  1.00  0.00    -0.706 OA 
HETATM    3  C   UNL     2     -13.115   9.256  71.930  1.00  0.00    -0.415 C  
HETATM    4  H   UNL     2     -13.647   7.986  73.298  1.00  0.00     0.000 HD 
HETATM    5  O   UNL     3      -9.119   8.821  66.159  1.00  0.00    -0.174 OA 
HETATM    6  H   UNL     3      -8.497   8.175  66.472  1.00  0.00     0.000 HD 
HETATM    7  C   UNL     3      -8.421  10.099  66.158  1.00  0.00    -0.130 C  
ENDROOT
BRANCH   3   8
HETATM    8  C   UNL     2     -11.831   9.965  71.566  1.00  0.00    -0.365 C  
HETATM    9  H   UNL     2     -11.082  10.772  69.940  1.00  0.00     0.000 HD 
HETATM   10  O   UNL     2     -11.890  10.327  70.169  1.00  0.00    -0.264 OA 
BRANCH   8  11
HETATM   11  C   UNL     2     -10.529   9.172  71.803  1.00  0.00    -0.291 C  
HETATM   12  C   UNL     2      -9.486   9.074  70.718  1.00  0.00    -0.251 C  
HETATM   13  O   UNL     2     -10.977   7.812  71.796  1.00  0.00    -0.230 OA 
HETATM   14  O   UNL     2     -11.835   6.682  69.972  1.00  0.00    -0.372 OA 
HETATM   15  H   UNL     2      -8.649   8.250  68.224  1.00  0.00     0.000 HD 
HETATM   16  O   UNL     2      -8.363   9.612  70.918  1.00  0.00    -0.272 OA 
HETATM   17  C   UNL     2     -11.101   7.505  70.471  1.00  0.00    -0.259 C  
HETATM   18  C   UNL     2      -9.985   8.220  69.793  1.00  0.00    -0.191 C  
HETATM   19  O   UNL     2      -9.361   7.795  68.656  1.00  0.00    -0.148 OA 
ENDBRANCH   8  11
ENDBRANCH   3   8
BRANCH   7  20
HETATM   20  C   UNL     3      -9.425  11.142  65.653  1.00  0.00    -0.224 C  
HETATM   21  O   UNL     3      -9.129  11.492  64.302  1.00  0.00    -0.409 OA 
HETATM   22  H   UNL     3      -9.751  12.138  63.989  1.00  0.00     0.000 HD 
BRANCH  20  23
HETATM   23  C   UNL     3      -9.830  12.368  66.517  1.00  0.00    -0.235 C  
HETATM   24  O   UNL     3      -7.717  14.179  68.579  1.00  0.00    -0.126 OA 
HETATM   25  C   UNL     3      -9.049  14.534  66.623  1.00  0.00    -0.251 C  
HETATM   26  C   UNL     3      -9.970  13.770  66.023  1.00  0.00    -0.306 C  
HETATM   27  O   UNL     3      -8.893  15.894  66.482  1.00  0.00    -0.246 OA 
HETATM   28  O   UNL     3      -9.018  12.495  67.696  1.00  0.00    -0.168 OA 
HETATM   29  C   UNL     3      -8.442  13.747  67.699  1.00  0.00    -0.183 C  
HETATM   30  O   UNL     3     -10.961  13.971  65.285  1.00  0.00    -0.307 OA 
HETATM   31  H   UNL     3      -9.287  16.405  65.784  1.00  0.00     0.000 HD 
ENDBRANCH  20  23
ENDBRANCH   7  20
TORSDOF 4
ENDMDL
MODEL      317
REMARK 921   NORMALIZED FREE ENERGY PREDICTED BY IDOCK:   -3.61 KCAL/MOL
REMARK 922        TOTAL FREE ENERGY PREDICTED BY IDOCK:   -6.38 KCAL/MOL
REMARK 923 INTER-LIGAND FREE ENERGY PREDICTED BY IDOCK:   -5.30 KCAL/MOL
REMARK 924 INTRA-LIGAND FREE ENERGY PREDICTED BY IDOCK:   -1.08 KCAL/MOL
REMARK 927      BINDING AFFINITY PREDICTED BY RF-SCORE:    0.00 PKD
ROOT
HETATM    1 CA   UNL     1      -7.520   7.661  67.794  1.00  0.00    -0.083 Ca 
HETATM    2  O   UNL     2     -10.115   4.947  73.699  1.00  0.00    -0.151 OA 
HETATM    3  C   UNL     2      -9.280   5.453  72.651  1.00  0.00    -0.137 C  
HETATM    4  H   UNL     2      -9.548   4.712  74.425  1.00  0.00     0.000 HD 
HETATM    5  O   UNL     3     -10.615  11.708  69.725  1.00  0.00    -0.421 OA 
HETATM    6  H   UNL     3     -11.402  11.921  70.213  1.00  0.00     0.000 HD 
HETATM    7  C   UNL     3     -11.048  11.344  68.383  1.00  0.00    -0.242 C  
ENDROOT
BRANCH   3   8
HETATM    8  C   UNL     2     -10.182   5.827  71.498  1.00  0.00    -0.203 C  
HETATM    9  H   UNL     2     -12.065   6.349  71.297  1.00  0.00     0.000 HD 
HETATM   10  O   UNL     2     -11.498   6.114  72.022  1.00  0.00    -0.290 OA 
BRANCH   8  11
HETATM   11  C   UNL     2     -10.327   4.773  70.381  1.00  0.00    -0.113 C  
HETATM   12  C   UNL     2      -9.124   4.330  69.587  1.00  0.00    -0.115 C  
HETATM   13  O   UNL     2     -11.013   5.493  69.350  1.00  0.00    -0.271 OA 
HETATM   14  O   UNL     2     -10.158   7.271  68.147  1.00  0.00    -0.160 OA 
HETATM   15  H   UNL     2      -7.065   4.824  67.822  1.00  0.00     0.000 HD 
HETATM   16  O   UNL     2      -8.743   3.132  69.697  1.00  0.00    -0.062 OA 
HETATM   17  C   UNL     2     -10.033   6.223  68.741  1.00  0.00    -0.149 C  
HETATM   18  C   UNL     2      -8.825   5.354  68.753  1.00  0.00    -0.103 C  
HETATM   19  O   UNL     2      -7.835   5.378  67.814  1.00  0.00    -0.095 OA 
ENDBRANCH   8  11
ENDBRANCH   3   8
BRANCH   7  20
HETATM   20  C   UNL     3      -9.779  11.000  67.595  1.00  0.00    -0.168 C  
HETATM   21  O   UNL     3      -8.668  10.881  68.483  1.00  0.00    -0.139 OA 
HETATM   22  H   UNL     3      -7.882  10.667  67.995  1.00  0.00     0.000 HD 
BRANCH  20  23
HETATM   23  C   UNL     3      -9.416  11.733  66.275  1.00  0.00    -0.224 C  
HETATM   24  O   UNL     3     -10.621  10.947  63.123  1.00  0.00    -0.191 OA 
HETATM   25  C   UNL     3     -10.690  12.778  64.663  1.00  0.00    -0.337 C  
HETATM   26  C   UNL     3     -10.019  13.013  65.798  1.00  0.00    -0.254 C  
HETATM   27  O   UNL     3     -11.333  13.711  63.882  1.00  0.00    -0.584 OA 
HETATM   28  O   UNL     3      -9.492  10.866  65.131  1.00  0.00    -0.204 OA 
HETATM   29  C   UNL     3     -10.358  11.423  64.215  1.00  0.00    -0.328 C  
HETATM   30  O   UNL     3      -9.681  14.029  66.447  1.00  0.00    -0.279 OA 
HETATM   31  H   UNL     3     -11.548  14.590  64.173  1.00  0.00     0.000 HD 
ENDBRANCH  20  23
ENDBRANCH   7  20
TORSDOF 4
ENDMDL
MODEL      318
REMARK 921   NORMALIZED FREE ENERGY PREDICTED BY IDOCK:   -3.61 KCAL/MOL
REMARK 922        TOTAL FREE ENERGY PREDICTED BY IDOCK:   -6.38 KCAL/MOL
REMARK 923 INTER-LIGAND FREE ENERGY PREDICTED BY IDOCK:   -5.45 KCAL/MOL
REMARK 924 INTRA-LIGAND FREE ENERGY PREDICTED BY IDOCK:   -0.93 KCAL/MOL
REMARK 927      BINDING AFFINITY PREDICTED BY RF-SCORE:    0.00 PKD
ROOT
HETATM    1 CA   UNL     1     -11.882   5.894  67.326  1.00  0.00    -0.434 Ca 
HETATM    2  O   UNL     2     -11.982  11.849  71.001  1.00  0.00    -0.348 OA 
HETATM    3  C   UNL     2     -12.283  10.595  70.377  1.00  0.00    -0.345 C  
HETATM    4  H   UNL     2     -12.729  12.084  71.539  1.00  0.00     0.000 HD 
HETATM    5  O   UNL     3      -7.799   5.199  70.866  1.00  0.00    -0.091 OA 
HETATM    6  H   UNL     3      -7.115   5.634  71.361  1.00  0.00     0.000 HD 
HETATM    7  C   UNL     3      -7.305   5.072  69.502  1.00  0.00    -0.057 C  
ENDROOT
BRANCH   3   8
HETATM    8  C   UNL     2     -11.095  10.222  69.521  1.00  0.00    -0.262 C  
HETATM    9  H   UNL     2     -10.582  10.469  67.641  1.00  0.00     0.000 HD 
HETATM   10  O   UNL     2     -11.329  10.704  68.179  1.00  0.00    -0.293 OA 
BRANCH   8  11
HETATM   11  C   UNL     2     -10.763   8.717  69.440  1.00  0.00    -0.158 C  
HETATM   12  C   UNL     2     -11.090   7.800  70.592  1.00  0.00    -0.256 C  
HETATM   13  O   UNL     2      -9.335   8.699  69.547  1.00  0.00    -0.152 OA 
HETATM   14  O   UNL     2      -8.112   9.303  71.412  1.00  0.00    -0.330 OA 
HETATM   15  H   UNL     2     -10.761   6.968  73.200  1.00  0.00     0.000 HD 
HETATM   16  O   UNL     2     -11.954   6.899  70.413  1.00  0.00    -0.335 OA 
HETATM   17  C   UNL     2      -9.096   8.834  70.885  1.00  0.00    -0.208 C  
HETATM   18  C   UNL     2     -10.184   8.075  71.561  1.00  0.00    -0.194 C  
HETATM   19  O   UNL     2     -10.067   7.452  72.769  1.00  0.00    -0.189 OA 
ENDBRANCH   8  11
ENDBRANCH   3   8
BRANCH   7  20
HETATM   20  C   UNL     3      -8.408   4.369  68.704  1.00  0.00    -0.084 C  
HETATM   21  O   UNL     3      -8.601   3.044  69.196  1.00  0.00    -0.064 OA 
HETATM   22  H   UNL     3      -9.285   2.609  68.702  1.00  0.00     0.000 HD 
BRANCH  20  23
HETATM   23  C   UNL     3      -8.467   4.448  67.153  1.00  0.00    -0.104 C  
HETATM   24  O   UNL     3      -9.479   1.902  65.032  1.00  0.00    -0.098 OA 
HETATM   25  C   UNL     3     -10.167   4.114  65.632  1.00  0.00    -0.139 C  
HETATM   26  C   UNL     3      -9.567   5.067  66.356  1.00  0.00    -0.164 C  
HETATM   27  O   UNL     3     -11.185   4.293  64.724  1.00  0.00    -0.838 OA 
HETATM   28  O   UNL     3      -8.271   3.165  66.535  1.00  0.00    -0.087 OA 
HETATM   29  C   UNL     3      -9.351   2.901  65.721  1.00  0.00    -0.059 C  
HETATM   30  O   UNL     3      -9.620   6.317  66.415  1.00  0.00    -0.162 OA 
HETATM   31  H   UNL     3     -11.714   5.081  64.666  1.00  0.00     0.000 HD 
ENDBRANCH  20  23
ENDBRANCH   7  20
TORSDOF 4
ENDMDL
MODEL      319
REMARK 921   NORMALIZED FREE ENERGY PREDICTED BY IDOCK:   -3.61 KCAL/MOL
REMARK 922        TOTAL FREE ENERGY PREDICTED BY IDOCK:   -6.38 KCAL/MOL
REMARK 923 INTER-LIGAND FREE ENERGY PREDICTED BY IDOCK:   -5.64 KCAL/MOL
REMARK 924 INTRA-LIGAND FREE ENERGY PREDICTED BY IDOCK:   -0.73 KCAL/MOL
REMARK 927      BINDING AFFINITY PREDICTED BY RF-SCORE:    0.00 PKD
ROOT
HETATM    1 CA   UNL     1      -9.985   9.336  64.334  1.00  0.00    -0.410 Ca 
HETATM    2  O   UNL     2     -12.158  15.985  64.122  1.00  0.00    -0.853 OA 
HETATM    3  C   UNL     2     -11.967  14.578  63.933  1.00  0.00    -0.059 C  
HETATM    4  H   UNL     2     -12.903  16.243  63.592  1.00  0.00     0.000 HD 
HETATM    5  O   UNL     3     -11.562  10.256  69.467  1.00  0.00    -0.345 OA 
HETATM    6  H   UNL     3     -11.633  10.907  70.155  1.00  0.00     0.000 HD 
HETATM    7  C   UNL     3     -10.168   9.836  69.440  1.00  0.00    -0.210 C  
ENDROOT
BRANCH   3   8
HETATM    8  C   UNL     2     -10.783  14.167  64.776  1.00  0.00    -0.419 C  
HETATM    9  H   UNL     2      -9.974  12.465  65.332  1.00  0.00     0.000 HD 
HETATM   10  O   UNL     2     -10.719  12.723  64.801  1.00  0.00    -0.289 OA 
BRANCH   8  11
HETATM   11  C   UNL     2     -10.779  14.674  66.234  1.00  0.00    -0.316 C  
HETATM   12  C   UNL     2      -9.814  15.750  66.666  1.00  0.00    -0.252 C  
HETATM   13  O   UNL     2     -10.211  13.573  66.953  1.00  0.00    -0.250 OA 
HETATM   14  O   UNL     2      -8.038  12.812  66.763  1.00  0.00    -0.047 OA 
HETATM   15  H   UNL     2      -7.259  16.676  67.126  1.00  0.00     0.000 HD 
HETATM   16  O   UNL     2     -10.284  16.865  67.022  1.00  0.00    -0.286 OA 
HETATM   17  C   UNL     2      -8.867  13.694  66.748  1.00  0.00    -0.133 C  
HETATM   18  C   UNL     2      -8.598  15.159  66.736  1.00  0.00    -0.262 C  
HETATM   19  O   UNL     2      -7.430  15.742  67.134  1.00  0.00    -0.193 OA 
ENDBRANCH   8  11
ENDBRANCH   3   8
BRANCH   7  20
HETATM   20  C   UNL     3     -10.052   8.784  68.331  1.00  0.00    -0.190 C  
HETATM   21  O   UNL     3     -10.836   7.638  68.659  1.00  0.00    -0.393 OA 
HETATM   22  H   UNL     3     -10.764   6.986  67.972  1.00  0.00     0.000 HD 
BRANCH  20  23
HETATM   23  C   UNL     3      -8.681   8.414  67.700  1.00  0.00    -0.137 C  
HETATM   24  O   UNL     3      -7.471   9.566  64.665  1.00  0.00    -0.104 OA 
HETATM   25  C   UNL     3      -6.894   9.681  66.985  1.00  0.00    -0.084 C  
HETATM   26  C   UNL     3      -7.368   9.029  68.054  1.00  0.00    -0.084 C  
HETATM   27  O   UNL     3      -5.682  10.326  66.889  1.00  0.00    -0.045 OA 
HETATM   28  O   UNL     3      -8.712   8.463  66.263  1.00  0.00    -0.126 OA 
HETATM   29  C   UNL     3      -7.726   9.324  65.834  1.00  0.00    -0.098 C  
HETATM   30  O   UNL     3      -6.926   8.713  69.182  1.00  0.00    -0.060 OA 
HETATM   31  H   UNL     3      -5.142  10.557  67.636  1.00  0.00     0.000 HD 
ENDBRANCH  20  23
ENDBRANCH   7  20
TORSDOF 4
ENDMDL
MODEL      320
REMARK 921   NORMALIZED FREE ENERGY PREDICTED BY IDOCK:   -3.61 KCAL/MOL
REMARK 922        TOTAL FREE ENERGY PREDICTED BY IDOCK:   -6.37 KCAL/MOL
REMARK 923 INTER-LIGAND FREE ENERGY PREDICTED BY IDOCK:   -4.80 KCAL/MOL
REMARK 924 INTRA-LIGAND FREE ENERGY PREDICTED BY IDOCK:   -1.57 KCAL/MOL
REMARK 927      BINDING AFFINITY PREDICTED BY RF-SCORE:    0.00 PKD
ROOT
HETATM    1 CA   UNL     1     -11.185   9.500  70.122  1.00  0.00    -0.207 Ca 
HETATM    2  O   UNL     2      -6.495  10.595  65.045  1.00  0.00    -0.316 OA 
HETATM    3  C   UNL     2      -7.520  10.709  66.038  1.00  0.00    -0.137 C  
HETATM    4  H   UNL     2      -6.359  11.460  64.677  1.00  0.00     0.000 HD 
HETATM    5  O   UNL     3      -6.463   8.287  72.556  1.00  0.00    -0.074 OA 
HETATM    6  H   UNL     3      -5.591   7.932  72.430  1.00  0.00     0.000 HD 
HETATM    7  C   UNL     3      -7.367   7.146  72.621  1.00  0.00    -0.076 C  
ENDROOT
BRANCH   3   8
HETATM    8  C   UNL     2      -7.735   9.333  66.623  1.00  0.00    -0.093 C  
HETATM    9  H   UNL     2      -8.449   7.622  65.972  1.00  0.00     0.000 HD 
HETATM   10  O   UNL     2      -8.313   8.488  65.604  1.00  0.00    -0.130 OA 
BRANCH   8  11
HETATM   11  C   UNL     2      -8.636   9.261  67.875  1.00  0.00    -0.120 C  
HETATM   12  C   UNL     2      -8.472  10.261  68.992  1.00  0.00    -0.150 C  
HETATM   13  O   UNL     2      -8.147   8.098  68.552  1.00  0.00    -0.120 OA 
HETATM   14  O   UNL     2      -6.060   7.873  69.518  1.00  0.00    -0.032 OA 
HETATM   15  H   UNL     2      -7.009  11.405  71.030  1.00  0.00     0.000 HD 
HETATM   16  O   UNL     2      -9.419  11.061  69.222  1.00  0.00    -0.105 OA 
HETATM   17  C   UNL     2      -7.025   8.530  69.199  1.00  0.00    -0.063 C  
HETATM   18  C   UNL     2      -7.332   9.919  69.638  1.00  0.00    -0.115 C  
HETATM   19  O   UNL     2      -6.813  10.520  70.749  1.00  0.00    -0.317 OA 
ENDBRANCH   8  11
ENDBRANCH   3   8
BRANCH   7  20
HETATM   20  C   UNL     3      -8.774   7.718  72.825  1.00  0.00    -0.156 C  
HETATM   21  O   UNL     3      -8.841   8.426  74.062  1.00  0.00    -0.260 OA 
HETATM   22  H   UNL     3      -9.714   8.780  74.188  1.00  0.00     0.000 HD 
BRANCH  20  23
HETATM   23  C   UNL     3     -10.046   6.869  72.549  1.00  0.00    -0.172 C  
HETATM   24  O   UNL     3     -13.218   8.114  71.925  1.00  0.00    -0.328 OA 
HETATM   25  C   UNL     3     -11.547   6.821  70.801  1.00  0.00    -0.366 C  
HETATM   26  C   UNL     3     -10.414   6.257  71.238  1.00  0.00    -0.218 C  
HETATM   27  O   UNL     3     -12.243   6.486  69.662  1.00  0.00    -0.424 OA 
HETATM   28  O   UNL     3     -11.248   7.535  72.971  1.00  0.00    -0.361 OA 
HETATM   29  C   UNL     3     -12.100   7.626  71.892  1.00  0.00    -0.298 C  
HETATM   30  O   UNL     3      -9.700   5.289  70.890  1.00  0.00    -0.166 OA 
HETATM   31  H   UNL     3     -11.884   5.963  68.954  1.00  0.00     0.000 HD 
ENDBRANCH  20  23
ENDBRANCH   7  20
TORSDOF 4
ENDMDL
MODEL      321
REMARK 921   NORMALIZED FREE ENERGY PREDICTED BY IDOCK:   -3.55 KCAL/MOL
REMARK 922        TOTAL FREE ENERGY PREDICTED BY IDOCK:   -6.31 KCAL/MOL
REMARK 923 INTER-LIGAND FREE ENERGY PREDICTED BY IDOCK:   -5.23 KCAL/MOL
REMARK 924 INTRA-LIGAND FREE ENERGY PREDICTED BY IDOCK:   -1.08 KCAL/MOL
REMARK 927      BINDING AFFINITY PREDICTED BY RF-SCORE:    0.00 PKD
ROOT
HETATM    1 CA   UNL     1     -10.661   8.844  66.945  1.00  0.00    -0.226 Ca 
HETATM    2  O   UNL     2      -8.156  15.091  68.862  1.00  0.00    -0.154 OA 
HETATM    3  C   UNL     2      -8.976  13.971  68.506  1.00  0.00    -0.160 C  
HETATM    4  H   UNL     2      -8.738  15.806  69.092  1.00  0.00     0.000 HD 
HETATM    5  O   UNL     3      -7.988   7.711  71.556  1.00  0.00    -0.091 OA 
HETATM    6  H   UNL     3      -7.246   7.941  72.101  1.00  0.00     0.000 HD 
HETATM    7  C   UNL     3      -7.463   6.905  70.463  1.00  0.00    -0.086 C  
ENDROOT
BRANCH   3   8
HETATM    8  C   UNL     2      -8.050  12.834  68.141  1.00  0.00    -0.158 C  
HETATM    9  H   UNL     2      -6.277  12.674  67.310  1.00  0.00     0.000 HD 
HETATM   10  O   UNL     2      -6.859  13.389  67.540  1.00  0.00    -0.160 OA 
BRANCH   8  11
HETATM   11  C   UNL     2      -8.626  11.774  67.179  1.00  0.00    -0.168 C  
HETATM   12  C   UNL     2     -10.091  11.780  66.823  1.00  0.00    -0.209 C  
HETATM   13  O   UNL     2      -8.600  10.579  67.968  1.00  0.00    -0.118 OA 
HETATM   14  O   UNL     2      -9.875  10.178  69.853  1.00  0.00    -0.233 OA 
HETATM   15  H   UNL     2     -12.753  11.529  67.495  1.00  0.00     0.000 HD 
HETATM   16  O   UNL     2     -10.415  12.019  65.628  1.00  0.00    -0.240 OA 
HETATM   17  C   UNL     2      -9.706  10.677  68.763  1.00  0.00    -0.189 C  
HETATM   18  C   UNL     2     -10.746  11.324  67.917  1.00  0.00    -0.207 C  
HETATM   19  O   UNL     2     -12.090  11.117  68.035  1.00  0.00    -0.635 OA 
ENDBRANCH   8  11
ENDBRANCH   3   8
BRANCH   7  20
HETATM   20  C   UNL     3      -8.662   6.534  69.582  1.00  0.00    -0.139 C  
HETATM   21  O   UNL     3      -9.103   7.675  68.849  1.00  0.00    -0.141 OA 
HETATM   22  H   UNL     3      -9.845   7.445  68.303  1.00  0.00     0.000 HD 
BRANCH  20  23
HETATM   23  C   UNL     3      -9.839   5.678  70.127  1.00  0.00    -0.190 C  
HETATM   24  O   UNL     3     -10.570   5.134  73.469  1.00  0.00    -0.209 OA 
HETATM   25  C   UNL     3     -11.586   6.148  71.555  1.00  0.00    -0.241 C  
HETATM   26  C   UNL     3     -11.255   6.132  70.258  1.00  0.00    -0.369 C  
HETATM   27  O   UNL     3     -12.821   6.450  72.082  1.00  0.00    -0.521 OA 
HETATM   28  O   UNL     3      -9.541   5.096  71.407  1.00  0.00    -0.150 OA 
HETATM   29  C   UNL     3     -10.516   5.482  72.301  1.00  0.00    -0.217 C  
HETATM   30  O   UNL     3     -11.866   6.269  69.173  1.00  0.00    -0.016 OA 
HETATM   31  H   UNL     3     -13.515   6.882  71.598  1.00  0.00     0.000 HD 
ENDBRANCH  20  23
ENDBRANCH   7  20
TORSDOF 4
ENDMDL
MODEL      322
REMARK 921   NORMALIZED FREE ENERGY PREDICTED BY IDOCK:   -3.55 KCAL/MOL
REMARK 922        TOTAL FREE ENERGY PREDICTED BY IDOCK:   -6.30 KCAL/MOL
REMARK 923 INTER-LIGAND FREE ENERGY PREDICTED BY IDOCK:   -5.08 KCAL/MOL
REMARK 924 INTRA-LIGAND FREE ENERGY PREDICTED BY IDOCK:   -1.23 KCAL/MOL
REMARK 927      BINDING AFFINITY PREDICTED BY RF-SCORE:    0.00 PKD
ROOT
HETATM    1 CA   UNL     1      -6.442  11.935  70.585  1.00  0.00    -0.176 Ca 
HETATM    2  O   UNL     2      -8.674  16.638  65.909  1.00  0.00    -0.483 OA 
HETATM    3  C   UNL     2      -7.928  15.684  66.673  1.00  0.00    -0.150 C  
HETATM    4  H   UNL     2      -8.134  16.895  65.171  1.00  0.00     0.000 HD 
HETATM    5  O   UNL     3     -10.747   9.460  68.343  1.00  0.00    -0.305 OA 
HETATM    6  H   UNL     3     -11.604   9.590  67.954  1.00  0.00     0.000 HD 
HETATM    7  C   UNL     3     -10.928   9.570  69.784  1.00  0.00    -0.223 C  
ENDROOT
BRANCH   3   8
HETATM    8  C   UNL     2      -8.788  15.276  67.847  1.00  0.00    -0.165 C  
HETATM    9  H   UNL     2      -8.925  15.791  69.737  1.00  0.00     0.000 HD 
HETATM   10  O   UNL     2      -8.384  16.048  68.999  1.00  0.00    -0.217 OA 
BRANCH   8  11
HETATM   11  C   UNL     2      -8.748  13.782  68.230  1.00  0.00    -0.179 C  
HETATM   12  C   UNL     2      -8.873  12.717  67.169  1.00  0.00    -0.202 C  
HETATM   13  O   UNL     2     -10.007  13.586  68.883  1.00  0.00    -0.126 OA 
HETATM   14  O   UNL     2     -12.084  13.710  67.878  1.00  0.00    -0.357 OA 
HETATM   15  H   UNL     2     -10.294  11.405  65.204  1.00  0.00     0.000 HD 
HETATM   16  O   UNL     2      -7.884  11.965  66.957  1.00  0.00    -0.158 OA 
HETATM   17  C   UNL     2     -10.901  13.454  67.859  1.00  0.00    -0.247 C  
HETATM   18  C   UNL     2     -10.174  12.714  66.791  1.00  0.00    -0.237 C  
HETATM   19  O   UNL     2     -10.757  11.877  65.885  1.00  0.00    -0.265 OA 
ENDBRANCH   8  11
ENDBRANCH   3   8
BRANCH   7  20
HETATM   20  C   UNL     3      -9.546   9.361  70.412  1.00  0.00    -0.266 C  
HETATM   21  O   UNL     3      -8.702  10.474  70.122  1.00  0.00    -0.257 OA 
HETATM   22  H   UNL     3      -7.846  10.345  70.512  1.00  0.00     0.000 HD 
BRANCH  20  23
HETATM   23  C   UNL     3      -8.802   8.001  70.310  1.00  0.00    -0.145 C  
HETATM   24  O   UNL     3      -7.911   5.973  72.974  1.00  0.00    -0.108 OA 
HETATM   25  C   UNL     3      -9.317   5.876  71.040  1.00  0.00    -0.161 C  
HETATM   26  C   UNL     3      -9.434   6.688  69.982  1.00  0.00    -0.157 C  
HETATM   27  O   UNL     3      -9.718   4.562  71.112  1.00  0.00    -0.162 OA 
HETATM   28  O   UNL     3      -8.011   7.723  71.478  1.00  0.00    -0.087 OA 
HETATM   29  C   UNL     3      -8.406   6.509  71.996  1.00  0.00    -0.107 C  
HETATM   30  O   UNL     3      -9.807   6.566  68.793  1.00  0.00    -0.137 OA 
HETATM   31  H   UNL     3     -10.309   4.151  70.492  1.00  0.00     0.000 HD 
ENDBRANCH  20  23
ENDBRANCH   7  20
TORSDOF 4
ENDMDL
MODEL      323
REMARK 921   NORMALIZED FREE ENERGY PREDICTED BY IDOCK:   -3.54 KCAL/MOL
REMARK 922        TOTAL FREE ENERGY PREDICTED BY IDOCK:   -6.30 KCAL/MOL
REMARK 923 INTER-LIGAND FREE ENERGY PREDICTED BY IDOCK:   -5.52 KCAL/MOL
REMARK 924 INTRA-LIGAND FREE ENERGY PREDICTED BY IDOCK:   -0.78 KCAL/MOL
REMARK 927      BINDING AFFINITY PREDICTED BY RF-SCORE:    0.00 PKD
ROOT
HETATM    1 CA   UNL     1      -7.423  11.139  64.456  1.00  0.00    -0.339 Ca 
HETATM    2  O   UNL     2     -13.544  14.404  65.378  1.00  0.00    -0.526 OA 
HETATM    3  C   UNL     2     -12.346  13.817  64.856  1.00  0.00    -0.405 C  
HETATM    4  H   UNL     2     -14.036  14.746  64.641  1.00  0.00     0.000 HD 
HETATM    5  O   UNL     3     -10.588   7.214  66.523  1.00  0.00    -0.508 OA 
HETATM    6  H   UNL     3     -11.310   7.025  67.111  1.00  0.00     0.000 HD 
HETATM    7  C   UNL     3      -9.412   7.401  67.361  1.00  0.00    -0.141 C  
ENDROOT
BRANCH   3   8
HETATM    8  C   UNL     2     -11.564  13.273  66.028  1.00  0.00    -0.349 C  
HETATM    9  H   UNL     2     -11.834  11.861  67.367  1.00  0.00     0.000 HD 
HETATM   10  O   UNL     2     -12.326  12.203  66.629  1.00  0.00    -0.453 OA 
BRANCH   8  11
HETATM   11  C   UNL     2     -11.205  14.289  67.134  1.00  0.00    -0.322 C  
HETATM   12  C   UNL     2     -10.246  15.418  66.853  1.00  0.00    -0.273 C  
HETATM   13  O   UNL     2     -10.381  13.520  68.018  1.00  0.00    -0.229 OA 
HETATM   14  O   UNL     2      -8.288  12.676  67.522  1.00  0.00    -0.156 OA 
HETATM   15  H   UNL     2      -7.740  16.369  66.208  1.00  0.00     0.000 HD 
HETATM   16  O   UNL     2     -10.685  16.599  66.890  1.00  0.00    -0.266 OA 
HETATM   17  C   UNL     2      -9.156  13.514  67.416  1.00  0.00    -0.219 C  
HETATM   18  C   UNL     2      -9.014  14.858  66.793  1.00  0.00    -0.268 C  
HETATM   19  O   UNL     2      -7.830  15.512  66.605  1.00  0.00    -0.194 OA 
ENDBRANCH   8  11
ENDBRANCH   3   8
BRANCH   7  20
HETATM   20  C   UNL     3      -8.247   7.706  66.413  1.00  0.00    -0.124 C  
HETATM   21  O   UNL     3      -8.743   8.202  65.171  1.00  0.00    -0.328 OA 
HETATM   22  H   UNL     3      -8.021   8.391  64.584  1.00  0.00     0.000 HD 
BRANCH  20  23
HETATM   23  C   UNL     3      -7.062   6.716  66.234  1.00  0.00    -0.067 C  
HETATM   24  O   UNL     3      -7.263   3.263  66.413  1.00  0.00    -0.064 OA 
HETATM   25  C   UNL     3      -6.705   4.944  64.805  1.00  0.00    -0.048 C  
HETATM   26  C   UNL     3      -6.501   6.261  64.928  1.00  0.00    -0.038 C  
HETATM   27  O   UNL     3      -6.280   4.141  63.770  1.00  0.00    -0.018 OA 
HETATM   28  O   UNL     3      -7.254   5.498  66.973  1.00  0.00    -0.075 OA 
HETATM   29  C   UNL     3      -7.171   4.438  66.097  1.00  0.00    -0.076 C  
HETATM   30  O   UNL     3      -5.858   7.133  64.299  1.00  0.00    -0.036 OA 
HETATM   31  H   UNL     3      -5.977   4.470  62.932  1.00  0.00     0.000 HD 
ENDBRANCH  20  23
ENDBRANCH   7  20
TORSDOF 4
ENDMDL
MODEL      324
REMARK 921   NORMALIZED FREE ENERGY PREDICTED BY IDOCK:   -3.54 KCAL/MOL
REMARK 922        TOTAL FREE ENERGY PREDICTED BY IDOCK:   -6.29 KCAL/MOL
REMARK 923 INTER-LIGAND FREE ENERGY PREDICTED BY IDOCK:   -6.51 KCAL/MOL
REMARK 924 INTRA-LIGAND FREE ENERGY PREDICTED BY IDOCK:    0.22 KCAL/MOL
REMARK 927      BINDING AFFINITY PREDICTED BY RF-SCORE:    0.00 PKD
ROOT
HETATM    1 CA   UNL     1     -11.800   8.668  67.118  1.00  0.00    -0.187 Ca 
HETATM    2  O   UNL     2     -12.121  14.778  63.722  1.00  0.00    -0.886 OA 
HETATM    3  C   UNL     2     -12.381  13.609  64.508  1.00  0.00    -0.356 C  
HETATM    4  H   UNL     2     -12.891  15.332  63.775  1.00  0.00     0.000 HD 
HETATM    5  O   UNL     3      -7.849  11.576  69.488  1.00  0.00    -0.349 OA 
HETATM    6  H   UNL     3      -7.190  12.247  69.355  1.00  0.00     0.000 HD 
HETATM    7  C   UNL     3      -7.301  10.346  68.935  1.00  0.00    -0.094 C  
ENDROOT
BRANCH   3   8
HETATM    8  C   UNL     2     -11.155  12.729  64.424  1.00  0.00    -0.349 C  
HETATM    9  H   UNL     2     -10.800  10.853  63.963  1.00  0.00     0.000 HD 
HETATM   10  O   UNL     2     -11.570  11.407  64.015  1.00  0.00    -0.272 OA 
BRANCH   8  11
HETATM   11  C   UNL     2     -10.327  12.595  65.719  1.00  0.00    -0.279 C  
HETATM   12  C   UNL     2     -10.999  12.671  67.067  1.00  0.00    -0.265 C  
HETATM   13  O   UNL     2      -9.606  13.831  65.766  1.00  0.00    -0.196 OA 
HETATM   14  O   UNL     2     -10.534  15.925  66.071  1.00  0.00    -0.316 OA 
HETATM   15  H   UNL     2     -12.411  14.038  69.001  1.00  0.00     0.000 HD 
HETATM   16  O   UNL     2     -10.996  11.641  67.795  1.00  0.00    -0.207 OA 
HETATM   17  C   UNL     2     -10.509  14.729  66.258  1.00  0.00    -0.296 C  
HETATM   18  C   UNL     2     -11.315  13.974  67.256  1.00  0.00    -0.330 C  
HETATM   19  O   UNL     2     -11.897  14.519  68.364  1.00  0.00    -0.323 OA 
ENDBRANCH   8  11
ENDBRANCH   3   8
BRANCH   7  20
HETATM   20  C   UNL     3      -8.363   9.262  69.149  1.00  0.00    -0.127 C  
HETATM   21  O   UNL     3      -9.184   9.145  67.989  1.00  0.00    -0.134 OA 
HETATM   22  H   UNL     3      -9.843   8.473  68.121  1.00  0.00     0.000 HD 
BRANCH  20  23
HETATM   23  C   UNL     3      -9.175   9.167  70.471  1.00  0.00    -0.241 C  
HETATM   24  O   UNL     3     -12.621   8.920  70.719  1.00  0.00    -0.078 OA 
HETATM   25  C   UNL     3     -10.687   7.623  71.272  1.00  0.00    -0.228 C  
HETATM   26  C   UNL     3      -9.383   7.926  71.274  1.00  0.00    -0.146 C  
HETATM   27  O   UNL     3     -11.290   6.588  71.949  1.00  0.00    -0.256 OA 
HETATM   28  O   UNL     3     -10.494   9.723  70.341  1.00  0.00    -0.263 OA 
HETATM   29  C   UNL     3     -11.412   8.758  70.695  1.00  0.00    -0.231 C  
HETATM   30  O   UNL     3      -8.366   7.512  71.877  1.00  0.00    -0.104 OA 
HETATM   31  H   UNL     3     -10.820   5.852  72.323  1.00  0.00     0.000 HD 
ENDBRANCH  20  23
ENDBRANCH   7  20
TORSDOF 4
ENDMDL
MODEL      325
REMARK 921   NORMALIZED FREE ENERGY PREDICTED BY IDOCK:   -3.51 KCAL/MOL
REMARK 922        TOTAL FREE ENERGY PREDICTED BY IDOCK:   -6.25 KCAL/MOL
REMARK 923 INTER-LIGAND FREE ENERGY PREDICTED BY IDOCK:   -5.31 KCAL/MOL
REMARK 924 INTRA-LIGAND FREE ENERGY PREDICTED BY IDOCK:   -0.95 KCAL/MOL
REMARK 927      BINDING AFFINITY PREDICTED BY RF-SCORE:    0.00 PKD
ROOT
HETATM    1 CA   UNL     1     -12.462   9.368  69.828  1.00  0.00    -0.463 Ca 
HETATM    2  O   UNL     2      -9.681  12.384  64.158  1.00  0.00    -0.547 OA 
HETATM    3  C   UNL     2     -10.429  12.064  65.337  1.00  0.00    -0.275 C  
HETATM    4  H   UNL     2      -9.918  13.268  63.903  1.00  0.00     0.000 HD 
HETATM    5  O   UNL     3      -7.172   9.677  71.096  1.00  0.00    -0.328 OA 
HETATM    6  H   UNL     3      -6.287   9.654  70.752  1.00  0.00     0.000 HD 
HETATM    7  C   UNL     3      -7.622   8.294  71.165  1.00  0.00    -0.082 C  
ENDROOT
BRANCH   3   8
HETATM    8  C   UNL     2     -10.051  10.658  65.742  1.00  0.00    -0.266 C  
HETATM    9  H   UNL     2     -10.302   9.538  67.336  1.00  0.00     0.000 HD 
HETATM   10  O   UNL     2     -10.540  10.422  67.081  1.00  0.00    -0.241 OA 
BRANCH   8  11
HETATM   11  C   UNL     2      -8.544  10.327  65.715  1.00  0.00    -0.154 C  
HETATM   12  C   UNL     2      -7.911   9.746  64.476  1.00  0.00    -0.144 C  
HETATM   13  O   UNL     2      -8.455   9.177  66.564  1.00  0.00    -0.119 OA 
HETATM   14  O   UNL     2      -9.355   7.096  66.116  1.00  0.00    -0.142 OA 
HETATM   15  H   UNL     2      -7.623   7.732  62.614  1.00  0.00     0.000 HD 
HETATM   16  O   UNL     2      -7.052  10.436  63.864  1.00  0.00    -0.091 OA 
HETATM   17  C   UNL     2      -8.851   8.140  65.768  1.00  0.00    -0.135 C  
HETATM   18  C   UNL     2      -8.323   8.457  64.412  1.00  0.00    -0.097 C  
HETATM   19  O   UNL     2      -7.960   7.530  63.479  1.00  0.00    -0.128 OA 
ENDBRANCH   8  11
ENDBRANCH   3   8
BRANCH   7  20
HETATM   20  C   UNL     3      -9.051   8.329  71.719  1.00  0.00    -0.193 C  
HETATM   21  O   UNL     3      -9.042   8.796  73.067  1.00  0.00    -0.279 OA 
HETATM   22  H   UNL     3      -9.927   8.818  73.411  1.00  0.00     0.000 HD 
BRANCH  20  23
HETATM   23  C   UNL     3     -10.040   7.151  71.498  1.00  0.00    -0.186 C  
HETATM   24  O   UNL     3     -11.610   6.358  68.514  1.00  0.00    -0.100 OA 
HETATM   25  C   UNL     3     -10.050   5.370  70.036  1.00  0.00    -0.254 C  
HETATM   26  C   UNL     3      -9.656   5.728  71.264  1.00  0.00    -0.166 C  
HETATM   27  O   UNL     3      -9.935   4.121  69.469  1.00  0.00    -0.177 OA 
HETATM   28  O   UNL     3     -10.994   7.429  70.459  1.00  0.00    -0.243 OA 
HETATM   29  C   UNL     3     -10.912   6.431  69.512  1.00  0.00    -0.359 C  
HETATM   30  O   UNL     3      -9.188   5.138  72.265  1.00  0.00    -0.137 OA 
HETATM   31  H   UNL     3      -9.375   3.432  69.810  1.00  0.00     0.000 HD 
ENDBRANCH  20  23
ENDBRANCH   7  20
TORSDOF 4
ENDMDL
MODEL      326
REMARK 921   NORMALIZED FREE ENERGY PREDICTED BY IDOCK:   -3.50 KCAL/MOL
REMARK 922        TOTAL FREE ENERGY PREDICTED BY IDOCK:   -6.25 KCAL/MOL
REMARK 923 INTER-LIGAND FREE ENERGY PREDICTED BY IDOCK:   -5.00 KCAL/MOL
REMARK 924 INTRA-LIGAND FREE ENERGY PREDICTED BY IDOCK:   -1.25 KCAL/MOL
REMARK 927      BINDING AFFINITY PREDICTED BY RF-SCORE:    0.00 PKD
ROOT
HETATM    1 CA   UNL     1      -7.257  15.507  69.778  1.00  0.00    -0.143 Ca 
HETATM    2  O   UNL     2      -5.316  20.347  65.111  1.00  0.00    -0.157 OA 
HETATM    3  C   UNL     2      -5.370  19.311  66.098  1.00  0.00    -0.155 C  
HETATM    4  H   UNL     2      -4.401  20.485  64.896  1.00  0.00     0.000 HD 
HETATM    5  O   UNL     3      -9.497  13.694  65.154  1.00  0.00    -0.464 OA 
HETATM    6  H   UNL     3      -9.886  13.948  64.326  1.00  0.00     0.000 HD 
HETATM    7  C   UNL     3     -10.526  13.882  66.168  1.00  0.00    -0.297 C  
ENDROOT
BRANCH   3   8
HETATM    8  C   UNL     2      -6.825  19.090  66.440  1.00  0.00    -0.209 C  
HETATM    9  H   UNL     2      -8.549  19.649  65.681  1.00  0.00     0.000 HD 
HETATM   10  O   UNL     2      -7.634  19.787  65.466  1.00  0.00    -0.386 OA 
BRANCH   8  11
HETATM   11  C   UNL     2      -7.268  19.544  67.847  1.00  0.00    -0.271 C  
HETATM   12  C   UNL     2      -7.507  18.530  68.937  1.00  0.00    -0.250 C  
HETATM   13  O   UNL     2      -8.622  19.958  67.636  1.00  0.00    -0.316 OA 
HETATM   14  O   UNL     2     -10.384  18.578  67.062  1.00  0.00    -0.361 OA 
HETATM   15  H   UNL     2      -8.888  16.398  70.008  1.00  0.00     0.000 HD 
HETATM   16  O   UNL     2      -6.745  18.542  69.942  1.00  0.00    -0.039 OA 
HETATM   17  C   UNL     2      -9.333  18.793  67.624  1.00  0.00    -0.292 C  
HETATM   18  C   UNL     2      -8.674  17.916  68.631  1.00  0.00    -0.264 C  
HETATM   19  O   UNL     2      -9.308  16.957  69.366  1.00  0.00    -0.087 OA 
ENDBRANCH   8  11
ENDBRANCH   3   8
BRANCH   7  20
HETATM   20  C   UNL     3      -9.898  13.471  67.505  1.00  0.00    -0.227 C  
HETATM   21  O   UNL     3      -9.988  14.546  68.439  1.00  0.00    -0.227 OA 
HETATM   22  H   UNL     3      -9.600  14.292  69.267  1.00  0.00     0.000 HD 
BRANCH  20  23
HETATM   23  C   UNL     3      -8.533  12.731  67.571  1.00  0.00    -0.181 C  
HETATM   24  O   UNL     3      -6.080  13.216  69.967  1.00  0.00    -0.136 OA 
HETATM   25  C   UNL     3      -7.518  11.463  69.205  1.00  0.00    -0.057 C  
HETATM   26  C   UNL     3      -8.313  11.366  68.131  1.00  0.00    -0.149 C  
HETATM   27  O   UNL     3      -7.033  10.421  69.962  1.00  0.00    -0.137 OA 
HETATM   28  O   UNL     3      -7.510  13.530  68.188  1.00  0.00    -0.106 OA 
HETATM   29  C   UNL     3      -6.987  12.827  69.251  1.00  0.00     0.041 C  
HETATM   30  O   UNL     3      -8.778  10.431  67.440  1.00  0.00    -0.125 OA 
HETATM   31  H   UNL     3      -7.377   9.536  69.932  1.00  0.00     0.000 HD 
ENDBRANCH  20  23
ENDBRANCH   7  20
TORSDOF 4
ENDMDL
MODEL      327
REMARK 921   NORMALIZED FREE ENERGY PREDICTED BY IDOCK:   -3.50 KCAL/MOL
REMARK 922        TOTAL FREE ENERGY PREDICTED BY IDOCK:   -6.24 KCAL/MOL
REMARK 923 INTER-LIGAND FREE ENERGY PREDICTED BY IDOCK:   -5.89 KCAL/MOL
REMARK 924 INTRA-LIGAND FREE ENERGY PREDICTED BY IDOCK:   -0.35 KCAL/MOL
REMARK 927      BINDING AFFINITY PREDICTED BY RF-SCORE:    0.00 PKD
ROOT
HETATM    1 CA   UNL     1     -11.978  11.857  69.812  1.00  0.00    -0.222 Ca 
HETATM    2  O   UNL     2     -10.068  18.200  67.555  1.00  0.00    -0.318 OA 
HETATM    3  C   UNL     2     -10.295  17.002  68.306  1.00  0.00    -0.347 C  
HETATM    4  H   UNL     2      -9.543  18.778  68.096  1.00  0.00     0.000 HD 
HETATM    5  O   UNL     3      -8.798  10.712  65.538  1.00  0.00    -0.177 OA 
HETATM    6  H   UNL     3      -8.510  11.005  64.682  1.00  0.00     0.000 HD 
HETATM    7  C   UNL     3     -10.118  10.125  65.351  1.00  0.00    -0.272 C  
ENDROOT
BRANCH   3   8
HETATM    8  C   UNL     2     -11.129  16.082  67.445  1.00  0.00    -0.167 C  
HETATM    9  H   UNL     2     -12.163  14.437  67.736  1.00  0.00     0.000 HD 
HETATM   10  O   UNL     2     -11.640  15.016  68.277  1.00  0.00    -0.317 OA 
BRANCH   8  11
HETATM   11  C   UNL     2     -10.409  15.446  66.237  1.00  0.00    -0.294 C  
HETATM   12  C   UNL     2     -10.047  13.983  66.248  1.00  0.00    -0.300 C  
HETATM   13  O   UNL     2      -9.090  15.996  66.327  1.00  0.00    -0.284 OA 
HETATM   14  O   UNL     2      -7.560  15.570  68.005  1.00  0.00    -0.117 OA 
HETATM   15  H   UNL     2      -8.643  11.837  67.260  1.00  0.00     0.000 HD 
HETATM   16  O   UNL     2     -10.611  13.221  65.415  1.00  0.00    -0.282 OA 
HETATM   17  C   UNL     2      -8.474  15.241  67.283  1.00  0.00    -0.193 C  
HETATM   18  C   UNL     2      -8.998  13.860  67.096  1.00  0.00    -0.235 C  
HETATM   19  O   UNL     2      -8.309  12.717  67.380  1.00  0.00    -0.170 OA 
ENDBRANCH   8  11
ENDBRANCH   3   8
BRANCH   7  20
HETATM   20  C   UNL     3     -10.584   9.652  66.732  1.00  0.00    -0.139 C  
HETATM   21  O   UNL     3     -10.655  10.758  67.630  1.00  0.00    -0.199 OA 
HETATM   22  H   UNL     3     -10.944  10.465  68.486  1.00  0.00     0.000 HD 
BRANCH  20  23
HETATM   23  C   UNL     3      -9.996   8.376  67.397  1.00  0.00    -0.212 C  
HETATM   24  O   UNL     3      -9.468   7.919  70.790  1.00  0.00    -0.157 OA 
HETATM   25  C   UNL     3     -10.784   6.961  69.036  1.00  0.00    -0.230 C  
HETATM   26  C   UNL     3     -10.757   7.131  67.708  1.00  0.00    -0.212 C  
HETATM   27  O   UNL     3     -11.336   5.899  69.716  1.00  0.00    -0.371 OA 
HETATM   28  O   UNL     3      -9.297   8.671  68.618  1.00  0.00    -0.142 OA 
HETATM   29  C   UNL     3      -9.852   7.921  69.632  1.00  0.00    -0.179 C  
HETATM   30  O   UNL     3     -11.086   6.451  66.709  1.00  0.00    -0.358 OA 
HETATM   31  H   UNL     3     -11.940   5.276  69.328  1.00  0.00     0.000 HD 
ENDBRANCH  20  23
ENDBRANCH   7  20
TORSDOF 4
ENDMDL
MODEL      328
REMARK 921   NORMALIZED FREE ENERGY PREDICTED BY IDOCK:   -3.49 KCAL/MOL
REMARK 922        TOTAL FREE ENERGY PREDICTED BY IDOCK:   -6.24 KCAL/MOL
REMARK 923 INTER-LIGAND FREE ENERGY PREDICTED BY IDOCK:   -5.13 KCAL/MOL
REMARK 924 INTRA-LIGAND FREE ENERGY PREDICTED BY IDOCK:   -1.11 KCAL/MOL
REMARK 927      BINDING AFFINITY PREDICTED BY RF-SCORE:    0.00 PKD
ROOT
HETATM    1 CA   UNL     1     -11.155  12.945  70.020  1.00  0.00    -0.387 Ca 
HETATM    2  O   UNL     2      -8.662  18.157  66.072  1.00  0.00    -0.498 OA 
HETATM    3  C   UNL     2      -9.113  17.315  67.138  1.00  0.00    -0.227 C  
HETATM    4  H   UNL     2      -8.348  18.965  66.462  1.00  0.00     0.000 HD 
HETATM    5  O   UNL     3      -6.744  10.718  67.723  1.00  0.00    -0.066 OA 
HETATM    6  H   UNL     3      -6.194  10.702  66.949  1.00  0.00     0.000 HD 
HETATM    7  C   UNL     3      -7.926   9.927  67.407  1.00  0.00    -0.106 C  
ENDROOT
BRANCH   3   8
HETATM    8  C   UNL     2      -9.613  16.031  66.518  1.00  0.00    -0.261 C  
HETATM    9  H   UNL     2      -9.728  15.300  64.698  1.00  0.00     0.000 HD 
HETATM   10  O   UNL     2      -9.413  16.107  65.089  1.00  0.00    -0.191 OA 
BRANCH   8  11
HETATM   11  C   UNL     2     -11.094  15.683  66.779  1.00  0.00    -0.169 C  
HETATM   12  C   UNL     2     -11.462  14.614  67.777  1.00  0.00    -0.340 C  
HETATM   13  O   UNL     2     -11.477  15.001  65.580  1.00  0.00    -0.336 OA 
HETATM   14  O   UNL     2     -10.676  12.950  64.877  1.00  0.00    -0.288 OA 
HETATM   15  H   UNL     2     -11.472  11.993  68.634  1.00  0.00     0.000 HD 
HETATM   16  O   UNL     2     -12.091  14.956  68.815  1.00  0.00    -0.265 OA 
HETATM   17  C   UNL     2     -10.994  13.734  65.743  1.00  0.00    -0.280 C  
HETATM   18  C   UNL     2     -11.157  13.431  67.191  1.00  0.00    -0.286 C  
HETATM   19  O   UNL     2     -11.367  12.187  67.710  1.00  0.00    -0.264 OA 
ENDBRANCH   8  11
ENDBRANCH   3   8
BRANCH   7  20
HETATM   20  C   UNL     3      -8.813   9.954  68.656  1.00  0.00    -0.128 C  
HETATM   21  O   UNL     3      -8.797  11.254  69.242  1.00  0.00    -0.380 OA 
HETATM   22  H   UNL     3      -9.347  11.271  70.016  1.00  0.00     0.000 HD 
BRANCH  20  23
HETATM   23  C   UNL     3      -8.762   8.818  69.715  1.00  0.00    -0.133 C  
HETATM   24  O   UNL     3      -7.203   5.750  69.322  1.00  0.00    -0.063 OA 
HETATM   25  C   UNL     3      -7.021   7.687  70.715  1.00  0.00    -0.047 C  
HETATM   26  C   UNL     3      -7.820   8.750  70.871  1.00  0.00    -0.120 C  
HETATM   27  O   UNL     3      -6.060   7.246  71.597  1.00  0.00    -0.037 OA 
HETATM   28  O   UNL     3      -8.669   7.516  69.113  1.00  0.00    -0.135 OA 
HETATM   29  C   UNL     3      -7.551   6.883  69.612  1.00  0.00    -0.101 C  
HETATM   30  O   UNL     3      -8.043   9.580  71.782  1.00  0.00    -0.019 OA 
HETATM   31  H   UNL     3      -5.717   7.768  72.313  1.00  0.00     0.000 HD 
ENDBRANCH  20  23
ENDBRANCH   7  20
TORSDOF 4
ENDMDL
MODEL      329
REMARK 921   NORMALIZED FREE ENERGY PREDICTED BY IDOCK:   -3.48 KCAL/MOL
REMARK 922        TOTAL FREE ENERGY PREDICTED BY IDOCK:   -6.21 KCAL/MOL
REMARK 923 INTER-LIGAND FREE ENERGY PREDICTED BY IDOCK:   -5.64 KCAL/MOL
REMARK 924 INTRA-LIGAND FREE ENERGY PREDICTED BY IDOCK:   -0.58 KCAL/MOL
REMARK 927      BINDING AFFINITY PREDICTED BY RF-SCORE:    0.00 PKD
ROOT
HETATM    1 CA   UNL     1      -7.534   9.672  70.373  1.00  0.00    -0.062 Ca 
HETATM    2  O   UNL     2     -10.124  12.421  64.481  1.00  0.00    -0.377 OA 
HETATM    3  C   UNL     2      -9.294  11.872  65.512  1.00  0.00    -0.078 C  
HETATM    4  H   UNL     2      -9.571  12.572  63.723  1.00  0.00     0.000 HD 
HETATM    5  O   UNL     3     -11.103   5.892  68.742  1.00  0.00    -0.297 OA 
HETATM    6  H   UNL     3     -11.929   5.741  68.298  1.00  0.00     0.000 HD 
HETATM    7  C   UNL     3     -11.434   6.345  70.086  1.00  0.00    -0.417 C  
ENDROOT
BRANCH   3   8
HETATM    8  C   UNL     2     -10.173  11.631  66.717  1.00  0.00    -0.217 C  
HETATM    9  H   UNL     2     -10.810  10.055  67.701  1.00  0.00     0.000 HD 
HETATM   10  O   UNL     2     -10.257  10.207  66.944  1.00  0.00    -0.215 OA 
BRANCH   8  11
HETATM   11  C   UNL     2     -11.609  12.190  66.631  1.00  0.00    -0.350 C  
HETATM   12  C   UNL     2     -11.872  13.658  66.855  1.00  0.00    -0.411 C  
HETATM   13  O   UNL     2     -12.222  11.677  67.819  1.00  0.00    -0.560 OA 
HETATM   14  O   UNL     2     -11.668  12.260  69.985  1.00  0.00    -0.306 OA 
HETATM   15  H   UNL     2     -11.894  15.903  68.456  1.00  0.00     0.000 HD 
HETATM   16  O   UNL     2     -12.302  14.343  65.887  1.00  0.00    -0.395 OA 
HETATM   17  C   UNL     2     -11.793  12.515  68.809  1.00  0.00    -0.303 C  
HETATM   18  C   UNL     2     -11.736  13.866  68.187  1.00  0.00    -0.353 C  
HETATM   19  O   UNL     2     -11.931  15.042  68.852  1.00  0.00    -0.304 OA 
ENDBRANCH   8  11
ENDBRANCH   3   8
BRANCH   7  20
HETATM   20  C   UNL     3     -10.101   6.587  70.803  1.00  0.00    -0.185 C  
HETATM   21  O   UNL     3     -10.323   7.284  72.028  1.00  0.00    -0.190 OA 
HETATM   22  H   UNL     3      -9.497   7.434  72.472  1.00  0.00     0.000 HD 
BRANCH  20  23
HETATM   23  C   UNL     3      -8.847   7.098  70.040  1.00  0.00    -0.142 C  
HETATM   24  O   UNL     3      -5.633   7.281  71.318  1.00  0.00    -0.034 OA 
HETATM   25  C   UNL     3      -6.804   6.143  69.569  1.00  0.00    -0.065 C  
HETATM   26  C   UNL     3      -8.036   6.303  69.072  1.00  0.00    -0.110 C  
HETATM   27  O   UNL     3      -5.744   5.520  68.950  1.00  0.00    -0.013 OA 
HETATM   28  O   UNL     3      -7.869   7.673  70.923  1.00  0.00    -0.087 OA 
HETATM   29  C   UNL     3      -6.673   7.015  70.739  1.00  0.00    -0.053 C  
HETATM   30  O   UNL     3      -8.600   6.073  67.977  1.00  0.00    -0.115 OA 
HETATM   31  H   UNL     3      -5.829   4.955  68.191  1.00  0.00     0.000 HD 
ENDBRANCH  20  23
ENDBRANCH   7  20
TORSDOF 4
ENDMDL
MODEL      330
REMARK 921   NORMALIZED FREE ENERGY PREDICTED BY IDOCK:   -3.47 KCAL/MOL
REMARK 922        TOTAL FREE ENERGY PREDICTED BY IDOCK:   -6.21 KCAL/MOL
REMARK 923 INTER-LIGAND FREE ENERGY PREDICTED BY IDOCK:   -4.10 KCAL/MOL
REMARK 924 INTRA-LIGAND FREE ENERGY PREDICTED BY IDOCK:   -2.11 KCAL/MOL
REMARK 927      BINDING AFFINITY PREDICTED BY RF-SCORE:    0.00 PKD
ROOT
HETATM    1 CA   UNL     1      -8.811   7.216  68.095  1.00  0.00    -0.121 Ca 
HETATM    2  O   UNL     2      -5.941   2.453  72.344  1.00  0.00    -0.008 OA 
HETATM    3  C   UNL     2      -6.201   3.541  71.450  1.00  0.00    -0.015 C  
HETATM    4  H   UNL     2      -5.015   2.475  72.555  1.00  0.00     0.000 HD 
HETATM    5  O   UNL     3     -11.327   8.153  72.836  1.00  0.00    -0.387 OA 
HETATM    6  H   UNL     3     -11.654   7.758  73.635  1.00  0.00     0.000 HD 
HETATM    7  C   UNL     3     -12.307   7.859  71.800  1.00  0.00    -0.320 C  
ENDROOT
BRANCH   3   8
HETATM    8  C   UNL     2      -7.674   3.506  71.114  1.00  0.00    -0.051 C  
HETATM    9  H   UNL     2      -8.863   2.293  70.128  1.00  0.00     0.000 HD 
HETATM   10  O   UNL     2      -7.937   2.315  70.339  1.00  0.00    -0.042 OA 
BRANCH   8  11
HETATM   11  C   UNL     2      -8.220   4.720  70.332  1.00  0.00    -0.083 C  
HETATM   12  C   UNL     2      -7.799   6.120  70.703  1.00  0.00    -0.106 C  
HETATM   13  O   UNL     2      -9.586   4.784  70.758  1.00  0.00    -0.153 OA 
HETATM   14  O   UNL     2     -10.313   5.292  72.892  1.00  0.00    -0.178 OA 
HETATM   15  H   UNL     2      -7.709   8.242  72.461  1.00  0.00     0.000 HD 
HETATM   16  O   UNL     2      -7.122   6.781  69.869  1.00  0.00    -0.067 OA 
HETATM   17  C   UNL     2      -9.531   5.402  71.975  1.00  0.00    -0.148 C  
HETATM   18  C   UNL     2      -8.445   6.413  71.857  1.00  0.00    -0.123 C  
HETATM   19  O   UNL     2      -8.402   7.596  72.536  1.00  0.00    -0.106 OA 
ENDBRANCH   8  11
ENDBRANCH   3   8
BRANCH   7  20
HETATM   20  C   UNL     3     -11.780   8.498  70.510  1.00  0.00    -0.072 C  
HETATM   21  O   UNL     3     -11.208   7.499  69.667  1.00  0.00    -0.434 OA 
HETATM   22  H   UNL     3     -10.882   7.895  68.868  1.00  0.00     0.000 HD 
BRANCH  20  23
HETATM   23  C   UNL     3     -10.951   9.812  70.532  1.00  0.00    -0.321 C  
HETATM   24  O   UNL     3      -7.564  10.083  69.857  1.00  0.00    -0.140 OA 
HETATM   25  C   UNL     3      -9.639  10.862  68.954  1.00  0.00    -0.181 C  
HETATM   26  C   UNL     3     -10.889  10.818  69.430  1.00  0.00    -0.244 C  
HETATM   27  O   UNL     3      -9.162  11.705  67.977  1.00  0.00    -0.165 OA 
HETATM   28  O   UNL     3      -9.573   9.581  70.869  1.00  0.00    -0.251 OA 
HETATM   29  C   UNL     3      -8.784  10.093  69.862  1.00  0.00    -0.061 C  
HETATM   30  O   UNL     3     -11.935  11.488  69.270  1.00  0.00    -0.323 OA 
HETATM   31  H   UNL     3      -9.717  12.204  67.389  1.00  0.00     0.000 HD 
ENDBRANCH  20  23
ENDBRANCH   7  20
TORSDOF 4
ENDMDL
MODEL      331
REMARK 921   NORMALIZED FREE ENERGY PREDICTED BY IDOCK:   -3.46 KCAL/MOL
REMARK 922        TOTAL FREE ENERGY PREDICTED BY IDOCK:   -6.20 KCAL/MOL
REMARK 923 INTER-LIGAND FREE ENERGY PREDICTED BY IDOCK:   -4.49 KCAL/MOL
REMARK 924 INTRA-LIGAND FREE ENERGY PREDICTED BY IDOCK:   -1.71 KCAL/MOL
REMARK 927      BINDING AFFINITY PREDICTED BY RF-SCORE:    0.00 PKD
ROOT
HETATM    1 CA   UNL     1     -11.901   8.277  70.562  1.00  0.00    -0.280 Ca 
HETATM    2  O   UNL     2      -9.102  12.416  65.662  1.00  0.00    -0.433 OA 
HETATM    3  C   UNL     2      -9.806  11.868  66.783  1.00  0.00    -0.197 C  
HETATM    4  H   UNL     2      -9.222  13.358  65.685  1.00  0.00     0.000 HD 
HETATM    5  O   UNL     3      -6.549   7.556  71.284  1.00  0.00    -0.042 OA 
HETATM    6  H   UNL     3      -5.703   7.524  70.854  1.00  0.00     0.000 HD 
HETATM    7  C   UNL     3      -7.194   6.277  71.022  1.00  0.00    -0.075 C  
ENDROOT
BRANCH   3   8
HETATM    8  C   UNL     2      -9.614  10.370  66.746  1.00  0.00    -0.171 C  
HETATM    9  H   UNL     2     -10.081   8.921  65.505  1.00  0.00     0.000 HD 
HETATM   10  O   UNL     2     -10.201   9.864  65.527  1.00  0.00    -0.273 OA 
BRANCH   8  11
HETATM   11  C   UNL     2     -10.210   9.581  67.931  1.00  0.00    -0.205 C  
HETATM   12  C   UNL     2      -9.966  10.033  69.350  1.00  0.00    -0.223 C  
HETATM   13  O   UNL     2      -9.422   8.385  67.947  1.00  0.00    -0.143 OA 
HETATM   14  O   UNL     2      -7.169   8.259  68.443  1.00  0.00    -0.088 OA 
HETATM   15  H   UNL     2      -8.296  10.523  71.488  1.00  0.00     0.000 HD 
HETATM   16  O   UNL     2     -10.953  10.426  70.029  1.00  0.00    -0.276 OA 
HETATM   17  C   UNL     2      -8.266   8.751  68.576  1.00  0.00    -0.117 C  
HETATM   18  C   UNL     2      -8.678   9.721  69.628  1.00  0.00    -0.199 C  
HETATM   19  O   UNL     2      -8.033   9.905  70.816  1.00  0.00    -0.243 OA 
ENDBRANCH   8  11
ENDBRANCH   3   8
BRANCH   7  20
HETATM   20  C   UNL     3      -8.560   6.329  71.717  1.00  0.00    -0.133 C  
HETATM   21  O   UNL     3      -8.388   6.498  73.123  1.00  0.00    -0.117 OA 
HETATM   22  H   UNL     3      -9.234   6.531  73.554  1.00  0.00     0.000 HD 
BRANCH  20  23
HETATM   23  C   UNL     3      -9.690   5.323  71.367  1.00  0.00    -0.164 C  
HETATM   24  O   UNL     3      -9.241   2.141  70.073  1.00  0.00    -0.098 OA 
HETATM   25  C   UNL     3     -10.130   3.165  72.044  1.00  0.00    -0.108 C  
HETATM   26  C   UNL     3     -10.401   4.442  72.340  1.00  0.00    -0.173 C  
HETATM   27  O   UNL     3     -10.645   2.051  72.670  1.00  0.00    -0.153 OA 
HETATM   28  O   UNL     3      -9.316   4.433  70.301  1.00  0.00    -0.118 OA 
HETATM   29  C   UNL     3      -9.453   3.136  70.746  1.00  0.00    -0.161 C  
HETATM   30  O   UNL     3     -11.182   5.038  73.117  1.00  0.00    -0.297 OA 
HETATM   31  H   UNL     3     -11.084   2.070  73.512  1.00  0.00     0.000 HD 
ENDBRANCH  20  23
ENDBRANCH   7  20
TORSDOF 4
ENDMDL
MODEL      332
REMARK 921   NORMALIZED FREE ENERGY PREDICTED BY IDOCK:   -3.46 KCAL/MOL
REMARK 922        TOTAL FREE ENERGY PREDICTED BY IDOCK:   -6.19 KCAL/MOL
REMARK 923 INTER-LIGAND FREE ENERGY PREDICTED BY IDOCK:   -5.51 KCAL/MOL
REMARK 924 INTRA-LIGAND FREE ENERGY PREDICTED BY IDOCK:   -0.69 KCAL/MOL
REMARK 927      BINDING AFFINITY PREDICTED BY RF-SCORE:    0.00 PKD
ROOT
HETATM    1 CA   UNL     1      -8.190  11.405  69.866  1.00  0.00    -0.354 Ca 
HETATM    2  O   UNL     2     -11.348   6.256  66.332  1.00  0.00    -0.676 OA 
HETATM    3  C   UNL     2     -10.875   7.174  67.324  1.00  0.00    -0.312 C  
HETATM    4  H   UNL     2     -11.963   5.670  66.758  1.00  0.00     0.000 HD 
HETATM    5  O   UNL     3     -11.186  14.111  66.207  1.00  0.00    -0.317 OA 
HETATM    6  H   UNL     3     -11.545  14.092  65.328  1.00  0.00     0.000 HD 
HETATM    7  C   UNL     3      -9.782  14.474  66.070  1.00  0.00    -0.303 C  
ENDROOT
BRANCH   3   8
HETATM    8  C   UNL     2      -9.899   8.106  66.646  1.00  0.00    -0.261 C  
HETATM    9  H   UNL     2     -10.018   9.826  65.705  1.00  0.00     0.000 HD 
HETATM   10  O   UNL     2     -10.632   9.240  66.132  1.00  0.00    -0.052 OA 
BRANCH   8  11
HETATM   11  C   UNL     2      -9.075   7.501  65.489  1.00  0.00     0.198 C  
HETATM   12  C   UNL     2      -8.469   6.127  65.620  1.00  0.00    -0.151 C  
HETATM   13  O   UNL     2      -7.870   8.273  65.518  1.00  0.00    -0.095 OA 
HETATM   14  O   UNL     2      -6.297   8.260  67.210  1.00  0.00    -0.054 OA 
HETATM   15  H   UNL     2      -6.724   4.346  66.798  1.00  0.00     0.000 HD 
HETATM   16  O   UNL     2      -8.891   5.212  64.862  1.00  0.00    -0.154 OA 
HETATM   17  C   UNL     2      -7.138   7.719  66.529  1.00  0.00    -0.078 C  
HETATM   18  C   UNL     2      -7.419   6.258  66.465  1.00  0.00    -0.086 C  
HETATM   19  O   UNL     2      -6.545   5.278  66.839  1.00  0.00    -0.050 OA 
ENDBRANCH   8  11
ENDBRANCH   3   8
BRANCH   7  20
HETATM   20  C   UNL     3      -9.201  14.505  67.488  1.00  0.00    -0.194 C  
HETATM   21  O   UNL     3      -9.302  13.215  68.088  1.00  0.00    -0.208 OA 
HETATM   22  H   UNL     3      -8.942  13.234  68.966  1.00  0.00     0.000 HD 
BRANCH  20  23
HETATM   23  C   UNL     3      -9.534  15.655  68.479  1.00  0.00    -0.200 C  
HETATM   24  O   UNL     3      -7.950  18.733  68.617  1.00  0.00    -0.328 OA 
HETATM   25  C   UNL     3     -10.134  17.860  68.174  1.00  0.00    -0.366 C  
HETATM   26  C   UNL     3     -10.651  16.635  68.329  1.00  0.00    -0.338 C  
HETATM   27  O   UNL     3     -10.836  19.039  68.066  1.00  0.00    -0.317 OA 
HETATM   28  O   UNL     3      -8.389  16.476  68.766  1.00  0.00    -0.227 OA 
HETATM   29  C   UNL     3      -8.700  17.783  68.461  1.00  0.00    -0.283 C  
HETATM   30  O   UNL     3     -11.796  16.159  68.507  1.00  0.00    -0.300 OA 
HETATM   31  H   UNL     3     -11.767  19.088  67.881  1.00  0.00     0.000 HD 
ENDBRANCH  20  23
ENDBRANCH   7  20
TORSDOF 4
ENDMDL
MODEL      333
REMARK 921   NORMALIZED FREE ENERGY PREDICTED BY IDOCK:   -3.45 KCAL/MOL
REMARK 922        TOTAL FREE ENERGY PREDICTED BY IDOCK:   -6.19 KCAL/MOL
REMARK 923 INTER-LIGAND FREE ENERGY PREDICTED BY IDOCK:   -6.68 KCAL/MOL
REMARK 924 INTRA-LIGAND FREE ENERGY PREDICTED BY IDOCK:    0.49 KCAL/MOL
REMARK 927      BINDING AFFINITY PREDICTED BY RF-SCORE:    0.00 PKD
ROOT
HETATM    1 CA   UNL     1     -11.482   8.899  66.888  1.00  0.00    -0.235 Ca 
HETATM    2  O   UNL     2     -11.037  15.865  67.375  1.00  0.00    -0.301 OA 
HETATM    3  C   UNL     2     -11.372  14.514  67.039  1.00  0.00    -0.349 C  
HETATM    4  H   UNL     2     -11.611  16.433  66.873  1.00  0.00     0.000 HD 
HETATM    5  O   UNL     3     -12.823   9.835  72.086  1.00  0.00    -0.391 OA 
HETATM    6  H   UNL     3     -12.678  10.396  72.838  1.00  0.00     0.000 HD 
HETATM    7  C   UNL     3     -11.683   8.932  72.019  1.00  0.00    -0.367 C  
ENDROOT
BRANCH   3   8
HETATM    8  C   UNL     2     -10.459  13.612  67.837  1.00  0.00    -0.247 C  
HETATM    9  H   UNL     2      -8.532  13.232  67.867  1.00  0.00     0.000 HD 
HETATM   10  O   UNL     2      -9.106  13.799  67.365  1.00  0.00    -0.201 OA 
BRANCH   8  11
HETATM   11  C   UNL     2     -10.783  12.104  67.787  1.00  0.00    -0.209 C  
HETATM   12  C   UNL     2      -9.942  11.170  66.953  1.00  0.00    -0.198 C  
HETATM   13  O   UNL     2     -11.986  12.062  67.012  1.00  0.00    -0.609 OA 
HETATM   14  O   UNL     2     -12.173  12.611  64.775  1.00  0.00    -0.416 OA 
HETATM   15  H   UNL     2      -8.982  10.281  64.526  1.00  0.00     0.000 HD 
HETATM   16  O   UNL     2      -9.264  10.286  67.546  1.00  0.00    -0.140 OA 
HETATM   17  C   UNL     2     -11.559  12.167  65.719  1.00  0.00    -0.355 C  
HETATM   18  C   UNL     2     -10.277  11.412  65.664  1.00  0.00    -0.251 C  
HETATM   19  O   UNL     2      -9.800  10.763  64.562  1.00  0.00    -0.255 OA 
ENDBRANCH   8  11
ENDBRANCH   3   8
BRANCH   7  20
HETATM   20  C   UNL     3     -11.917   8.026  70.805  1.00  0.00    -0.121 C  
HETATM   21  O   UNL     3     -13.033   7.169  71.041  1.00  0.00    -0.541 OA 
HETATM   22  H   UNL     3     -13.178   6.607  70.289  1.00  0.00     0.000 HD 
BRANCH  20  23
HETATM   23  C   UNL     3     -10.743   7.299  70.092  1.00  0.00    -0.244 C  
HETATM   24  O   UNL     3      -8.289   5.409  71.645  1.00  0.00    -0.116 OA 
HETATM   25  C   UNL     3     -10.053   5.101  70.057  1.00  0.00    -0.275 C  
HETATM   26  C   UNL     3     -10.828   5.976  69.406  1.00  0.00    -0.363 C  
HETATM   27  O   UNL     3      -9.815   3.793  69.701  1.00  0.00    -0.168 OA 
HETATM   28  O   UNL     3      -9.585   7.179  70.936  1.00  0.00    -0.167 OA 
HETATM   29  C   UNL     3      -9.245   5.846  71.025  1.00  0.00    -0.150 C  
HETATM   30  O   UNL     3     -11.468   5.982  68.329  1.00  0.00    -0.010 OA 
HETATM   31  H   UNL     3     -10.339   3.309  69.073  1.00  0.00     0.000 HD 
ENDBRANCH  20  23
ENDBRANCH   7  20
TORSDOF 4
ENDMDL
MODEL      334
REMARK 921   NORMALIZED FREE ENERGY PREDICTED BY IDOCK:   -3.42 KCAL/MOL
REMARK 922        TOTAL FREE ENERGY PREDICTED BY IDOCK:   -6.14 KCAL/MOL
REMARK 923 INTER-LIGAND FREE ENERGY PREDICTED BY IDOCK:   -7.29 KCAL/MOL
REMARK 924 INTRA-LIGAND FREE ENERGY PREDICTED BY IDOCK:    1.15 KCAL/MOL
REMARK 927      BINDING AFFINITY PREDICTED BY RF-SCORE:    0.00 PKD
ROOT
HETATM    1 CA   UNL     1     -12.113  15.774  67.119  1.00  0.00    -0.124 Ca 
HETATM    2  O   UNL     2     -10.035   9.877  63.976  1.00  0.00    -0.470 OA 
HETATM    3  C   UNL     2     -10.589  11.156  64.305  1.00  0.00    -0.357 C  
HETATM    4  H   UNL     2     -10.188   9.732  63.050  1.00  0.00     0.000 HD 
HETATM    5  O   UNL     3      -6.690  15.995  67.600  1.00  0.00    -0.133 OA 
HETATM    6  H   UNL     3      -5.896  15.483  67.703  1.00  0.00     0.000 HD 
HETATM    7  C   UNL     3      -7.311  16.061  68.915  1.00  0.00    -0.176 C  
ENDROOT
BRANCH   3   8
HETATM    8  C   UNL     2     -10.345  11.387  65.778  1.00  0.00    -0.255 C  
HETATM    9  H   UNL     2     -11.421  11.272  67.417  1.00  0.00     0.000 HD 
HETATM   10  O   UNL     2     -11.575  11.127  66.491  1.00  0.00    -0.278 OA 
BRANCH   8  11
HETATM   11  C   UNL     2      -9.851  12.796  66.171  1.00  0.00    -0.267 C  
HETATM   12  C   UNL     2     -10.059  13.316  67.571  1.00  0.00    -0.223 C  
HETATM   13  O   UNL     2     -10.763  13.658  65.481  1.00  0.00    -0.282 OA 
HETATM   14  O   UNL     2     -13.022  13.863  65.922  1.00  0.00    -0.436 OA 
HETATM   15  H   UNL     2     -11.690  14.129  69.640  1.00  0.00     0.000 HD 
HETATM   16  O   UNL     2      -9.043  13.529  68.287  1.00  0.00    -0.192 OA 
HETATM   17  C   UNL     2     -11.879  13.665  66.268  1.00  0.00    -0.392 C  
HETATM   18  C   UNL     2     -11.377  13.614  67.669  1.00  0.00    -0.300 C  
HETATM   19  O   UNL     2     -12.011  14.161  68.747  1.00  0.00    -0.334 OA 
ENDBRANCH   8  11
ENDBRANCH   3   8
BRANCH   7  20
HETATM   20  C   UNL     3      -8.592  16.887  68.749  1.00  0.00    -0.246 C  
HETATM   21  O   UNL     3      -9.511  16.201  67.901  1.00  0.00    -0.212 OA 
HETATM   22  H   UNL     3     -10.304  16.712  67.798  1.00  0.00     0.000 HD 
BRANCH  20  23
HETATM   23  C   UNL     3      -8.545  18.415  68.473  1.00  0.00    -0.319 C  
HETATM   24  O   UNL     3      -6.548  19.989  66.121  1.00  0.00    -0.204 OA 
HETATM   25  C   UNL     3      -8.876  19.673  66.571  1.00  0.00    -0.364 C  
HETATM   26  C   UNL     3      -9.519  19.176  67.635  1.00  0.00    -0.304 C  
HETATM   27  O   UNL     3      -9.411  20.483  65.595  1.00  0.00    -0.571 OA 
HETATM   28  O   UNL     3      -7.261  18.842  67.988  1.00  0.00    -0.235 OA 
HETATM   29  C   UNL     3      -7.440  19.483  66.782  1.00  0.00    -0.241 C  
HETATM   30  O   UNL     3     -10.657  19.309  68.140  1.00  0.00    -0.377 OA 
HETATM   31  H   UNL     3     -10.344  20.606  65.458  1.00  0.00     0.000 HD 
ENDBRANCH  20  23
ENDBRANCH   7  20
TORSDOF 4
ENDMDL
MODEL      335
REMARK 921   NORMALIZED FREE ENERGY PREDICTED BY IDOCK:   -3.41 KCAL/MOL
REMARK 922        TOTAL FREE ENERGY PREDICTED BY IDOCK:   -6.14 KCAL/MOL
REMARK 923 INTER-LIGAND FREE ENERGY PREDICTED BY IDOCK:   -5.09 KCAL/MOL
REMARK 924 INTRA-LIGAND FREE ENERGY PREDICTED BY IDOCK:   -1.05 KCAL/MOL
REMARK 927      BINDING AFFINITY PREDICTED BY RF-SCORE:    0.00 PKD
ROOT
HETATM    1 CA   UNL     1      -9.489   3.650  71.198  1.00  0.00    -0.093 Ca 
HETATM    2  O   UNL     2      -9.914   4.581  64.275  1.00  0.00    -0.363 OA 
HETATM    3  C   UNL     2     -10.132   4.231  65.647  1.00  0.00    -0.219 C  
HETATM    4  H   UNL     2     -10.674   4.291  63.784  1.00  0.00     0.000 HD 
HETATM    5  O   UNL     3      -9.524   9.076  70.709  1.00  0.00    -0.207 OA 
HETATM    6  H   UNL     3      -9.265   9.810  70.164  1.00  0.00     0.000 HD 
HETATM    7  C   UNL     3      -8.327   8.646  71.418  1.00  0.00    -0.168 C  
ENDROOT
BRANCH   3   8
HETATM    8  C   UNL     2      -8.923   4.693  66.427  1.00  0.00    -0.114 C  
HETATM    9  H   UNL     2      -7.735   3.903  67.777  1.00  0.00     0.000 HD 
HETATM   10  O   UNL     2      -8.494   3.613  67.286  1.00  0.00    -0.097 OA 
BRANCH   8  11
HETATM   11  C   UNL     2      -9.119   5.951  67.299  1.00  0.00    -0.111 C  
HETATM   12  C   UNL     2      -9.768   7.185  66.723  1.00  0.00    -0.192 C  
HETATM   13  O   UNL     2      -7.785   6.453  67.438  1.00  0.00    -0.101 OA 
HETATM   14  O   UNL     2      -6.481   7.314  65.736  1.00  0.00    -0.043 OA 
HETATM   15  H   UNL     2      -9.811   9.309  64.966  1.00  0.00     0.000 HD 
HETATM   16  O   UNL     2     -10.881   7.549  67.191  1.00  0.00    -0.324 OA 
HETATM   17  C   UNL     2      -7.550   7.116  66.267  1.00  0.00    -0.091 C  
HETATM   18  C   UNL     2      -8.849   7.745  65.901  1.00  0.00    -0.142 C  
HETATM   19  O   UNL     2      -8.983   8.908  65.200  1.00  0.00    -0.197 OA 
ENDBRANCH   8  11
ENDBRANCH   3   8
BRANCH   7  20
HETATM   20  C   UNL     3      -8.745   7.461  72.296  1.00  0.00    -0.116 C  
HETATM   21  O   UNL     3      -8.016   6.294  71.923  1.00  0.00    -0.101 OA 
HETATM   22  H   UNL     3      -8.274   5.560  72.468  1.00  0.00     0.000 HD 
BRANCH  20  23
HETATM   23  C   UNL     3     -10.238   7.164  72.606  1.00  0.00    -0.200 C  
HETATM   24  O   UNL     3     -12.830   9.458  72.474  1.00  0.00    -0.349 OA 
HETATM   25  C   UNL     3     -12.173   7.432  71.383  1.00  0.00    -0.342 C  
HETATM   26  C   UNL     3     -11.213   6.542  71.662  1.00  0.00    -0.270 C  
HETATM   27  O   UNL     3     -13.286   7.220  70.601  1.00  0.00    -0.578 OA 
HETATM   28  O   UNL     3     -10.930   8.319  73.109  1.00  0.00    -0.142 OA 
HETATM   29  C   UNL     3     -12.020   8.562  72.301  1.00  0.00    -0.385 C  
HETATM   30  O   UNL     3     -11.024   5.324  71.437  1.00  0.00    -0.144 OA 
HETATM   31  H   UNL     3     -13.385   6.486  70.006  1.00  0.00     0.000 HD 
ENDBRANCH  20  23
ENDBRANCH   7  20
TORSDOF 4
ENDMDL
MODEL      336
REMARK 921   NORMALIZED FREE ENERGY PREDICTED BY IDOCK:   -3.40 KCAL/MOL
REMARK 922        TOTAL FREE ENERGY PREDICTED BY IDOCK:   -6.12 KCAL/MOL
REMARK 923 INTER-LIGAND FREE ENERGY PREDICTED BY IDOCK:   -5.15 KCAL/MOL
REMARK 924 INTRA-LIGAND FREE ENERGY PREDICTED BY IDOCK:   -0.97 KCAL/MOL
REMARK 927      BINDING AFFINITY PREDICTED BY RF-SCORE:    0.00 PKD
ROOT
HETATM    1 CA   UNL     1      -7.575   8.528  70.041  1.00  0.00    -0.054 Ca 
HETATM    2  O   UNL     2      -9.486  13.871  65.945  1.00  0.00    -0.485 OA 
HETATM    3  C   UNL     2      -8.774  12.893  66.714  1.00  0.00    -0.106 C  
HETATM    4  H   UNL     2      -8.839  14.422  65.520  1.00  0.00     0.000 HD 
HETATM    5  O   UNL     3     -10.174   6.043  65.948  1.00  0.00    -0.391 OA 
HETATM    6  H   UNL     3     -10.876   6.118  65.312  1.00  0.00     0.000 HD 
HETATM    7  C   UNL     3     -10.801   5.703  67.217  1.00  0.00    -0.124 C  
ENDROOT
BRANCH   3   8
HETATM    8  C   UNL     2      -9.803  12.017  67.390  1.00  0.00    -0.184 C  
HETATM    9  H   UNL     2     -10.372  10.143  67.241  1.00  0.00     0.000 HD 
HETATM   10  O   UNL     2      -9.725  10.694  66.815  1.00  0.00    -0.176 OA 
BRANCH   8  11
HETATM   11  C   UNL     2     -11.267  12.496  67.298  1.00  0.00    -0.295 C  
HETATM   12  C   UNL     2     -11.785  13.557  68.237  1.00  0.00    -0.359 C  
HETATM   13  O   UNL     2     -12.001  11.378  67.810  1.00  0.00    -0.637 OA 
HETATM   14  O   UNL     2     -11.943  10.606  69.988  1.00  0.00    -0.289 OA 
HETATM   15  H   UNL     2     -12.435  14.457  70.760  1.00  0.00     0.000 HD 
HETATM   16  O   UNL     2     -12.131  14.668  67.750  1.00  0.00    -0.314 OA 
HETATM   17  C   UNL     2     -11.890  11.494  69.166  1.00  0.00    -0.340 C  
HETATM   18  C   UNL     2     -11.925  12.956  69.442  1.00  0.00    -0.269 C  
HETATM   19  O   UNL     2     -12.412  13.524  70.584  1.00  0.00    -0.346 OA 
ENDBRANCH   8  11
ENDBRANCH   3   8
BRANCH   7  20
HETATM   20  C   UNL     3      -9.668   5.583  68.243  1.00  0.00    -0.132 C  
HETATM   21  O   UNL     3      -8.958   6.817  68.336  1.00  0.00    -0.125 OA 
HETATM   22  H   UNL     3      -8.257   6.742  68.972  1.00  0.00     0.000 HD 
BRANCH  20  23
HETATM   23  C   UNL     3      -8.728   4.346  68.277  1.00  0.00    -0.101 C  
HETATM   24  O   UNL     3      -7.295   2.814  65.520  1.00  0.00    -0.068 OA 
HETATM   25  C   UNL     3      -6.594   3.979  67.489  1.00  0.00    -0.046 C  
HETATM   26  C   UNL     3      -7.266   4.374  68.577  1.00  0.00    -0.060 C  
HETATM   27  O   UNL     3      -5.232   3.812  67.382  1.00  0.00    -0.010 OA 
HETATM   28  O   UNL     3      -8.822   3.558  67.078  1.00  0.00    -0.112 OA 
HETATM   29  C   UNL     3      -7.563   3.445  66.529  1.00  0.00    -0.077 C  
HETATM   30  O   UNL     3      -6.979   4.616  69.772  1.00  0.00    -0.049 OA 
HETATM   31  H   UNL     3      -4.603   4.159  68.005  1.00  0.00     0.000 HD 
ENDBRANCH  20  23
ENDBRANCH   7  20
TORSDOF 4
ENDMDL
MODEL      337
REMARK 921   NORMALIZED FREE ENERGY PREDICTED BY IDOCK:   -3.39 KCAL/MOL
REMARK 922        TOTAL FREE ENERGY PREDICTED BY IDOCK:   -6.11 KCAL/MOL
REMARK 923 INTER-LIGAND FREE ENERGY PREDICTED BY IDOCK:   -6.01 KCAL/MOL
REMARK 924 INTRA-LIGAND FREE ENERGY PREDICTED BY IDOCK:   -0.11 KCAL/MOL
REMARK 927      BINDING AFFINITY PREDICTED BY RF-SCORE:    0.00 PKD
ROOT
HETATM    1 CA   UNL     1      -7.098  15.502  65.965  1.00  0.00    -0.008 Ca 
HETATM    2  O   UNL     2     -10.642  20.107  69.864  1.00  0.00    -0.556 OA 
HETATM    3  C   UNL     2      -9.830  19.448  68.885  1.00  0.00    -0.453 C  
HETATM    4  H   UNL     2     -10.669  21.029  69.636  1.00  0.00     0.000 HD 
HETATM    5  O   UNL     3     -12.251  13.810  65.447  1.00  0.00    -0.388 OA 
HETATM    6  H   UNL     3     -13.094  13.738  65.880  1.00  0.00     0.000 HD 
HETATM    7  C   UNL     3     -11.423  12.735  65.977  1.00  0.00    -0.350 C  
ENDROOT
BRANCH   3   8
HETATM    8  C   UNL     2      -9.789  17.982  69.247  1.00  0.00    -0.041 C  
HETATM    9  H   UNL     2      -8.440  16.555  69.186  1.00  0.00     0.000 HD 
HETATM   10  O   UNL     2      -8.466  17.477  68.959  1.00  0.00    -0.179 OA 
BRANCH   8  11
HETATM   11  C   UNL     2     -10.815  17.077  68.532  1.00  0.00    -0.310 C  
HETATM   12  C   UNL     2     -10.353  15.990  67.595  1.00  0.00    -0.284 C  
HETATM   13  O   UNL     2     -11.400  17.960  67.568  1.00  0.00     0.115 OA 
HETATM   14  O   UNL     2     -10.314  18.888  65.752  1.00  0.00    -0.549 OA 
HETATM   15  H   UNL     2      -9.117  15.145  65.280  1.00  0.00     0.000 HD 
HETATM   16  O   UNL     2     -10.575  14.791  67.915  1.00  0.00    -0.244 OA 
HETATM   17  C   UNL     2     -10.493  17.994  66.548  1.00  0.00    -0.334 C  
HETATM   18  C   UNL     2      -9.933  16.616  66.470  1.00  0.00    -0.285 C  
HETATM   19  O   UNL     2      -9.473  16.023  65.330  1.00  0.00    -0.378 OA 
ENDBRANCH   8  11
ENDBRANCH   3   8
BRANCH   7  20
HETATM   20  C   UNL     3     -10.063  12.850  65.280  1.00  0.00    -0.238 C  
HETATM   21  O   UNL     3     -10.211  13.508  64.023  1.00  0.00    -0.723 OA 
HETATM   22  H   UNL     3      -9.368  13.580  63.591  1.00  0.00     0.000 HD 
BRANCH  20  23
HETATM   23  C   UNL     3      -9.075  11.652  65.218  1.00  0.00     0.051 C  
HETATM   24  O   UNL     3      -9.778   8.396  66.170  1.00  0.00    -0.224 OA 
HETATM   25  C   UNL     3      -9.175   9.593  64.188  1.00  0.00    -0.162 C  
HETATM   26  C   UNL     3      -8.757  10.851  63.999  1.00  0.00     0.003 C  
HETATM   27  O   UNL     3      -9.010   8.536  63.322  1.00  0.00    -0.369 OA 
HETATM   28  O   UNL     3      -9.358  10.662  66.221  1.00  0.00    -0.164 OA 
HETATM   29  C   UNL     3      -9.548   9.448  65.596  1.00  0.00    -0.274 C  
HETATM   30  O   UNL     3      -8.072  11.451  63.139  1.00  0.00     0.338 OA 
HETATM   31  H   UNL     3      -8.767   8.631  62.408  1.00  0.00     0.000 HD 
ENDBRANCH  20  23
ENDBRANCH   7  20
TORSDOF 4
ENDMDL
MODEL      338
REMARK 921   NORMALIZED FREE ENERGY PREDICTED BY IDOCK:   -3.38 KCAL/MOL
REMARK 922        TOTAL FREE ENERGY PREDICTED BY IDOCK:   -6.09 KCAL/MOL
REMARK 923 INTER-LIGAND FREE ENERGY PREDICTED BY IDOCK:   -6.54 KCAL/MOL
REMARK 924 INTRA-LIGAND FREE ENERGY PREDICTED BY IDOCK:    0.44 KCAL/MOL
REMARK 927      BINDING AFFINITY PREDICTED BY RF-SCORE:    0.00 PKD
ROOT
HETATM    1 CA   UNL     1     -10.090  13.298  69.948  1.00  0.00    -0.342 Ca 
HETATM    2  O   UNL     2     -13.243   7.425  72.077  1.00  0.00    -0.489 OA 
HETATM    3  C   UNL     2     -12.869   8.778  71.797  1.00  0.00    -0.360 C  
HETATM    4  H   UNL     2     -14.078   7.450  72.530  1.00  0.00     0.000 HD 
HETATM    5  O   UNL     3     -11.148  10.727  65.262  1.00  0.00     0.021 OA 
HETATM    6  H   UNL     3     -11.231   9.880  64.840  1.00  0.00     0.000 HD 
HETATM    7  C   UNL     3      -9.720  10.992  65.375  1.00  0.00    -0.232 C  
ENDROOT
BRANCH   3   8
HETATM    8  C   UNL     2     -11.542   8.738  71.075  1.00  0.00    -0.288 C  
HETATM    9  H   UNL     2     -10.590   7.438  69.952  1.00  0.00     0.000 HD 
HETATM   10  O   UNL     2     -11.425   7.464  70.405  1.00  0.00    -0.279 OA 
BRANCH   8  11
HETATM   11  C   UNL     2     -10.287   8.939  71.951  1.00  0.00    -0.337 C  
HETATM   12  C   UNL     2      -8.976   8.304  71.564  1.00  0.00    -0.173 C  
HETATM   13  O   UNL     2     -10.577   8.147  73.109  1.00  0.00    -0.274 OA 
HETATM   14  O   UNL     2     -10.766   5.845  73.159  1.00  0.00    -0.232 OA 
HETATM   15  H   UNL     2      -7.389   6.095  71.110  1.00  0.00     0.000 HD 
HETATM   16  O   UNL     2      -8.015   9.059  71.252  1.00  0.00    -0.216 OA 
HETATM   17  C   UNL     2     -10.289   6.869  72.724  1.00  0.00    -0.213 C  
HETATM   18  C   UNL     2      -9.104   6.982  71.830  1.00  0.00    -0.139 C  
HETATM   19  O   UNL     2      -8.145   6.023  71.680  1.00  0.00    -0.115 OA 
ENDBRANCH   8  11
ENDBRANCH   3   8
BRANCH   7  20
HETATM   20  C   UNL     3      -9.585  12.359  66.055  1.00  0.00    -0.209 C  
HETATM   21  O   UNL     3      -8.854  12.231  67.273  1.00  0.00    -0.174 OA 
HETATM   22  H   UNL     3      -8.770  13.078  67.695  1.00  0.00     0.000 HD 
BRANCH  20  23
HETATM   23  C   UNL     3     -10.792  13.331  66.178  1.00  0.00    -0.280 C  
HETATM   24  O   UNL     3     -12.348  14.264  69.129  1.00  0.00    -0.277 OA 
HETATM   25  C   UNL     3     -11.113  15.287  67.353  1.00  0.00    -0.326 C  
HETATM   26  C   UNL     3     -10.711  14.821  66.164  1.00  0.00    -0.314 C  
HETATM   27  O   UNL     3     -11.241  16.609  67.715  1.00  0.00    -0.222 OA 
HETATM   28  O   UNL     3     -11.612  13.038  67.322  1.00  0.00    -0.315 OA 
HETATM   29  C   UNL     3     -11.701  14.172  68.099  1.00  0.00    -0.355 C  
HETATM   30  O   UNL     3     -10.430  15.323  65.051  1.00  0.00    -0.399 OA 
HETATM   31  H   UNL     3     -10.860  17.332  67.231  1.00  0.00     0.000 HD 
ENDBRANCH  20  23
ENDBRANCH   7  20
TORSDOF 4
ENDMDL
MODEL      339
REMARK 921   NORMALIZED FREE ENERGY PREDICTED BY IDOCK:   -3.37 KCAL/MOL
REMARK 922        TOTAL FREE ENERGY PREDICTED BY IDOCK:   -6.09 KCAL/MOL
REMARK 923 INTER-LIGAND FREE ENERGY PREDICTED BY IDOCK:   -5.12 KCAL/MOL
REMARK 924 INTRA-LIGAND FREE ENERGY PREDICTED BY IDOCK:   -0.97 KCAL/MOL
REMARK 927      BINDING AFFINITY PREDICTED BY RF-SCORE:    0.00 PKD
ROOT
HETATM    1 CA   UNL     1     -11.418   9.678  66.725  1.00  0.00    -0.100 Ca 
HETATM    2  O   UNL     2     -10.503  16.574  67.487  1.00  0.00    -0.299 OA 
HETATM    3  C   UNL     2     -11.016  15.238  67.427  1.00  0.00    -0.321 C  
HETATM    4  H   UNL     2     -11.208  17.134  67.791  1.00  0.00     0.000 HD 
HETATM    5  O   UNL     3      -7.644   9.970  70.644  1.00  0.00    -0.379 OA 
HETATM    6  H   UNL     3      -6.905  10.465  70.977  1.00  0.00     0.000 HD 
HETATM    7  C   UNL     3      -7.143   9.184  69.526  1.00  0.00    -0.059 C  
ENDROOT
BRANCH   3   8
HETATM    8  C   UNL     2      -9.895  14.347  66.944  1.00  0.00    -0.261 C  
HETATM    9  H   UNL     2      -8.382  14.535  65.706  1.00  0.00     0.000 HD 
HETATM   10  O   UNL     2      -9.087  15.095  66.009  1.00  0.00    -0.289 OA 
BRANCH   8  11
HETATM   11  C   UNL     2     -10.322  13.029  66.264  1.00  0.00    -0.285 C  
HETATM   12  C   UNL     2     -11.659  12.406  66.576  1.00  0.00    -0.387 C  
HETATM   13  O   UNL     2      -9.478  12.058  66.895  1.00  0.00    -0.193 OA 
HETATM   14  O   UNL     2      -9.563  11.435  69.118  1.00  0.00    -0.051 OA 
HETATM   15  H   UNL     2     -13.432  11.209  68.315  1.00  0.00     0.000 HD 
HETATM   16  O   UNL     2     -12.516  12.337  65.654  1.00  0.00    -0.591 OA 
HETATM   17  C   UNL     2     -10.085  11.811  68.093  1.00  0.00    -0.192 C  
HETATM   18  C   UNL     2     -11.547  11.875  67.817  1.00  0.00    -0.323 C  
HETATM   19  O   UNL     2     -12.500  11.169  68.491  1.00  0.00    -0.452 OA 
ENDBRANCH   8  11
ENDBRANCH   3   8
BRANCH   7  20
HETATM   20  C   UNL     3      -8.335   8.385  68.987  1.00  0.00    -0.119 C  
HETATM   21  O   UNL     3      -9.495   8.643  69.778  1.00  0.00    -0.163 OA 
HETATM   22  H   UNL     3     -10.234   8.148  69.444  1.00  0.00     0.000 HD 
BRANCH  20  23
HETATM   23  C   UNL     3      -8.200   6.889  68.590  1.00  0.00    -0.121 C  
HETATM   24  O   UNL     3      -5.479   4.853  69.258  1.00  0.00    -0.007 OA 
HETATM   25  C   UNL     3      -7.804   4.975  69.810  1.00  0.00    -0.071 C  
HETATM   26  C   UNL     3      -8.794   5.737  69.330  1.00  0.00    -0.117 C  
HETATM   27  O   UNL     3      -7.940   3.789  70.496  1.00  0.00    -0.053 OA 
HETATM   28  O   UNL     3      -6.831   6.502  68.384  1.00  0.00    -0.065 OA 
HETATM   29  C   UNL     3      -6.550   5.436  69.211  1.00  0.00    -0.047 C  
HETATM   30  O   UNL     3     -10.040   5.641  69.242  1.00  0.00    -0.176 OA 
HETATM   31  H   UNL     3      -8.754   3.490  70.884  1.00  0.00     0.000 HD 
ENDBRANCH  20  23
ENDBRANCH   7  20
TORSDOF 4
ENDMDL
MODEL      340
REMARK 921   NORMALIZED FREE ENERGY PREDICTED BY IDOCK:   -3.36 KCAL/MOL
REMARK 922        TOTAL FREE ENERGY PREDICTED BY IDOCK:   -6.08 KCAL/MOL
REMARK 923 INTER-LIGAND FREE ENERGY PREDICTED BY IDOCK:   -4.22 KCAL/MOL
REMARK 924 INTRA-LIGAND FREE ENERGY PREDICTED BY IDOCK:   -1.85 KCAL/MOL
REMARK 927      BINDING AFFINITY PREDICTED BY RF-SCORE:    0.00 PKD
ROOT
HETATM    1 CA   UNL     1     -11.981   6.600  67.873  1.00  0.00    -0.539 Ca 
HETATM    2  O   UNL     2      -7.065   1.773  69.097  1.00  0.00    -0.036 OA 
HETATM    3  C   UNL     2      -8.060   2.629  68.525  1.00  0.00    -0.056 C  
HETATM    4  H   UNL     2      -6.736   1.216  68.401  1.00  0.00     0.000 HD 
HETATM    5  O   UNL     3      -7.689   9.601  69.377  1.00  0.00    -0.084 OA 
HETATM    6  H   UNL     3      -6.913   9.630  69.924  1.00  0.00     0.000 HD 
HETATM    7  C   UNL     3      -8.821   9.875  70.251  1.00  0.00    -0.028 C  
ENDROOT
BRANCH   3   8
HETATM    8  C   UNL     2      -8.582   3.514  69.633  1.00  0.00    -0.067 C  
HETATM    9  H   UNL     2      -9.666   3.254  71.250  1.00  0.00     0.000 HD 
HETATM   10  O   UNL     2      -9.338   2.697  70.554  1.00  0.00    -0.125 OA 
BRANCH   8  11
HETATM   11  C   UNL     2      -9.475   4.694  69.193  1.00  0.00    -0.157 C  
HETATM   12  C   UNL     2      -9.124   5.504  67.971  1.00  0.00    -0.108 C  
HETATM   13  O   UNL     2      -9.210   5.685  70.193  1.00  0.00    -0.138 OA 
HETATM   14  O   UNL     2      -7.197   6.773  70.516  1.00  0.00    -0.070 OA 
HETATM   15  H   UNL     2      -7.465   7.222  66.592  1.00  0.00     0.000 HD 
HETATM   16  O   UNL     2      -9.905   5.463  66.982  1.00  0.00    -0.136 OA 
HETATM   17  C   UNL     2      -8.024   6.242  69.809  1.00  0.00    -0.118 C  
HETATM   18  C   UNL     2      -8.065   6.273  68.321  1.00  0.00    -0.112 C  
HETATM   19  O   UNL     2      -7.439   7.202  67.541  1.00  0.00    -0.096 OA 
ENDBRANCH   8  11
ENDBRANCH   3   8
BRANCH   7  20
HETATM   20  C   UNL     3     -10.073   9.827  69.368  1.00  0.00    -0.209 C  
HETATM   21  O   UNL     3     -10.558   8.489  69.277  1.00  0.00    -0.221 OA 
HETATM   22  H   UNL     3     -11.334   8.460  68.730  1.00  0.00     0.000 HD 
BRANCH  20  23
HETATM   23  C   UNL     3     -10.142  10.584  68.012  1.00  0.00    -0.165 C  
HETATM   24  O   UNL     3     -12.188  13.289  67.305  1.00  0.00    -0.321 OA 
HETATM   25  C   UNL     3      -9.850  12.797  67.439  1.00  0.00    -0.210 C  
HETATM   26  C   UNL     3      -9.189  11.639  67.557  1.00  0.00    -0.172 C  
HETATM   27  O   UNL     3      -9.338  13.992  66.985  1.00  0.00    -0.230 OA 
HETATM   28  O   UNL     3     -11.438  11.161  67.777  1.00  0.00    -0.403 OA 
HETATM   29  C   UNL     3     -11.282  12.513  67.561  1.00  0.00    -0.291 C  
HETATM   30  O   UNL     3      -8.046  11.223  67.258  1.00  0.00    -0.129 OA 
HETATM   31  H   UNL     3      -8.409  14.175  66.905  1.00  0.00     0.000 HD 
ENDBRANCH  20  23
ENDBRANCH   7  20
TORSDOF 4
ENDMDL
MODEL      341
REMARK 921   NORMALIZED FREE ENERGY PREDICTED BY IDOCK:   -3.36 KCAL/MOL
REMARK 922        TOTAL FREE ENERGY PREDICTED BY IDOCK:   -6.07 KCAL/MOL
REMARK 923 INTER-LIGAND FREE ENERGY PREDICTED BY IDOCK:   -5.33 KCAL/MOL
REMARK 924 INTRA-LIGAND FREE ENERGY PREDICTED BY IDOCK:   -0.73 KCAL/MOL
REMARK 927      BINDING AFFINITY PREDICTED BY RF-SCORE:    0.00 PKD
ROOT
HETATM    1 CA   UNL     1     -12.464   6.293  68.726  1.00  0.00    -0.310 Ca 
HETATM    2  O   UNL     2      -9.087   3.195  63.438  1.00  0.00    -0.092 OA 
HETATM    3  C   UNL     2     -10.057   3.687  64.369  1.00  0.00    -0.203 C  
HETATM    4  H   UNL     2      -9.558   2.720  62.763  1.00  0.00     0.000 HD 
HETATM    5  O   UNL     3     -10.189  10.499  66.116  1.00  0.00    -0.235 OA 
HETATM    6  H   UNL     3      -9.441  10.786  65.604  1.00  0.00     0.000 HD 
HETATM    7  C   UNL     3      -9.753  10.479  67.506  1.00  0.00    -0.166 C  
ENDROOT
BRANCH   3   8
HETATM    8  C   UNL     2      -9.308   4.443  65.442  1.00  0.00    -0.164 C  
HETATM    9  H   UNL     2      -9.664   4.970  67.301  1.00  0.00     0.000 HD 
HETATM   10  O   UNL     2     -10.135   4.495  66.626  1.00  0.00    -0.225 OA 
BRANCH   8  11
HETATM   11  C   UNL     2      -8.886   5.884  65.087  1.00  0.00     0.027 C  
HETATM   12  C   UNL     2      -7.636   6.137  64.282  1.00  0.00    -0.096 C  
HETATM   13  O   UNL     2      -8.442   6.405  66.345  1.00  0.00    -0.114 OA 
HETATM   14  O   UNL     2      -6.585   5.696  67.522  1.00  0.00    -0.049 OA 
HETATM   15  H   UNL     2      -4.899   6.054  63.959  1.00  0.00     0.000 HD 
HETATM   16  O   UNL     2      -7.757   6.642  63.133  1.00  0.00    -0.092 OA 
HETATM   17  C   UNL     2      -7.178   5.909  66.489  1.00  0.00    -0.074 C  
HETATM   18  C   UNL     2      -6.596   5.905  65.119  1.00  0.00    -0.043 C  
HETATM   19  O   UNL     2      -5.270   6.056  64.833  1.00  0.00    -0.013 OA 
ENDBRANCH   8  11
ENDBRANCH   3   8
BRANCH   7  20
HETATM   20  C   UNL     3     -10.959  10.017  68.332  1.00  0.00    -0.217 C  
HETATM   21  O   UNL     3     -12.085  10.851  68.065  1.00  0.00    -0.780 OA 
HETATM   22  H   UNL     3     -12.832  10.565  68.576  1.00  0.00     0.000 HD 
BRANCH  20  23
HETATM   23  C   UNL     3     -10.824   9.654  69.837  1.00  0.00    -0.256 C  
HETATM   24  O   UNL     3     -13.291  10.027  72.240  1.00  0.00    -0.429 OA 
HETATM   25  C   UNL     3     -12.029   8.265  71.226  1.00  0.00    -0.287 C  
HETATM   26  C   UNL     3     -10.964   8.285  70.415  1.00  0.00    -0.239 C  
HETATM   27  O   UNL     3     -12.456   7.206  71.994  1.00  0.00    -0.405 OA 
HETATM   28  O   UNL     3     -11.662  10.471  70.671  1.00  0.00    -0.310 OA 
HETATM   29  C   UNL     3     -12.480   9.646  71.412  1.00  0.00    -0.373 C  
HETATM   30  O   UNL     3     -10.023   7.502  70.149  1.00  0.00    -0.190 OA 
HETATM   31  H   UNL     3     -12.163   6.310  71.873  1.00  0.00     0.000 HD 
ENDBRANCH  20  23
ENDBRANCH   7  20
TORSDOF 4
ENDMDL
MODEL      342
REMARK 921   NORMALIZED FREE ENERGY PREDICTED BY IDOCK:   -3.35 KCAL/MOL
REMARK 922        TOTAL FREE ENERGY PREDICTED BY IDOCK:   -6.05 KCAL/MOL
REMARK 923 INTER-LIGAND FREE ENERGY PREDICTED BY IDOCK:   -6.12 KCAL/MOL
REMARK 924 INTRA-LIGAND FREE ENERGY PREDICTED BY IDOCK:    0.07 KCAL/MOL
REMARK 927      BINDING AFFINITY PREDICTED BY RF-SCORE:    0.00 PKD
ROOT
HETATM    1 CA   UNL     1     -12.404  12.007  67.477  1.00  0.00    -0.306 Ca 
HETATM    2  O   UNL     2      -9.348   7.585  71.957  1.00  0.00    -0.131 OA 
HETATM    3  C   UNL     2     -10.263   8.330  71.146  1.00  0.00    -0.198 C  
HETATM    4  H   UNL     2      -9.853   6.934  72.430  1.00  0.00     0.000 HD 
HETATM    5  O   UNL     3      -9.104   9.110  64.253  1.00  0.00    -0.425 OA 
HETATM    6  H   UNL     3      -8.276   8.647  64.201  1.00  0.00     0.000 HD 
HETATM    7  C   UNL     3      -8.792  10.528  64.141  1.00  0.00    -0.194 C  
ENDROOT
BRANCH   3   8
HETATM    8  C   UNL     2      -9.459   9.365  70.394  1.00  0.00    -0.268 C  
HETATM    9  H   UNL     2      -9.698  10.409  68.747  1.00  0.00     0.000 HD 
HETATM   10  O   UNL     2     -10.204   9.758  69.220  1.00  0.00    -0.182 OA 
BRANCH   8  11
HETATM   11  C   UNL     2      -8.047   8.931  69.945  1.00  0.00    -0.112 C  
HETATM   12  C   UNL     2      -6.824   9.603  70.515  1.00  0.00    -0.126 C  
HETATM   13  O   UNL     2      -7.969   9.438  68.608  1.00  0.00    -0.091 OA 
HETATM   14  O   UNL     2      -7.938  11.670  68.008  1.00  0.00    -0.118 OA 
HETATM   15  H   UNL     2      -5.214  11.812  70.877  1.00  0.00     0.000 HD 
HETATM   16  O   UNL     2      -6.041   8.916  71.226  1.00  0.00    -0.045 OA 
HETATM   17  C   UNL     2      -7.676  10.763  68.766  1.00  0.00    -0.121 C  
HETATM   18  C   UNL     2      -6.766  10.829  69.942  1.00  0.00    -0.156 C  
HETATM   19  O   UNL     2      -5.795  11.770  70.127  1.00  0.00    -0.126 OA 
ENDBRANCH   8  11
ENDBRANCH   3   8
BRANCH   7  20
HETATM   20  C   UNL     3     -10.129  11.274  64.225  1.00  0.00    -0.313 C  
HETATM   21  O   UNL     3     -11.021  10.795  63.221  1.00  0.00    -0.568 OA 
HETATM   22  H   UNL     3     -11.849  11.258  63.273  1.00  0.00     0.000 HD 
BRANCH  20  23
HETATM   23  C   UNL     3     -10.190  12.817  64.397  1.00  0.00    -0.319 C  
HETATM   24  O   UNL     3     -13.034  14.775  64.122  1.00  0.00    -0.550 OA 
HETATM   25  C   UNL     3     -11.415  14.190  65.784  1.00  0.00    -0.327 C  
HETATM   26  C   UNL     3     -10.246  13.544  65.700  1.00  0.00    -0.296 C  
HETATM   27  O   UNL     3     -11.821  15.022  66.803  1.00  0.00    -0.245 OA 
HETATM   28  O   UNL     3     -11.246  13.410  63.623  1.00  0.00    -0.216 OA 
HETATM   29  C   UNL     3     -12.060  14.128  64.471  1.00  0.00    -0.468 C  
HETATM   30  O   UNL     3      -9.183  13.519  66.363  1.00  0.00    -0.220 OA 
HETATM   31  H   UNL     3     -11.402  15.062  67.655  1.00  0.00     0.000 HD 
ENDBRANCH  20  23
ENDBRANCH   7  20
TORSDOF 4
ENDMDL
MODEL      343
REMARK 921   NORMALIZED FREE ENERGY PREDICTED BY IDOCK:   -3.34 KCAL/MOL
REMARK 922        TOTAL FREE ENERGY PREDICTED BY IDOCK:   -6.05 KCAL/MOL
REMARK 923 INTER-LIGAND FREE ENERGY PREDICTED BY IDOCK:   -5.71 KCAL/MOL
REMARK 924 INTRA-LIGAND FREE ENERGY PREDICTED BY IDOCK:   -0.34 KCAL/MOL
REMARK 927      BINDING AFFINITY PREDICTED BY RF-SCORE:    0.00 PKD
ROOT
HETATM    1 CA   UNL     1     -12.477   9.381  69.857  1.00  0.00    -0.467 Ca 
HETATM    2  O   UNL     2     -10.055  12.896  64.311  1.00  0.00    -0.564 OA 
HETATM    3  C   UNL     2     -10.735  12.467  65.497  1.00  0.00    -0.280 C  
HETATM    4  H   UNL     2     -10.323  13.791  64.139  1.00  0.00     0.000 HD 
HETATM    5  O   UNL     3      -7.135   9.717  70.877  1.00  0.00    -0.255 OA 
HETATM    6  H   UNL     3      -6.269   9.743  70.489  1.00  0.00     0.000 HD 
HETATM    7  C   UNL     3      -7.553   8.322  70.859  1.00  0.00    -0.076 C  
ENDROOT
BRANCH   3   8
HETATM    8  C   UNL     2     -10.308  11.043  65.770  1.00  0.00    -0.257 C  
HETATM    9  H   UNL     2     -10.545   9.761  67.239  1.00  0.00     0.000 HD 
HETATM   10  O   UNL     2     -10.814  10.656  67.067  1.00  0.00    -0.267 OA 
BRANCH   8  11
HETATM   11  C   UNL     2      -8.788  10.775  65.747  1.00  0.00    -0.188 C  
HETATM   12  C   UNL     2      -8.187   9.879  64.693  1.00  0.00    -0.153 C  
HETATM   13  O   UNL     2      -8.597   9.928  66.886  1.00  0.00    -0.127 OA 
HETATM   14  O   UNL     2      -9.405   7.776  67.121  1.00  0.00    -0.139 OA 
HETATM   15  H   UNL     2      -7.883   7.419  63.485  1.00  0.00     0.000 HD 
HETATM   16  O   UNL     2      -7.396  10.390  63.854  1.00  0.00    -0.100 OA 
HETATM   17  C   UNL     2      -8.975   8.690  66.453  1.00  0.00    -0.161 C  
HETATM   18  C   UNL     2      -8.532   8.614  65.034  1.00  0.00    -0.173 C  
HETATM   19  O   UNL     2      -8.165   7.468  64.390  1.00  0.00    -0.114 OA 
ENDBRANCH   8  11
ENDBRANCH   3   8
BRANCH   7  20
HETATM   20  C   UNL     3      -8.952   8.280  71.486  1.00  0.00    -0.173 C  
HETATM   21  O   UNL     3      -8.916   8.833  72.801  1.00  0.00    -0.361 OA 
HETATM   22  H   UNL     3      -9.783   8.807  73.189  1.00  0.00     0.000 HD 
BRANCH  20  23
HETATM   23  C   UNL     3      -9.849   7.015  71.390  1.00  0.00    -0.177 C  
HETATM   24  O   UNL     3     -11.216   5.293  74.067  1.00  0.00    -0.139 OA 
HETATM   25  C   UNL     3     -11.966   6.536  72.165  1.00  0.00    -0.290 C  
HETATM   26  C   UNL     3     -11.313   7.010  71.097  1.00  0.00    -0.282 C  
HETATM   27  O   UNL     3     -13.321   6.317  72.267  1.00  0.00    -0.447 OA 
HETATM   28  O   UNL     3      -9.723   6.169  72.545  1.00  0.00    -0.157 OA 
HETATM   29  C   UNL     3     -10.975   5.985  73.091  1.00  0.00    -0.239 C  
HETATM   30  O   UNL     3     -11.615   7.305  69.918  1.00  0.00    -0.127 OA 
HETATM   31  H   UNL     3     -13.964   6.674  71.666  1.00  0.00     0.000 HD 
ENDBRANCH  20  23
ENDBRANCH   7  20
TORSDOF 4
ENDMDL
MODEL      344
REMARK 921   NORMALIZED FREE ENERGY PREDICTED BY IDOCK:   -3.34 KCAL/MOL
REMARK 922        TOTAL FREE ENERGY PREDICTED BY IDOCK:   -6.05 KCAL/MOL
REMARK 923 INTER-LIGAND FREE ENERGY PREDICTED BY IDOCK:   -4.95 KCAL/MOL
REMARK 924 INTRA-LIGAND FREE ENERGY PREDICTED BY IDOCK:   -1.09 KCAL/MOL
REMARK 927      BINDING AFFINITY PREDICTED BY RF-SCORE:    0.00 PKD
ROOT
HETATM    1 CA   UNL     1      -7.178  10.648  69.852  1.00  0.00    -0.083 Ca 
HETATM    2  O   UNL     2     -12.117   6.675  72.819  1.00  0.00    -0.475 OA 
HETATM    3  C   UNL     2     -11.100   7.640  72.524  1.00  0.00    -0.336 C  
HETATM    4  H   UNL     2     -12.407   6.832  73.710  1.00  0.00     0.000 HD 
HETATM    5  O   UNL     3     -11.560  11.673  66.781  1.00  0.00    -0.503 OA 
HETATM    6  H   UNL     3     -12.363  11.311  66.424  1.00  0.00     0.000 HD 
HETATM    7  C   UNL     3     -10.476  11.169  65.951  1.00  0.00    -0.253 C  
ENDROOT
BRANCH   3   8
HETATM    8  C   UNL     2     -10.640   7.390  71.107  1.00  0.00    -0.222 C  
HETATM    9  H   UNL     2     -11.167   8.025  69.324  1.00  0.00     0.000 HD 
HETATM   10  O   UNL     2     -11.456   8.183  70.216  1.00  0.00    -0.200 OA 
BRANCH   8  11
HETATM   11  C   UNL     2     -10.687   5.924  70.627  1.00  0.00    -0.285 C  
HETATM   12  C   UNL     2      -9.637   4.939  71.075  1.00  0.00    -0.174 C  
HETATM   13  O   UNL     2     -10.313   6.028  69.248  1.00  0.00    -0.189 OA 
HETATM   14  O   UNL     2      -8.239   6.667  68.456  1.00  0.00    -0.117 OA 
HETATM   15  H   UNL     2      -7.031   4.042  71.161  1.00  0.00     0.000 HD 
HETATM   16  O   UNL     2      -9.994   3.973  71.802  1.00  0.00    -0.179 OA 
HETATM   17  C   UNL     2      -8.952   6.133  69.276  1.00  0.00    -0.123 C  
HETATM   18  C   UNL     2      -8.509   5.257  70.395  1.00  0.00    -0.115 C  
HETATM   19  O   UNL     2      -7.314   4.601  70.447  1.00  0.00    -0.048 OA 
ENDBRANCH   8  11
ENDBRANCH   3   8
BRANCH   7  20
HETATM   20  C   UNL     3      -9.180  11.753  66.526  1.00  0.00    -0.201 C  
HETATM   21  O   UNL     3      -8.194  10.730  66.649  1.00  0.00    -0.129 OA 
HETATM   22  H   UNL     3      -7.391  11.092  67.006  1.00  0.00     0.000 HD 
BRANCH  20  23
HETATM   23  C   UNL     3      -9.194  12.723  67.740  1.00  0.00    -0.199 C  
HETATM   24  O   UNL     3      -6.402  14.022  69.326  1.00  0.00    -0.098 OA 
HETATM   25  C   UNL     3      -8.286  14.814  68.082  1.00  0.00    -0.144 C  
HETATM   26  C   UNL     3      -9.401  14.200  67.668  1.00  0.00    -0.209 C  
HETATM   27  O   UNL     3      -8.100  16.171  68.221  1.00  0.00    -0.146 OA 
HETATM   28  O   UNL     3      -8.028  12.576  68.568  1.00  0.00    -0.142 OA 
HETATM   29  C   UNL     3      -7.406  13.802  68.669  1.00  0.00    -0.117 C  
HETATM   30  O   UNL     3     -10.568  14.554  67.380  1.00  0.00    -0.266 OA 
HETATM   31  H   UNL     3      -8.672  16.827  67.840  1.00  0.00     0.000 HD 
ENDBRANCH  20  23
ENDBRANCH   7  20
TORSDOF 4
ENDMDL
MODEL      345
REMARK 921   NORMALIZED FREE ENERGY PREDICTED BY IDOCK:   -3.33 KCAL/MOL
REMARK 922        TOTAL FREE ENERGY PREDICTED BY IDOCK:   -6.03 KCAL/MOL
REMARK 923 INTER-LIGAND FREE ENERGY PREDICTED BY IDOCK:   -5.08 KCAL/MOL
REMARK 924 INTRA-LIGAND FREE ENERGY PREDICTED BY IDOCK:   -0.95 KCAL/MOL
REMARK 927      BINDING AFFINITY PREDICTED BY RF-SCORE:    0.00 PKD
ROOT
HETATM    1 CA   UNL     1     -11.783   5.765  67.475  1.00  0.00    -0.404 Ca 
HETATM    2  O   UNL     2     -11.486  12.327  69.886  1.00  0.00    -0.472 OA 
HETATM    3  C   UNL     2     -11.861  10.989  69.541  1.00  0.00    -0.333 C  
HETATM    4  H   UNL     2     -12.192  12.695  70.404  1.00  0.00     0.000 HD 
HETATM    5  O   UNL     3      -7.525   5.612  70.872  1.00  0.00    -0.084 OA 
HETATM    6  H   UNL     3      -6.801   6.108  71.234  1.00  0.00     0.000 HD 
HETATM    7  C   UNL     3      -7.115   5.198  69.537  1.00  0.00    -0.056 C  
ENDROOT
BRANCH   3   8
HETATM    8  C   UNL     2     -10.737  10.404  68.719  1.00  0.00    -0.225 C  
HETATM    9  H   UNL     2      -9.139   9.322  69.086  1.00  0.00     0.000 HD 
HETATM   10  O   UNL     2      -9.847   9.689  69.604  1.00  0.00    -0.188 OA 
BRANCH   8  11
HETATM   11  C   UNL     2      -9.897  11.412  67.904  1.00  0.00    -0.179 C  
HETATM   12  C   UNL     2     -10.412  11.951  66.593  1.00  0.00    -0.216 C  
HETATM   13  O   UNL     2      -8.829  10.603  67.400  1.00  0.00    -0.132 OA 
HETATM   14  O   UNL     2      -9.040   8.888  65.866  1.00  0.00    -0.190 OA 
HETATM   15  H   UNL     2     -11.188  11.618  63.968  1.00  0.00     0.000 HD 
HETATM   16  O   UNL     2     -10.675  13.182  66.515  1.00  0.00    -0.276 OA 
HETATM   17  C   UNL     2      -9.372   9.957  66.327  1.00  0.00    -0.176 C  
HETATM   18  C   UNL     2     -10.296  10.940  65.699  1.00  0.00    -0.242 C  
HETATM   19  O   UNL     2     -10.598  10.990  64.369  1.00  0.00    -0.352 OA 
ENDBRANCH   8  11
ENDBRANCH   3   8
BRANCH   7  20
HETATM   20  C   UNL     3      -8.285   4.398  68.952  1.00  0.00    -0.079 C  
HETATM   21  O   UNL     3      -8.572   3.272  69.781  1.00  0.00    -0.058 OA 
HETATM   22  H   UNL     3      -9.296   2.777  69.419  1.00  0.00     0.000 HD 
BRANCH  20  23
HETATM   23  C   UNL     3      -8.365   4.064  67.437  1.00  0.00    -0.098 C  
HETATM   24  O   UNL     3     -11.121   4.559  65.397  1.00  0.00    -0.204 OA 
HETATM   25  C   UNL     3      -8.864   5.332  65.579  1.00  0.00    -0.153 C  
HETATM   26  C   UNL     3      -7.838   4.916  66.331  1.00  0.00    -0.099 C  
HETATM   27  O   UNL     3      -8.786   6.086  64.430  1.00  0.00    -0.349 OA 
HETATM   28  O   UNL     3      -9.703   3.743  67.020  1.00  0.00    -0.212 OA 
HETATM   29  C   UNL     3     -10.056   4.589  65.992  1.00  0.00    -0.259 C  
HETATM   30  O   UNL     3      -6.589   4.957  66.248  1.00  0.00    -0.046 OA 
HETATM   31  H   UNL     3      -8.012   6.568  64.162  1.00  0.00     0.000 HD 
ENDBRANCH  20  23
ENDBRANCH   7  20
TORSDOF 4
ENDMDL
MODEL      346
REMARK 921   NORMALIZED FREE ENERGY PREDICTED BY IDOCK:   -3.32 KCAL/MOL
REMARK 922        TOTAL FREE ENERGY PREDICTED BY IDOCK:   -6.02 KCAL/MOL
REMARK 923 INTER-LIGAND FREE ENERGY PREDICTED BY IDOCK:   -5.42 KCAL/MOL
REMARK 924 INTRA-LIGAND FREE ENERGY PREDICTED BY IDOCK:   -0.60 KCAL/MOL
REMARK 927      BINDING AFFINITY PREDICTED BY RF-SCORE:    0.00 PKD
ROOT
HETATM    1 CA   UNL     1      -7.539   9.463  70.295  1.00  0.00    -0.054 Ca 
HETATM    2  O   UNL     2     -10.135  12.605  64.606  1.00  0.00    -0.428 OA 
HETATM    3  C   UNL     2      -9.300  12.026  65.615  1.00  0.00    -0.078 C  
HETATM    4  H   UNL     2      -9.568  12.899  63.903  1.00  0.00     0.000 HD 
HETATM    5  O   UNL     3     -10.600   5.556  68.047  1.00  0.00    -0.201 OA 
HETATM    6  H   UNL     3     -11.383   5.375  67.542  1.00  0.00     0.000 HD 
HETATM    7  C   UNL     3     -11.039   5.812  69.412  1.00  0.00    -0.189 C  
ENDROOT
BRANCH   3   8
HETATM    8  C   UNL     2     -10.202  11.558  66.733  1.00  0.00    -0.219 C  
HETATM    9  H   UNL     2     -10.906   9.828  67.341  1.00  0.00     0.000 HD 
HETATM   10  O   UNL     2     -10.338  10.122  66.639  1.00  0.00    -0.225 OA 
BRANCH   8  11
HETATM   11  C   UNL     2     -11.617  12.174  66.765  1.00  0.00    -0.345 C  
HETATM   12  C   UNL     2     -11.828  13.576  67.277  1.00  0.00    -0.385 C  
HETATM   13  O   UNL     2     -12.253  11.457  67.830  1.00  0.00    -0.537 OA 
HETATM   14  O   UNL     2     -11.686  11.578  70.066  1.00  0.00    -0.311 OA 
HETATM   15  H   UNL     2     -11.777  15.459  69.291  1.00  0.00     0.000 HD 
HETATM   16  O   UNL     2     -12.230  14.454  66.465  1.00  0.00    -0.424 OA 
HETATM   17  C   UNL     2     -11.798  12.066  68.964  1.00  0.00    -0.315 C  
HETATM   18  C   UNL     2     -11.690  13.511  68.622  1.00  0.00    -0.354 C  
HETATM   19  O   UNL     2     -11.845  14.537  69.509  1.00  0.00    -0.291 OA 
ENDBRANCH   8  11
ENDBRANCH   3   8
BRANCH   7  20
HETATM   20  C   UNL     3      -9.775   6.104  70.228  1.00  0.00    -0.164 C  
HETATM   21  O   UNL     3      -9.130   7.275  69.730  1.00  0.00    -0.142 OA 
HETATM   22  H   UNL     3      -8.347   7.456  70.236  1.00  0.00     0.000 HD 
BRANCH  20  23
HETATM   23  C   UNL     3      -8.771   4.979  70.604  1.00  0.00    -0.122 C  
HETATM   24  O   UNL     3      -6.545   5.053  73.258  1.00  0.00    -0.061 OA 
HETATM   25  C   UNL     3      -8.429   3.767  72.534  1.00  0.00    -0.090 C  
HETATM   26  C   UNL     3      -9.100   3.744  71.376  1.00  0.00    -0.115 C  
HETATM   27  O   UNL     3      -8.417   2.781  73.495  1.00  0.00    -0.071 OA 
HETATM   28  O   UNL     3      -7.596   5.492  71.254  1.00  0.00    -0.093 OA 
HETATM   29  C   UNL     3      -7.459   4.862  72.472  1.00  0.00    -0.090 C  
HETATM   30  O   UNL     3      -9.796   2.907  70.758  1.00  0.00    -0.118 OA 
HETATM   31  H   UNL     3      -9.046   2.070  73.535  1.00  0.00     0.000 HD 
ENDBRANCH  20  23
ENDBRANCH   7  20
TORSDOF 4
ENDMDL
MODEL      347
REMARK 921   NORMALIZED FREE ENERGY PREDICTED BY IDOCK:   -3.31 KCAL/MOL
REMARK 922        TOTAL FREE ENERGY PREDICTED BY IDOCK:   -6.01 KCAL/MOL
REMARK 923 INTER-LIGAND FREE ENERGY PREDICTED BY IDOCK:   -5.03 KCAL/MOL
REMARK 924 INTRA-LIGAND FREE ENERGY PREDICTED BY IDOCK:   -0.98 KCAL/MOL
REMARK 927      BINDING AFFINITY PREDICTED BY RF-SCORE:    0.00 PKD
ROOT
HETATM    1 CA   UNL     1     -12.682   6.520  69.471  1.00  0.00    -0.600 Ca 
HETATM    2  O   UNL     2      -9.083   3.744  64.150  1.00  0.00    -0.117 OA 
HETATM    3  C   UNL     2     -10.094   4.217  65.047  1.00  0.00    -0.208 C  
HETATM    4  H   UNL     2      -9.525   3.398  63.383  1.00  0.00     0.000 HD 
HETATM    5  O   UNL     3      -9.810  10.760  67.612  1.00  0.00    -0.167 OA 
HETATM    6  H   UNL     3      -8.994  11.030  67.207  1.00  0.00     0.000 HD 
HETATM    7  C   UNL     3      -9.516  10.536  69.020  1.00  0.00    -0.201 C  
ENDROOT
BRANCH   3   8
HETATM    8  C   UNL     2      -9.391   4.766  66.267  1.00  0.00    -0.149 C  
HETATM    9  H   UNL     2      -9.873   5.085  68.144  1.00  0.00     0.000 HD 
HETATM   10  O   UNL     2     -10.315   4.739  67.378  1.00  0.00    -0.128 OA 
BRANCH   8  11
HETATM   11  C   UNL     2      -8.834   6.200  66.140  1.00  0.00    -0.152 C  
HETATM   12  C   UNL     2      -7.443   6.435  65.606  1.00  0.00    -0.082 C  
HETATM   13  O   UNL     2      -8.608   6.576  67.503  1.00  0.00    -0.119 OA 
HETATM   14  O   UNL     2      -7.045   5.637  68.923  1.00  0.00    -0.065 OA 
HETATM   15  H   UNL     2      -4.703   6.188  65.780  1.00  0.00     0.000 HD 
HETATM   16  O   UNL     2      -7.319   7.045  64.510  1.00  0.00    -0.071 OA 
HETATM   17  C   UNL     2      -7.422   5.982  67.825  1.00  0.00    -0.085 C  
HETATM   18  C   UNL     2      -6.593   6.057  66.591  1.00  0.00    -0.059 C  
HETATM   19  O   UNL     2      -5.231   6.139  66.568  1.00  0.00    -0.008 OA 
ENDBRANCH   8  11
ENDBRANCH   3   8
BRANCH   7  20
HETATM   20  C   UNL     3     -10.832  10.101  69.675  1.00  0.00    -0.263 C  
HETATM   21  O   UNL     3     -11.346  11.153  70.489  1.00  0.00    -0.457 OA 
HETATM   22  H   UNL     3     -12.161  10.883  70.895  1.00  0.00     0.000 HD 
BRANCH  20  23
HETATM   23  C   UNL     3     -10.990   8.701  70.331  1.00  0.00    -0.235 C  
HETATM   24  O   UNL     3      -8.753   7.228  72.527  1.00  0.00    -0.120 OA 
HETATM   25  C   UNL     3     -11.019   7.995  72.525  1.00  0.00    -0.364 C  
HETATM   26  C   UNL     3     -11.823   8.395  71.532  1.00  0.00    -0.297 C  
HETATM   27  O   UNL     3     -11.409   7.565  73.773  1.00  0.00    -0.441 OA 
HETATM   28  O   UNL     3      -9.723   8.089  70.622  1.00  0.00    -0.172 OA 
HETATM   29  C   UNL     3      -9.683   7.782  71.965  1.00  0.00    -0.173 C  
HETATM   30  O   UNL     3     -13.060   8.437  71.339  1.00  0.00    -0.299 OA 
HETATM   31  H   UNL     3     -12.277   7.702  74.135  1.00  0.00     0.000 HD 
ENDBRANCH  20  23
ENDBRANCH   7  20
TORSDOF 4
ENDMDL
MODEL      348
REMARK 921   NORMALIZED FREE ENERGY PREDICTED BY IDOCK:   -3.31 KCAL/MOL
REMARK 922        TOTAL FREE ENERGY PREDICTED BY IDOCK:   -6.01 KCAL/MOL
REMARK 923 INTER-LIGAND FREE ENERGY PREDICTED BY IDOCK:   -5.48 KCAL/MOL
REMARK 924 INTRA-LIGAND FREE ENERGY PREDICTED BY IDOCK:   -0.54 KCAL/MOL
REMARK 927      BINDING AFFINITY PREDICTED BY RF-SCORE:    0.00 PKD
ROOT
HETATM    1 CA   UNL     1      -6.367  12.788  66.550  1.00  0.00    -0.304 Ca 
HETATM    2  O   UNL     2     -10.541  18.358  65.826  1.00  0.00    -0.570 OA 
HETATM    3  C   UNL     2      -9.436  17.450  65.908  1.00  0.00     0.007 C  
HETATM    4  H   UNL     2     -10.190  19.210  65.593  1.00  0.00     0.000 HD 
HETATM    5  O   UNL     3      -9.522  11.394  62.333  1.00  0.00    -0.507 OA 
HETATM    6  H   UNL     3     -10.386  11.476  61.946  1.00  0.00     0.000 HD 
HETATM    7  C   UNL     3      -9.637  10.401  63.392  1.00  0.00    -0.312 C  
ENDROOT
BRANCH   3   8
HETATM    8  C   UNL     2      -9.994  16.096  66.280  1.00  0.00    -0.317 C  
HETATM    9  H   UNL     2     -11.498  14.982  65.684  1.00  0.00     0.000 HD 
HETATM   10  O   UNL     2     -11.147  15.834  65.450  1.00  0.00    -0.303 OA 
BRANCH   8  11
HETATM   11  C   UNL     2     -10.411  15.916  67.755  1.00  0.00    -0.287 C  
HETATM   12  C   UNL     2      -9.653  14.971  68.653  1.00  0.00    -0.219 C  
HETATM   13  O   UNL     2     -11.636  15.181  67.652  1.00  0.00    -0.336 OA 
HETATM   14  O   UNL     2     -11.849  13.012  66.882  1.00  0.00    -0.366 OA 
HETATM   15  H   UNL     2      -8.817  12.441  69.361  1.00  0.00     0.000 HD 
HETATM   16  O   UNL     2      -9.015  15.455  69.627  1.00  0.00    -0.263 OA 
HETATM   17  C   UNL     2     -11.238  13.890  67.449  1.00  0.00    -0.312 C  
HETATM   18  C   UNL     2     -10.007  13.721  68.269  1.00  0.00    -0.243 C  
HETATM   19  O   UNL     2      -9.602  12.548  68.837  1.00  0.00     0.026 OA 
ENDBRANCH   8  11
ENDBRANCH   3   8
BRANCH   7  20
HETATM   20  C   UNL     3      -8.243  10.269  64.016  1.00  0.00    -0.151 C  
HETATM   21  O   UNL     3      -7.531   9.196  63.401  1.00  0.00    -0.096 OA 
HETATM   22  H   UNL     3      -6.668   9.114  63.787  1.00  0.00     0.000 HD 
BRANCH  20  23
HETATM   23  C   UNL     3      -8.030  10.327  65.554  1.00  0.00    -0.151 C  
HETATM   24  O   UNL     3     -10.028   8.797  67.935  1.00  0.00    -0.169 OA 
HETATM   25  C   UNL     3      -7.766   8.696  67.160  1.00  0.00    -0.096 C  
HETATM   26  C   UNL     3      -7.073   9.485  66.331  1.00  0.00    -0.088 C  
HETATM   27  O   UNL     3      -7.245   7.820  68.086  1.00  0.00    -0.085 OA 
HETATM   28  O   UNL     3      -9.266  10.207  66.279  1.00  0.00    -0.150 OA 
HETATM   29  C   UNL     3      -9.160   9.147  67.153  1.00  0.00    -0.126 C  
HETATM   30  O   UNL     3      -5.865   9.768  66.160  1.00  0.00    -0.058 OA 
HETATM   31  H   UNL     3      -6.341   7.527  68.090  1.00  0.00     0.000 HD 
ENDBRANCH  20  23
ENDBRANCH   7  20
TORSDOF 4
ENDMDL
MODEL      349
REMARK 921   NORMALIZED FREE ENERGY PREDICTED BY IDOCK:   -3.30 KCAL/MOL
REMARK 922        TOTAL FREE ENERGY PREDICTED BY IDOCK:   -6.00 KCAL/MOL
REMARK 923 INTER-LIGAND FREE ENERGY PREDICTED BY IDOCK:   -5.59 KCAL/MOL
REMARK 924 INTRA-LIGAND FREE ENERGY PREDICTED BY IDOCK:   -0.41 KCAL/MOL
REMARK 927      BINDING AFFINITY PREDICTED BY RF-SCORE:    0.00 PKD
ROOT
HETATM    1 CA   UNL     1     -11.595  16.308  68.591  1.00  0.00    -0.290 Ca 
HETATM    2  O   UNL     2     -12.345  11.544  63.520  1.00  0.00    -0.585 OA 
HETATM    3  C   UNL     2     -12.425  12.694  64.370  1.00  0.00    -0.428 C  
HETATM    4  H   UNL     2     -12.909  11.704  62.772  1.00  0.00     0.000 HD 
HETATM    5  O   UNL     3      -6.580  15.984  66.485  1.00  0.00    -0.131 OA 
HETATM    6  H   UNL     3      -5.944  15.411  66.073  1.00  0.00     0.000 HD 
HETATM    7  C   UNL     3      -6.544  15.683  67.910  1.00  0.00    -0.153 C  
ENDROOT
BRANCH   3   8
HETATM    8  C   UNL     2     -11.528  12.439  65.558  1.00  0.00    -0.361 C  
HETATM    9  H   UNL     2     -11.008  13.437  67.168  1.00  0.00     0.000 HD 
HETATM   10  O   UNL     2     -11.573  13.597  66.421  1.00  0.00    -0.323 OA 
BRANCH   8  11
HETATM   11  C   UNL     2     -10.049  12.135  65.238  1.00  0.00    -0.265 C  
HETATM   12  C   UNL     2      -9.649  10.792  64.680  1.00  0.00    -0.268 C  
HETATM   13  O   UNL     2      -9.460  12.013  66.538  1.00  0.00    -0.216 OA 
HETATM   14  O   UNL     2      -9.912  10.349  68.076  1.00  0.00    -0.151 OA 
HETATM   15  H   UNL     2      -9.387   8.056  64.893  1.00  0.00     0.000 HD 
HETATM   16  O   UNL     2      -9.178  10.747  63.511  1.00  0.00    -0.215 OA 
HETATM   17  C   UNL     2      -9.789  10.751  66.940  1.00  0.00    -0.187 C  
HETATM   18  C   UNL     2      -9.736   9.916  65.709  1.00  0.00    -0.266 C  
HETATM   19  O   UNL     2      -9.421   8.588  65.678  1.00  0.00    -0.133 OA 
ENDBRANCH   8  11
ENDBRANCH   3   8
BRANCH   7  20
HETATM   20  C   UNL     3      -7.570  16.608  68.575  1.00  0.00    -0.212 C  
HETATM   21  O   UNL     3      -8.850  15.980  68.603  1.00  0.00    -0.189 OA 
HETATM   22  H   UNL     3      -9.486  16.553  69.015  1.00  0.00     0.000 HD 
BRANCH  20  23
HETATM   23  C   UNL     3      -7.650  18.120  68.226  1.00  0.00    -0.274 C  
HETATM   24  O   UNL     3      -6.901  20.737  70.368  1.00  0.00     0.159 OA 
HETATM   25  C   UNL     3      -6.105  19.828  68.303  1.00  0.00    -0.237 C  
HETATM   26  C   UNL     3      -6.612  18.896  67.486  1.00  0.00    -0.199 C  
HETATM   27  O   UNL     3      -5.169  20.783  67.976  1.00  0.00    -0.219 OA 
HETATM   28  O   UNL     3      -7.935  18.931  69.378  1.00  0.00    -0.038 OA 
HETATM   29  C   UNL     3      -6.940  19.876  69.505  1.00  0.00    -0.231 C  
HETATM   30  O   UNL     3      -6.522  18.626  66.266  1.00  0.00    -0.181 OA 
HETATM   31  H   UNL     3      -4.628  20.753  67.196  1.00  0.00     0.000 HD 
ENDBRANCH  20  23
ENDBRANCH   7  20
TORSDOF 4
ENDMDL
MODEL      350
REMARK 921   NORMALIZED FREE ENERGY PREDICTED BY IDOCK:   -3.28 KCAL/MOL
REMARK 922        TOTAL FREE ENERGY PREDICTED BY IDOCK:   -5.98 KCAL/MOL
REMARK 923 INTER-LIGAND FREE ENERGY PREDICTED BY IDOCK:   -4.42 KCAL/MOL
REMARK 924 INTRA-LIGAND FREE ENERGY PREDICTED BY IDOCK:   -1.55 KCAL/MOL
REMARK 927      BINDING AFFINITY PREDICTED BY RF-SCORE:    0.00 PKD
ROOT
HETATM    1 CA   UNL     1      -7.686  10.183  64.309  1.00  0.00    -0.116 Ca 
HETATM    2  O   UNL     2     -13.392  14.158  65.094  1.00  0.00    -0.684 OA 
HETATM    3  C   UNL     2     -12.382  13.250  64.639  1.00  0.00    -0.391 C  
HETATM    4  H   UNL     2     -14.102  14.132  64.463  1.00  0.00     0.000 HD 
HETATM    5  O   UNL     3      -9.871   8.264  68.917  1.00  0.00    -0.171 OA 
HETATM    6  H   UNL     3     -10.370   8.487  69.694  1.00  0.00     0.000 HD 
HETATM    7  C   UNL     3      -8.507   8.711  69.159  1.00  0.00    -0.124 C  
ENDROOT
BRANCH   3   8
HETATM    8  C   UNL     2     -11.254  13.292  65.643  1.00  0.00    -0.285 C  
HETATM    9  H   UNL     2      -9.553  14.261  65.810  1.00  0.00     0.000 HD 
HETATM   10  O   UNL     2     -10.263  14.236  65.179  1.00  0.00    -0.377 OA 
BRANCH   8  11
HETATM   11  C   UNL     2     -10.545  11.949  65.922  1.00  0.00    -0.266 C  
HETATM   12  C   UNL     2     -10.971  11.087  67.084  1.00  0.00    -0.283 C  
HETATM   13  O   UNL     2      -9.265  12.361  66.416  1.00  0.00    -0.231 OA 
HETATM   14  O   UNL     2      -8.878  13.467  68.407  1.00  0.00    -0.182 OA 
HETATM   15  H   UNL     2     -11.272  10.633  69.787  1.00  0.00     0.000 HD 
HETATM   16  O   UNL     2     -11.480   9.960  66.837  1.00  0.00     0.248 OA 
HETATM   17  C   UNL     2      -9.496  12.683  67.723  1.00  0.00    -0.198 C  
HETATM   18  C   UNL     2     -10.512  11.705  68.198  1.00  0.00    -0.195 C  
HETATM   19  O   UNL     2     -10.624  11.257  69.483  1.00  0.00    -0.162 OA 
ENDBRANCH   8  11
ENDBRANCH   3   8
BRANCH   7  20
HETATM   20  C   UNL     3      -7.702   8.350  67.905  1.00  0.00    -0.103 C  
HETATM   21  O   UNL     3      -7.038   9.507  67.400  1.00  0.00    -0.084 OA 
HETATM   22  H   UNL     3      -6.539   9.284  66.623  1.00  0.00     0.000 HD 
BRANCH  20  23
HETATM   23  C   UNL     3      -8.303   7.463  66.780  1.00  0.00    -0.122 C  
HETATM   24  O   UNL     3      -7.594   7.725  63.399  1.00  0.00    -0.108 OA 
HETATM   25  C   UNL     3      -7.348   6.127  65.163  1.00  0.00    -0.073 C  
HETATM   26  C   UNL     3      -7.835   6.095  66.410  1.00  0.00    -0.104 C  
HETATM   27  O   UNL     3      -6.877   5.055  64.439  1.00  0.00    -0.046 OA 
HETATM   28  O   UNL     3      -8.379   8.156  65.523  1.00  0.00    -0.138 OA 
HETATM   29  C   UNL     3      -7.695   7.423  64.577  1.00  0.00    -0.126 C  
HETATM   30  O   UNL     3      -8.103   5.203  67.247  1.00  0.00    -0.103 OA 
HETATM   31  H   UNL     3      -6.653   4.214  64.819  1.00  0.00     0.000 HD 
ENDBRANCH  20  23
ENDBRANCH   7  20
TORSDOF 4
ENDMDL
MODEL      351
REMARK 921   NORMALIZED FREE ENERGY PREDICTED BY IDOCK:   -3.28 KCAL/MOL
REMARK 922        TOTAL FREE ENERGY PREDICTED BY IDOCK:   -5.97 KCAL/MOL
REMARK 923 INTER-LIGAND FREE ENERGY PREDICTED BY IDOCK:   -4.63 KCAL/MOL
REMARK 924 INTRA-LIGAND FREE ENERGY PREDICTED BY IDOCK:   -1.34 KCAL/MOL
REMARK 927      BINDING AFFINITY PREDICTED BY RF-SCORE:    0.00 PKD
ROOT
HETATM    1 CA   UNL     1      -7.396  11.402  67.393  1.00  0.00    -0.084 Ca 
HETATM    2  O   UNL     2     -12.457  16.040  68.754  1.00  0.00    -0.305 OA 
HETATM    3  C   UNL     2     -11.555  15.102  68.155  1.00  0.00    -0.341 C  
HETATM    4  H   UNL     2     -13.081  16.299  68.086  1.00  0.00     0.000 HD 
HETATM    5  O   UNL     3     -10.395   8.848  71.158  1.00  0.00    -0.222 OA 
HETATM    6  H   UNL     3     -10.942   8.962  71.926  1.00  0.00     0.000 HD 
HETATM    7  C   UNL     3      -9.016   8.965  71.612  1.00  0.00    -0.173 C  
ENDROOT
BRANCH   3   8
HETATM    8  C   UNL     2     -10.564  14.689  69.218  1.00  0.00    -0.226 C  
HETATM    9  H   UNL     2     -10.673  14.044  71.070  1.00  0.00     0.000 HD 
HETATM   10  O   UNL     2     -11.297  14.303  70.402  1.00  0.00    -0.177 OA 
BRANCH   8  11
HETATM   11  C   UNL     2      -9.521  15.753  69.623  1.00  0.00    -0.204 C  
HETATM   12  C   UNL     2      -8.998  16.735  68.605  1.00  0.00    -0.251 C  
HETATM   13  O   UNL     2      -8.331  14.979  69.808  1.00  0.00    -0.112 OA 
HETATM   14  O   UNL     2      -7.174  13.861  68.149  1.00  0.00    -0.093 OA 
HETATM   15  H   UNL     2      -7.609  17.334  66.300  1.00  0.00     0.000 HD 
HETATM   16  O   UNL     2      -9.267  17.958  68.761  1.00  0.00    -0.286 OA 
HETATM   17  C   UNL     2      -7.858  14.779  68.543  1.00  0.00    -0.130 C  
HETATM   18  C   UNL     2      -8.158  16.037  67.805  1.00  0.00    -0.142 C  
HETATM   19  O   UNL     2      -7.418  16.531  66.771  1.00  0.00    -0.198 OA 
ENDBRANCH   8  11
ENDBRANCH   3   8
BRANCH   7  20
HETATM   20  C   UNL     3      -8.134   8.781  70.373  1.00  0.00    -0.116 C  
HETATM   21  O   UNL     3      -7.965  10.028  69.702  1.00  0.00    -0.139 OA 
HETATM   22  H   UNL     3      -7.417   9.914  68.934  1.00  0.00     0.000 HD 
BRANCH  20  23
HETATM   23  C   UNL     3      -8.345   7.595  69.391  1.00  0.00    -0.131 C  
HETATM   24  O   UNL     3     -10.681   5.062  69.749  1.00  0.00    -0.140 OA 
HETATM   25  C   UNL     3     -10.183   6.838  68.224  1.00  0.00    -0.175 C  
HETATM   26  C   UNL     3      -9.124   7.650  68.119  1.00  0.00    -0.132 C  
HETATM   27  O   UNL     3     -11.108   6.565  67.243  1.00  0.00    -0.421 OA 
HETATM   28  O   UNL     3      -8.846   6.422  70.055  1.00  0.00    -0.140 OA 
HETATM   29  C   UNL     3     -10.019   6.039  69.441  1.00  0.00    -0.174 C  
HETATM   30  O   UNL     3      -8.583   8.305  67.199  1.00  0.00    -0.121 OA 
HETATM   31  H   UNL     3     -11.214   7.083  66.453  1.00  0.00     0.000 HD 
ENDBRANCH  20  23
ENDBRANCH   7  20
TORSDOF 4
ENDMDL
MODEL      352
REMARK 921   NORMALIZED FREE ENERGY PREDICTED BY IDOCK:   -3.28 KCAL/MOL
REMARK 922        TOTAL FREE ENERGY PREDICTED BY IDOCK:   -5.97 KCAL/MOL
REMARK 923 INTER-LIGAND FREE ENERGY PREDICTED BY IDOCK:   -4.08 KCAL/MOL
REMARK 924 INTRA-LIGAND FREE ENERGY PREDICTED BY IDOCK:   -1.89 KCAL/MOL
REMARK 927      BINDING AFFINITY PREDICTED BY RF-SCORE:    0.00 PKD
ROOT
HETATM    1 CA   UNL     1     -11.779   6.485  68.468  1.00  0.00    -0.407 Ca 
HETATM    2  O   UNL     2      -8.209   1.990  64.465  1.00  0.00    -0.073 OA 
HETATM    3  C   UNL     2      -9.103   2.980  64.985  1.00  0.00    -0.146 C  
HETATM    4  H   UNL     2      -8.366   1.930  63.530  1.00  0.00     0.000 HD 
HETATM    5  O   UNL     3      -6.658   8.296  68.888  1.00  0.00    -0.050 OA 
HETATM    6  H   UNL     3      -5.742   8.045  68.903  1.00  0.00     0.000 HD 
HETATM    7  C   UNL     3      -7.190   7.992  70.209  1.00  0.00    -0.053 C  
ENDROOT
BRANCH   3   8
HETATM    8  C   UNL     2      -8.853   3.076  66.472  1.00  0.00    -0.146 C  
HETATM    9  H   UNL     2      -9.153   1.913  68.027  1.00  0.00     0.000 HD 
HETATM   10  O   UNL     2      -9.310   1.853  67.092  1.00  0.00    -0.089 OA 
BRANCH   8  11
HETATM   11  C   UNL     2      -9.521   4.262  67.198  1.00  0.00    -0.181 C  
HETATM   12  C   UNL     2      -9.587   5.619  66.543  1.00  0.00    -0.155 C  
HETATM   13  O   UNL     2      -8.584   4.570  68.237  1.00  0.00    -0.096 OA 
HETATM   14  O   UNL     2      -6.452   5.406  67.929  1.00  0.00    -0.044 OA 
HETATM   15  H   UNL     2      -8.389   7.885  65.527  1.00  0.00     0.000 HD 
HETATM   16  O   UNL     2     -10.721   6.081  66.237  1.00  0.00    -0.104 OA 
HETATM   17  C   UNL     2      -7.616   5.302  67.612  1.00  0.00    -0.088 C  
HETATM   18  C   UNL     2      -8.333   6.127  66.602  1.00  0.00    -0.111 C  
HETATM   19  O   UNL     2      -7.932   7.358  66.171  1.00  0.00    -0.102 OA 
ENDBRANCH   8  11
ENDBRANCH   3   8
BRANCH   7  20
HETATM   20  C   UNL     3      -8.668   8.397  70.186  1.00  0.00    -0.136 C  
HETATM   21  O   UNL     3      -8.815   9.741  70.642  1.00  0.00    -0.312 OA 
HETATM   22  H   UNL     3      -9.731   9.993  70.628  1.00  0.00     0.000 HD 
BRANCH  20  23
HETATM   23  C   UNL     3      -9.780   7.455  70.726  1.00  0.00    -0.171 C  
HETATM   24  O   UNL     3      -9.269   4.581  72.591  1.00  0.00    -0.124 OA 
HETATM   25  C   UNL     3     -10.314   6.718  72.844  1.00  0.00    -0.221 C  
HETATM   26  C   UNL     3     -10.589   7.686  71.960  1.00  0.00    -0.220 C  
HETATM   27  O   UNL     3     -10.901   6.544  74.076  1.00  0.00    -0.444 OA 
HETATM   28  O   UNL     3      -9.327   6.097  70.857  1.00  0.00    -0.156 OA 
HETATM   29  C   UNL     3      -9.524   5.693  72.159  1.00  0.00    -0.149 C  
HETATM   30  O   UNL     3     -11.426   8.613  71.874  1.00  0.00    -0.302 OA 
HETATM   31  H   UNL     3     -11.414   7.209  74.520  1.00  0.00     0.000 HD 
ENDBRANCH  20  23
ENDBRANCH   7  20
TORSDOF 4
ENDMDL
MODEL      353
REMARK 921   NORMALIZED FREE ENERGY PREDICTED BY IDOCK:   -3.23 KCAL/MOL
REMARK 922        TOTAL FREE ENERGY PREDICTED BY IDOCK:   -5.92 KCAL/MOL
REMARK 923 INTER-LIGAND FREE ENERGY PREDICTED BY IDOCK:   -6.25 KCAL/MOL
REMARK 924 INTRA-LIGAND FREE ENERGY PREDICTED BY IDOCK:    0.33 KCAL/MOL
REMARK 927      BINDING AFFINITY PREDICTED BY RF-SCORE:    0.00 PKD
ROOT
HETATM    1 CA   UNL     1     -10.998  19.741  66.999  1.00  0.00    -0.388 Ca 
HETATM    2  O   UNL     2     -11.869  12.849  66.155  1.00  0.00    -0.387 OA 
HETATM    3  C   UNL     2     -11.983  14.277  66.140  1.00  0.00    -0.407 C  
HETATM    4  H   UNL     2     -12.585  12.503  65.635  1.00  0.00     0.000 HD 
HETATM    5  O   UNL     3      -6.499  18.277  64.298  1.00  0.00     0.459 OA 
HETATM    6  H   UNL     3      -5.864  17.583  64.161  1.00  0.00     0.000 HD 
HETATM    7  C   UNL     3      -6.140  18.921  65.554  1.00  0.00    -0.237 C  
ENDROOT
BRANCH   3   8
HETATM    8  C   UNL     2     -10.845  14.828  66.967  1.00  0.00    -0.315 C  
HETATM    9  H   UNL     2     -10.664  16.152  68.407  1.00  0.00     0.000 HD 
HETATM   10  O   UNL     2     -11.380  15.805  67.887  1.00  0.00    -0.338 OA 
BRANCH   8  11
HETATM   11  C   UNL     2      -9.692  15.487  66.181  1.00  0.00    -0.319 C  
HETATM   12  C   UNL     2      -9.571  16.989  66.120  1.00  0.00    -0.240 C  
HETATM   13  O   UNL     2     -10.057  15.244  64.817  1.00  0.00    -0.224 OA 
HETATM   14  O   UNL     2     -11.885  16.144  63.727  1.00  0.00    -0.885 OA 
HETATM   15  H   UNL     2     -10.506  19.472  65.368  1.00  0.00     0.000 HD 
HETATM   16  O   UNL     2      -8.569  17.530  66.663  1.00  0.00    -0.236 OA 
HETATM   17  C   UNL     2     -10.993  16.200  64.543  1.00  0.00    -0.123 C  
HETATM   18  C   UNL     2     -10.550  17.413  65.285  1.00  0.00     0.072 C  
HETATM   19  O   UNL     2     -10.789  18.698  64.895  1.00  0.00    -0.448 OA 
ENDBRANCH   8  11
ENDBRANCH   3   8
BRANCH   7  20
HETATM   20  C   UNL     3      -7.164  20.041  65.775  1.00  0.00    -0.309 C  
HETATM   21  O   UNL     3      -7.124  20.964  64.688  1.00  0.00    -0.492 OA 
HETATM   22  H   UNL     3      -7.758  21.657  64.825  1.00  0.00     0.000 HD 
BRANCH  20  23
HETATM   23  C   UNL     3      -7.318  20.742  67.153  1.00  0.00    -0.329 C  
HETATM   24  O   UNL     3      -9.291  19.641  69.778  1.00  0.00     0.082 OA 
HETATM   25  C   UNL     3      -6.976  20.031  69.318  1.00  0.00    -0.212 C  
HETATM   26  C   UNL     3      -6.361  20.635  68.294  1.00  0.00    -0.317 C  
HETATM   27  O   UNL     3      -6.451  19.802  70.570  1.00  0.00    -0.226 OA 
HETATM   28  O   UNL     3      -8.601  20.492  67.751  1.00  0.00    -0.218 OA 
HETATM   29  C   UNL     3      -8.402  19.944  68.999  1.00  0.00     0.058 C  
HETATM   30  O   UNL     3      -5.270  21.225  68.123  1.00  0.00    -0.268 OA 
HETATM   31  H   UNL     3      -5.525  19.860  70.777  1.00  0.00     0.000 HD 
ENDBRANCH  20  23
ENDBRANCH   7  20
TORSDOF 4
ENDMDL
MODEL      354
REMARK 921   NORMALIZED FREE ENERGY PREDICTED BY IDOCK:   -3.23 KCAL/MOL
REMARK 922        TOTAL FREE ENERGY PREDICTED BY IDOCK:   -5.91 KCAL/MOL
REMARK 923 INTER-LIGAND FREE ENERGY PREDICTED BY IDOCK:   -5.05 KCAL/MOL
REMARK 924 INTRA-LIGAND FREE ENERGY PREDICTED BY IDOCK:   -0.86 KCAL/MOL
REMARK 927      BINDING AFFINITY PREDICTED BY RF-SCORE:    0.00 PKD
ROOT
HETATM    1 CA   UNL     1      -6.172  13.216  68.777  1.00  0.00    -0.066 Ca 
HETATM    2  O   UNL     2     -10.520  18.583  67.653  1.00  0.00    -0.385 OA 
HETATM    3  C   UNL     2      -9.393  17.706  67.760  1.00  0.00    -0.255 C  
HETATM    4  H   UNL     2     -10.213  19.394  67.265  1.00  0.00     0.000 HD 
HETATM    5  O   UNL     3      -9.678  11.188  65.133  1.00  0.00    -0.226 OA 
HETATM    6  H   UNL     3     -10.576  11.205  64.824  1.00  0.00     0.000 HD 
HETATM    7  C   UNL     3      -9.670  10.362  66.332  1.00  0.00    -0.201 C  
ENDROOT
BRANCH   3   8
HETATM    8  C   UNL     2      -9.882  16.417  68.377  1.00  0.00    -0.233 C  
HETATM    9  H   UNL     2      -9.536  15.434  70.043  1.00  0.00     0.000 HD 
HETATM   10  O   UNL     2      -9.228  16.245  69.655  1.00  0.00    -0.095 OA 
BRANCH   8  11
HETATM   11  C   UNL     2      -9.654  15.137  67.545  1.00  0.00    -0.207 C  
HETATM   12  C   UNL     2     -10.544  14.824  66.368  1.00  0.00    -0.300 C  
HETATM   13  O   UNL     2     -10.092  14.099  68.429  1.00  0.00    -0.227 OA 
HETATM   14  O   UNL     2     -12.264  13.760  69.144  1.00  0.00    -0.344 OA 
HETATM   15  H   UNL     2     -12.998  14.197  65.279  1.00  0.00     0.000 HD 
HETATM   16  O   UNL     2     -10.030  14.818  65.216  1.00  0.00    -0.361 OA 
HETATM   17  C   UNL     2     -11.453  14.112  68.316  1.00  0.00    -0.304 C  
HETATM   18  C   UNL     2     -11.729  14.426  66.887  1.00  0.00    -0.402 C  
HETATM   19  O   UNL     2     -12.822  13.997  66.191  1.00  0.00    -0.394 OA 
ENDBRANCH   8  11
ENDBRANCH   3   8
BRANCH   7  20
HETATM   20  C   UNL     3      -8.220  10.334  66.831  1.00  0.00    -0.123 C  
HETATM   21  O   UNL     3      -7.503  11.453  66.313  1.00  0.00    -0.329 OA 
HETATM   22  H   UNL     3      -6.605  11.436  66.623  1.00  0.00     0.000 HD 
BRANCH  20  23
HETATM   23  C   UNL     3      -7.381   9.027  66.823  1.00  0.00    -0.086 C  
HETATM   24  O   UNL     3      -8.231   6.084  65.205  1.00  0.00    -0.133 OA 
HETATM   25  C   UNL     3      -6.505   7.739  65.124  1.00  0.00    -0.041 C  
HETATM   26  C   UNL     3      -6.206   8.755  65.943  1.00  0.00    -0.056 C  
HETATM   27  O   UNL     3      -5.665   7.151  64.207  1.00  0.00    -0.032 OA 
HETATM   28  O   UNL     3      -8.201   7.854  66.680  1.00  0.00    -0.114 OA 
HETATM   29  C   UNL     3      -7.763   7.145  65.583  1.00  0.00    -0.102 C  
HETATM   30  O   UNL     3      -5.175   9.407  66.226  1.00  0.00    -0.038 OA 
HETATM   31  H   UNL     3      -4.848   7.536  63.909  1.00  0.00     0.000 HD 
ENDBRANCH  20  23
ENDBRANCH   7  20
TORSDOF 4
ENDMDL
MODEL      355
REMARK 921   NORMALIZED FREE ENERGY PREDICTED BY IDOCK:   -3.22 KCAL/MOL
REMARK 922        TOTAL FREE ENERGY PREDICTED BY IDOCK:   -5.90 KCAL/MOL
REMARK 923 INTER-LIGAND FREE ENERGY PREDICTED BY IDOCK:   -4.91 KCAL/MOL
REMARK 924 INTRA-LIGAND FREE ENERGY PREDICTED BY IDOCK:   -0.99 KCAL/MOL
REMARK 927      BINDING AFFINITY PREDICTED BY RF-SCORE:    0.00 PKD
ROOT
HETATM    1 CA   UNL     1      -7.208  14.377  70.412  1.00  0.00    -0.282 Ca 
HETATM    2  O   UNL     2     -11.955  10.486  67.052  1.00  0.00     0.289 OA 
HETATM    3  C   UNL     2     -11.222  11.278  67.992  1.00  0.00    -0.287 C  
HETATM    4  H   UNL     2     -12.798  10.288  67.444  1.00  0.00     0.000 HD 
HETATM    5  O   UNL     3      -8.398  17.421  66.052  1.00  0.00    -0.498 OA 
HETATM    6  H   UNL     3      -8.651  17.404  65.137  1.00  0.00     0.000 HD 
HETATM    7  C   UNL     3      -6.970  17.140  66.090  1.00  0.00    -0.150 C  
ENDROOT
BRANCH   3   8
HETATM    8  C   UNL     2      -9.882  11.592  67.368  1.00  0.00    -0.186 C  
HETATM    9  H   UNL     2      -9.224  11.945  65.551  1.00  0.00     0.000 HD 
HETATM   10  O   UNL     2     -10.067  11.748  65.944  1.00  0.00    -0.219 OA 
BRANCH   8  11
HETATM   11  C   UNL     2      -8.766  10.550  67.598  1.00  0.00    -0.121 C  
HETATM   12  C   UNL     2      -8.190  10.339  68.975  1.00  0.00    -0.139 C  
HETATM   13  O   UNL     2      -7.628  11.161  66.979  1.00  0.00    -0.121 OA 
HETATM   14  O   UNL     2      -6.568  13.084  67.699  1.00  0.00    -0.133 OA 
HETATM   15  H   UNL     2      -6.791  11.219  71.183  1.00  0.00     0.000 HD 
HETATM   16  O   UNL     2      -8.375   9.224  69.536  1.00  0.00    -0.115 OA 
HETATM   17  C   UNL     2      -7.185  12.062  67.904  1.00  0.00    -0.102 C  
HETATM   18  C   UNL     2      -7.409  11.416  69.226  1.00  0.00    -0.042 C  
HETATM   19  O   UNL     2      -6.649  11.631  70.339  1.00  0.00    -0.148 OA 
ENDBRANCH   8  11
ENDBRANCH   3   8
BRANCH   7  20
HETATM   20  C   UNL     3      -6.561  17.167  67.568  1.00  0.00    -0.139 C  
HETATM   21  O   UNL     3      -5.697  16.070  67.857  1.00  0.00    -0.115 OA 
HETATM   22  H   UNL     3      -5.443  16.087  68.772  1.00  0.00     0.000 HD 
BRANCH  20  23
HETATM   23  C   UNL     3      -7.599  17.428  68.695  1.00  0.00    -0.265 C  
HETATM   24  O   UNL     3     -10.049  19.876  68.666  1.00  0.00    -0.439 OA 
HETATM   25  C   UNL     3      -9.902  17.489  68.718  1.00  0.00    -0.326 C  
HETATM   26  C   UNL     3      -8.864  16.664  68.903  1.00  0.00    -0.238 C  
HETATM   27  O   UNL     3     -11.234  17.180  68.879  1.00  0.00    -0.209 OA 
HETATM   28  O   UNL     3      -8.011  18.804  68.748  1.00  0.00    -0.329 OA 
HETATM   29  C   UNL     3      -9.383  18.855  68.631  1.00  0.00    -0.369 C  
HETATM   30  O   UNL     3      -8.710  15.495  69.325  1.00  0.00    -0.231 OA 
HETATM   31  H   UNL     3     -11.571  16.293  68.936  1.00  0.00     0.000 HD 
ENDBRANCH  20  23
ENDBRANCH   7  20
TORSDOF 4
ENDMDL
MODEL      356
REMARK 921   NORMALIZED FREE ENERGY PREDICTED BY IDOCK:   -3.21 KCAL/MOL
REMARK 922        TOTAL FREE ENERGY PREDICTED BY IDOCK:   -5.89 KCAL/MOL
REMARK 923 INTER-LIGAND FREE ENERGY PREDICTED BY IDOCK:   -4.36 KCAL/MOL
REMARK 924 INTRA-LIGAND FREE ENERGY PREDICTED BY IDOCK:   -1.52 KCAL/MOL
REMARK 927      BINDING AFFINITY PREDICTED BY RF-SCORE:    0.00 PKD
ROOT
HETATM    1 CA   UNL     1      -8.135   9.842  69.001  1.00  0.00    -0.081 Ca 
HETATM    2  O   UNL     2      -9.463   3.200  67.246  1.00  0.00    -0.282 OA 
HETATM    3  C   UNL     2      -9.389   4.482  67.880  1.00  0.00    -0.140 C  
HETATM    4  H   UNL     2     -10.035   2.655  67.774  1.00  0.00     0.000 HD 
HETATM    5  O   UNL     3     -10.731  10.347  64.238  1.00  0.00    -0.227 OA 
HETATM    6  H   UNL     3     -10.885   9.949  63.390  1.00  0.00     0.000 HD 
HETATM    7  C   UNL     3      -9.422  10.981  64.163  1.00  0.00    -0.242 C  
ENDROOT
BRANCH   3   8
HETATM    8  C   UNL     2      -8.480   5.348  67.040  1.00  0.00    -0.106 C  
HETATM    9  H   UNL     2      -7.996   5.449  65.139  1.00  0.00     0.000 HD 
HETATM   10  O   UNL     2      -8.568   4.905  65.667  1.00  0.00    -0.123 OA 
BRANCH   8  11
HETATM   11  C   UNL     2      -6.992   5.363  67.447  1.00  0.00    -0.065 C  
HETATM   12  C   UNL     2      -6.560   6.006  68.741  1.00  0.00    -0.055 C  
HETATM   13  O   UNL     2      -6.422   6.309  66.535  1.00  0.00    -0.043 OA 
HETATM   14  O   UNL     2      -6.871   8.575  66.483  1.00  0.00    -0.069 OA 
HETATM   15  H   UNL     2      -6.256   8.205  70.376  1.00  0.00     0.000 HD 
HETATM   16  O   UNL     2      -6.070   5.269  69.640  1.00  0.00    -0.020 OA 
HETATM   17  C   UNL     2      -6.736   7.525  67.070  1.00  0.00    -0.066 C  
HETATM   18  C   UNL     2      -6.650   7.343  68.545  1.00  0.00    -0.049 C  
HETATM   19  O   UNL     2      -6.312   8.321  69.435  1.00  0.00    -0.037 OA 
ENDBRANCH   8  11
ENDBRANCH   3   8
BRANCH   7  20
HETATM   20  C   UNL     3      -9.172  11.624  65.532  1.00  0.00    -0.099 C  
HETATM   21  O   UNL     3      -9.161  10.624  66.549  1.00  0.00    -0.161 OA 
HETATM   22  H   UNL     3      -9.006  11.023  67.397  1.00  0.00     0.000 HD 
BRANCH  20  23
HETATM   23  C   UNL     3      -9.911  12.919  65.970  1.00  0.00    -0.272 C  
HETATM   24  O   UNL     3     -11.682  15.045  63.886  1.00  0.00    -0.191 OA 
HETATM   25  C   UNL     3     -12.097  13.620  65.762  1.00  0.00    -0.428 C  
HETATM   26  C   UNL     3     -11.267  12.976  66.592  1.00  0.00    -0.307 C  
HETATM   27  O   UNL     3     -13.416  13.931  66.000  1.00  0.00    -0.360 OA 
HETATM   28  O   UNL     3      -9.971  13.895  64.916  1.00  0.00    -0.311 OA 
HETATM   29  C   UNL     3     -11.292  14.222  64.698  1.00  0.00    -0.373 C  
HETATM   30  O   UNL     3     -11.324  12.553  67.770  1.00  0.00    -0.257 OA 
HETATM   31  H   UNL     3     -13.938  13.540  66.691  1.00  0.00     0.000 HD 
ENDBRANCH  20  23
ENDBRANCH   7  20
TORSDOF 4
ENDMDL
MODEL      357
REMARK 921   NORMALIZED FREE ENERGY PREDICTED BY IDOCK:   -3.20 KCAL/MOL
REMARK 922        TOTAL FREE ENERGY PREDICTED BY IDOCK:   -5.88 KCAL/MOL
REMARK 923 INTER-LIGAND FREE ENERGY PREDICTED BY IDOCK:   -4.75 KCAL/MOL
REMARK 924 INTRA-LIGAND FREE ENERGY PREDICTED BY IDOCK:   -1.12 KCAL/MOL
REMARK 927      BINDING AFFINITY PREDICTED BY RF-SCORE:    0.00 PKD
ROOT
HETATM    1 CA   UNL     1     -11.888   9.088  70.103  1.00  0.00    -0.301 Ca 
HETATM    2  O   UNL     2      -6.994   6.363  74.298  1.00  0.00    -0.088 OA 
HETATM    3  C   UNL     2      -8.109   6.593  73.429  1.00  0.00    -0.107 C  
HETATM    4  H   UNL     2      -6.963   5.431  74.479  1.00  0.00     0.000 HD 
HETATM    5  O   UNL     3      -7.271  10.118  67.401  1.00  0.00    -0.087 OA 
HETATM    6  H   UNL     3      -6.346  10.318  67.488  1.00  0.00     0.000 HD 
HETATM    7  C   UNL     3      -7.987  11.360  67.657  1.00  0.00    -0.123 C  
ENDROOT
BRANCH   3   8
HETATM    8  C   UNL     2      -8.158   8.075  73.141  1.00  0.00    -0.176 C  
HETATM    9  H   UNL     2      -7.923   9.720  74.188  1.00  0.00     0.000 HD 
HETATM   10  O   UNL     2      -7.892   8.788  74.369  1.00  0.00    -0.399 OA 
BRANCH   8  11
HETATM   11  C   UNL     2      -9.481   8.608  72.551  1.00  0.00    -0.177 C  
HETATM   12  C   UNL     2     -10.529   7.652  72.038  1.00  0.00    -0.213 C  
HETATM   13  O   UNL     2      -9.069   9.170  71.300  1.00  0.00    -0.234 OA 
HETATM   14  O   UNL     2      -8.246   7.987  69.494  1.00  0.00    -0.118 OA 
HETATM   15  H   UNL     2     -11.393   5.717  70.275  1.00  0.00     0.000 HD 
HETATM   16  O   UNL     2     -11.636   7.601  72.639  1.00  0.00    -0.339 OA 
HETATM   17  C   UNL     2      -8.957   8.093  70.468  1.00  0.00    -0.145 C  
HETATM   18  C   UNL     2     -10.055   7.170  70.865  1.00  0.00    -0.193 C  
HETATM   19  O   UNL     2     -10.693   6.306  70.022  1.00  0.00    -0.231 OA 
ENDBRANCH   8  11
ENDBRANCH   3   8
BRANCH   7  20
HETATM   20  C   UNL     3      -9.479  11.037  67.517  1.00  0.00    -0.163 C  
HETATM   21  O   UNL     3      -9.935  10.321  68.663  1.00  0.00    -0.160 OA 
HETATM   22  H   UNL     3     -10.860  10.121  68.577  1.00  0.00     0.000 HD 
BRANCH  20  23
HETATM   23  C   UNL     3     -10.072  10.487  66.190  1.00  0.00    -0.246 C  
HETATM   24  O   UNL     3      -8.871  11.143  63.008  1.00  0.00    -0.208 OA 
HETATM   25  C   UNL     3      -9.167   9.264  64.459  1.00  0.00    -0.000 C  
HETATM   26  C   UNL     3      -9.817   9.130  65.622  1.00  0.00    -0.094 C  
HETATM   27  O   UNL     3      -8.806   8.250  63.601  1.00  0.00    -0.365 OA 
HETATM   28  O   UNL     3      -9.846  11.375  65.083  1.00  0.00    -0.241 OA 
HETATM   29  C   UNL     3      -9.186  10.681  64.093  1.00  0.00    -0.236 C  
HETATM   30  O   UNL     3     -10.357   8.188  66.246  1.00  0.00    -0.110 OA 
HETATM   31  H   UNL     3      -8.794   7.331  63.839  1.00  0.00     0.000 HD 
ENDBRANCH  20  23
ENDBRANCH   7  20
TORSDOF 4
ENDMDL
MODEL      358
REMARK 921   NORMALIZED FREE ENERGY PREDICTED BY IDOCK:   -3.17 KCAL/MOL
REMARK 922        TOTAL FREE ENERGY PREDICTED BY IDOCK:   -5.84 KCAL/MOL
REMARK 923 INTER-LIGAND FREE ENERGY PREDICTED BY IDOCK:   -5.21 KCAL/MOL
REMARK 924 INTRA-LIGAND FREE ENERGY PREDICTED BY IDOCK:   -0.63 KCAL/MOL
REMARK 927      BINDING AFFINITY PREDICTED BY RF-SCORE:    0.00 PKD
ROOT
HETATM    1 CA   UNL     1      -6.911  11.321  64.340  1.00  0.00    -0.339 Ca 
HETATM    2  O   UNL     2     -10.342  17.036  66.472  1.00  0.00    -0.309 OA 
HETATM    3  C   UNL     2      -9.805  15.931  65.737  1.00  0.00    -0.345 C  
HETATM    4  H   UNL     2     -10.952  17.487  65.900  1.00  0.00     0.000 HD 
HETATM    5  O   UNL     3      -9.991   9.431  68.418  1.00  0.00    -0.160 OA 
HETATM    6  H   UNL     3     -10.388   9.640  69.255  1.00  0.00     0.000 HD 
HETATM    7  C   UNL     3      -8.586   9.157  68.685  1.00  0.00    -0.128 C  
ENDROOT
BRANCH   3   8
HETATM    8  C   UNL     2      -8.835  15.213  66.647  1.00  0.00    -0.286 C  
HETATM    9  H   UNL     2      -8.813  13.500  67.608  1.00  0.00     0.000 HD 
HETATM   10  O   UNL     2      -9.422  13.951  67.036  1.00  0.00    -0.236 OA 
BRANCH   8  11
HETATM   11  C   UNL     2      -8.423  15.968  67.929  1.00  0.00    -0.162 C  
HETATM   12  C   UNL     2      -7.654  17.261  67.840  1.00  0.00    -0.188 C  
HETATM   13  O   UNL     2      -7.389  15.137  68.469  1.00  0.00    -0.112 OA 
HETATM   14  O   UNL     2      -5.319  14.764  67.512  1.00  0.00    -0.335 OA 
HETATM   15  H   UNL     2      -5.404  18.706  67.165  1.00  0.00     0.000 HD 
HETATM   16  O   UNL     2      -8.212  18.318  68.243  1.00  0.00    -0.281 OA 
HETATM   17  C   UNL     2      -6.281  15.463  67.740  1.00  0.00    -0.159 C  
HETATM   18  C   UNL     2      -6.392  16.925  67.482  1.00  0.00    -0.155 C  
HETATM   19  O   UNL     2      -5.334  17.774  67.329  1.00  0.00    -0.118 OA 
ENDBRANCH   8  11
ENDBRANCH   3   8
BRANCH   7  20
HETATM   20  C   UNL     3      -7.945   8.819  67.334  1.00  0.00    -0.098 C  
HETATM   21  O   UNL     3      -6.850   9.696  67.078  1.00  0.00    -0.081 OA 
HETATM   22  H   UNL     3      -6.453   9.487  66.241  1.00  0.00     0.000 HD 
BRANCH  20  23
HETATM   23  C   UNL     3      -8.807   8.549  66.069  1.00  0.00    -0.173 C  
HETATM   24  O   UNL     3     -10.496  10.942  64.219  1.00  0.00    -0.362 OA 
HETATM   25  C   UNL     3      -8.723   9.364  63.915  1.00  0.00    -0.202 C  
HETATM   26  C   UNL     3      -8.281   8.362  64.684  1.00  0.00    -0.154 C  
HETATM   27  O   UNL     3      -8.508   9.517  62.564  1.00  0.00    -0.155 OA 
HETATM   28  O   UNL     3      -9.861   9.513  65.912  1.00  0.00    -0.267 OA 
HETATM   29  C   UNL     3      -9.738  10.100  64.672  1.00  0.00    -0.309 C  
HETATM   30  O   UNL     3      -7.674   7.283  64.493  1.00  0.00    -0.100 OA 
HETATM   31  H   UNL     3      -7.850   9.039  62.073  1.00  0.00     0.000 HD 
ENDBRANCH  20  23
ENDBRANCH   7  20
TORSDOF 4
ENDMDL
MODEL      359
REMARK 921   NORMALIZED FREE ENERGY PREDICTED BY IDOCK:   -3.15 KCAL/MOL
REMARK 922        TOTAL FREE ENERGY PREDICTED BY IDOCK:   -5.82 KCAL/MOL
REMARK 923 INTER-LIGAND FREE ENERGY PREDICTED BY IDOCK:   -5.64 KCAL/MOL
REMARK 924 INTRA-LIGAND FREE ENERGY PREDICTED BY IDOCK:   -0.18 KCAL/MOL
REMARK 927      BINDING AFFINITY PREDICTED BY RF-SCORE:    0.00 PKD
ROOT
HETATM    1 CA   UNL     1     -11.679  13.473  69.171  1.00  0.00    -0.211 Ca 
HETATM    2  O   UNL     2      -6.013  17.557  68.736  1.00  0.00    -0.165 OA 
HETATM    3  C   UNL     2      -7.182  16.842  69.151  1.00  0.00    -0.214 C  
HETATM    4  H   UNL     2      -5.695  18.042  69.489  1.00  0.00     0.000 HD 
HETATM    5  O   UNL     3      -7.708   9.915  68.049  1.00  0.00    -0.086 OA 
HETATM    6  H   UNL     3      -6.883   9.787  67.595  1.00  0.00     0.000 HD 
HETATM    7  C   UNL     3      -8.752   9.833  67.038  1.00  0.00    -0.135 C  
ENDROOT
BRANCH   3   8
HETATM    8  C   UNL     2      -7.687  16.071  67.953  1.00  0.00    -0.138 C  
HETATM    9  H   UNL     2      -8.794  16.479  66.383  1.00  0.00     0.000 HD 
HETATM   10  O   UNL     2      -8.477  16.964  67.136  1.00  0.00    -0.187 OA 
BRANCH   8  11
HETATM   11  C   UNL     2      -8.538  14.821  68.261  1.00  0.00    -0.164 C  
HETATM   12  C   UNL     2      -9.786  14.532  67.465  1.00  0.00    -0.222 C  
HETATM   13  O   UNL     2      -9.151  15.153  69.512  1.00  0.00    -0.209 OA 
HETATM   14  O   UNL     2     -10.712  16.823  69.851  1.00  0.00    -0.292 OA 
HETATM   15  H   UNL     2     -12.347  15.156  66.656  1.00  0.00     0.000 HD 
HETATM   16  O   UNL     2      -9.807  13.501  66.740  1.00  0.00    -0.251 OA 
HETATM   17  C   UNL     2     -10.195  15.965  69.171  1.00  0.00    -0.234 C  
HETATM   18  C   UNL     2     -10.716  15.423  67.887  1.00  0.00    -0.286 C  
HETATM   19  O   UNL     2     -12.015  15.502  67.475  1.00  0.00    -0.017 OA 
ENDBRANCH   8  11
ENDBRANCH   3   8
BRANCH   7  20
HETATM   20  C   UNL     3     -10.083  10.040  67.771  1.00  0.00    -0.183 C  
HETATM   21  O   UNL     3     -10.989  10.768  66.944  1.00  0.00    -0.256 OA 
HETATM   22  H   UNL     3     -11.814  10.897  67.398  1.00  0.00     0.000 HD 
BRANCH  20  23
HETATM   23  C   UNL     3     -10.132  10.491  69.257  1.00  0.00    -0.224 C  
HETATM   24  O   UNL     3     -13.004  11.128  71.087  1.00  0.00    -0.361 OA 
HETATM   25  C   UNL     3     -11.154   9.611  71.126  1.00  0.00    -0.374 C  
HETATM   26  C   UNL     3     -10.004   9.591  70.441  1.00  0.00    -0.267 C  
HETATM   27  O   UNL     3     -11.414   8.962  72.312  1.00  0.00    -0.348 OA 
HETATM   28  O   UNL     3     -11.296  11.283  69.548  1.00  0.00    -0.252 OA 
HETATM   29  C   UNL     3     -11.984  10.688  70.583  1.00  0.00    -0.367 C  
HETATM   30  O   UNL     3      -8.856   9.126  70.627  1.00  0.00    -0.194 OA 
HETATM   31  H   UNL     3     -10.875   8.263  72.664  1.00  0.00     0.000 HD 
ENDBRANCH  20  23
ENDBRANCH   7  20
TORSDOF 4
ENDMDL
MODEL      360
REMARK 921   NORMALIZED FREE ENERGY PREDICTED BY IDOCK:   -3.13 KCAL/MOL
REMARK 922        TOTAL FREE ENERGY PREDICTED BY IDOCK:   -5.79 KCAL/MOL
REMARK 923 INTER-LIGAND FREE ENERGY PREDICTED BY IDOCK:   -4.83 KCAL/MOL
REMARK 924 INTRA-LIGAND FREE ENERGY PREDICTED BY IDOCK:   -0.96 KCAL/MOL
REMARK 927      BINDING AFFINITY PREDICTED BY RF-SCORE:    0.00 PKD
ROOT
HETATM    1 CA   UNL     1      -8.250  10.365  64.634  1.00  0.00    -0.137 Ca 
HETATM    2  O   UNL     2     -13.629  14.787  65.334  1.00  0.00    -0.099 OA 
HETATM    3  C   UNL     2     -12.739  13.728  64.962  1.00  0.00    -0.336 C  
HETATM    4  H   UNL     2     -14.443  14.652  64.864  1.00  0.00     0.000 HD 
HETATM    5  O   UNL     3      -9.587   9.820  69.887  1.00  0.00    -0.211 OA 
HETATM    6  H   UNL     3      -9.929  10.265  70.654  1.00  0.00     0.000 HD 
HETATM    7  C   UNL     3      -8.192  10.220  69.766  1.00  0.00    -0.094 C  
ENDROOT
BRANCH   3   8
HETATM    8  C   UNL     2     -11.444  13.944  65.710  1.00  0.00    -0.321 C  
HETATM    9  H   UNL     2      -9.644  14.580  65.251  1.00  0.00     0.000 HD 
HETATM   10  O   UNL     2     -10.458  14.445  64.781  1.00  0.00    -0.430 OA 
BRANCH   8  11
HETATM   11  C   UNL     2     -10.854  12.705  66.416  1.00  0.00    -0.269 C  
HETATM   12  C   UNL     2     -11.522  12.134  67.642  1.00  0.00    -0.331 C  
HETATM   13  O   UNL     2      -9.672  13.224  67.036  1.00  0.00    -0.226 OA 
HETATM   14  O   UNL     2      -9.614  14.762  68.760  1.00  0.00    -0.208 OA 
HETATM   15  H   UNL     2     -12.335  12.315  70.270  1.00  0.00     0.000 HD 
HETATM   16  O   UNL     2     -12.022  10.978  67.566  1.00  0.00    -0.529 OA 
HETATM   17  C   UNL     2     -10.127  13.839  68.167  1.00  0.00    -0.245 C  
HETATM   18  C   UNL     2     -11.252  12.994  68.653  1.00  0.00    -0.277 C  
HETATM   19  O   UNL     2     -11.617  12.855  69.960  1.00  0.00    -0.231 OA 
ENDBRANCH   8  11
ENDBRANCH   3   8
BRANCH   7  20
HETATM   20  C   UNL     3      -7.640   9.502  68.529  1.00  0.00    -0.081 C  
HETATM   21  O   UNL     3      -7.663  10.378  67.403  1.00  0.00    -0.094 OA 
HETATM   22  H   UNL     3      -7.321   9.933  66.637  1.00  0.00     0.000 HD 
BRANCH  20  23
HETATM   23  C   UNL     3      -8.069   8.052  68.170  1.00  0.00    -0.129 C  
HETATM   24  O   UNL     3      -5.957   5.515  67.120  1.00  0.00    -0.017 OA 
HETATM   25  C   UNL     3      -7.416   5.987  68.957  1.00  0.00    -0.086 C  
HETATM   26  C   UNL     3      -8.321   6.954  69.150  1.00  0.00    -0.125 C  
HETATM   27  O   UNL     3      -7.350   4.781  69.618  1.00  0.00    -0.054 OA 
HETATM   28  O   UNL     3      -7.202   7.453  67.193  1.00  0.00    -0.084 OA 
HETATM   29  C   UNL     3      -6.703   6.278  67.711  1.00  0.00    -0.064 C  
HETATM   30  O   UNL     3      -9.363   7.086  69.832  1.00  0.00    -0.151 OA 
HETATM   31  H   UNL     3      -7.813   4.592  70.426  1.00  0.00     0.000 HD 
ENDBRANCH  20  23
ENDBRANCH   7  20
TORSDOF 4
ENDMDL
MODEL      361
REMARK 921   NORMALIZED FREE ENERGY PREDICTED BY IDOCK:   -3.12 KCAL/MOL
REMARK 922        TOTAL FREE ENERGY PREDICTED BY IDOCK:   -5.78 KCAL/MOL
REMARK 923 INTER-LIGAND FREE ENERGY PREDICTED BY IDOCK:   -6.62 KCAL/MOL
REMARK 924 INTRA-LIGAND FREE ENERGY PREDICTED BY IDOCK:    0.85 KCAL/MOL
REMARK 927      BINDING AFFINITY PREDICTED BY RF-SCORE:    0.00 PKD
ROOT
HETATM    1 CA   UNL     1     -12.933  14.634  67.212  1.00  0.00    -0.622 Ca 
HETATM    2  O   UNL     2      -9.329  20.365  68.983  1.00  0.00     0.297 OA 
HETATM    3  C   UNL     2     -10.278  19.298  68.876  1.00  0.00    -0.259 C  
HETATM    4  H   UNL     2      -9.602  20.915  69.709  1.00  0.00     0.000 HD 
HETATM    5  O   UNL     3      -8.118  12.605  68.755  1.00  0.00    -0.313 OA 
HETATM    6  H   UNL     3      -7.182  12.763  68.791  1.00  0.00     0.000 HD 
HETATM    7  C   UNL     3      -8.415  12.200  67.389  1.00  0.00    -0.173 C  
ENDROOT
BRANCH   3   8
HETATM    8  C   UNL     2      -9.844  18.424  67.722  1.00  0.00    -0.319 C  
HETATM    9  H   UNL     2      -9.939  16.509  67.293  1.00  0.00     0.000 HD 
HETATM   10  O   UNL     2     -10.212  17.059  68.019  1.00  0.00    -0.288 OA 
BRANCH   8  11
HETATM   11  C   UNL     2      -8.339  18.453  67.379  1.00  0.00    -0.252 C  
HETATM   12  C   UNL     2      -7.739  17.394  66.488  1.00  0.00    -0.284 C  
HETATM   13  O   UNL     2      -7.723  18.071  68.614  1.00  0.00    -0.292 OA 
HETATM   14  O   UNL     2      -7.889  15.998  69.622  1.00  0.00    -0.140 OA 
HETATM   15  H   UNL     2      -7.047  14.780  65.952  1.00  0.00     0.000 HD 
HETATM   16  O   UNL     2      -7.281  17.746  65.366  1.00  0.00    -0.388 OA 
HETATM   17  C   UNL     2      -7.844  16.711  68.645  1.00  0.00    -0.234 C  
HETATM   18  C   UNL     2      -7.675  16.266  67.234  1.00  0.00    -0.178 C  
HETATM   19  O   UNL     2      -7.155  15.064  66.851  1.00  0.00    -0.115 OA 
ENDBRANCH   8  11
ENDBRANCH   3   8
BRANCH   7  20
HETATM   20  C   UNL     3      -9.926  11.944  67.331  1.00  0.00    -0.190 C  
HETATM   21  O   UNL     3     -10.425  11.661  68.637  1.00  0.00    -0.203 OA 
HETATM   22  H   UNL     3     -11.361  11.503  68.601  1.00  0.00     0.000 HD 
BRANCH  20  23
HETATM   23  C   UNL     3     -10.557  11.040  66.237  1.00  0.00    -0.237 C  
HETATM   24  O   UNL     3     -12.953  12.017  63.933  1.00  0.00    -0.669 OA 
HETATM   25  C   UNL     3     -10.696  11.222  63.944  1.00  0.00    -0.384 C  
HETATM   26  C   UNL     3      -9.937  10.709  64.920  1.00  0.00    -0.318 C  
HETATM   27  O   UNL     3     -10.496  11.081  62.589  1.00  0.00    -0.748 OA 
HETATM   28  O   UNL     3     -11.894  11.445  65.899  1.00  0.00    -0.140 OA 
HETATM   29  C   UNL     3     -11.950  11.683  64.543  1.00  0.00    -0.008 C  
HETATM   30  O   UNL     3      -8.953   9.937  64.981  1.00  0.00    -0.170 OA 
HETATM   31  H   UNL     3      -9.682  10.781  62.200  1.00  0.00     0.000 HD 
ENDBRANCH  20  23
ENDBRANCH   7  20
TORSDOF 4
ENDMDL
MODEL      362
REMARK 921   NORMALIZED FREE ENERGY PREDICTED BY IDOCK:   -3.12 KCAL/MOL
REMARK 922        TOTAL FREE ENERGY PREDICTED BY IDOCK:   -5.77 KCAL/MOL
REMARK 923 INTER-LIGAND FREE ENERGY PREDICTED BY IDOCK:   -6.70 KCAL/MOL
REMARK 924 INTRA-LIGAND FREE ENERGY PREDICTED BY IDOCK:    0.93 KCAL/MOL
REMARK 927      BINDING AFFINITY PREDICTED BY RF-SCORE:    0.00 PKD
ROOT
HETATM    1 CA   UNL     1     -11.984  16.472  68.118  1.00  0.00    -0.295 Ca 
HETATM    2  O   UNL     2     -13.089  11.634  63.185  1.00  0.00    -0.745 OA 
HETATM    3  C   UNL     2     -12.995  12.838  63.955  1.00  0.00     0.093 C  
HETATM    4  H   UNL     2     -13.427  11.870  62.329  1.00  0.00     0.000 HD 
HETATM    5  O   UNL     3      -6.970  14.575  67.142  1.00  0.00    -0.355 OA 
HETATM    6  H   UNL     3      -6.461  13.812  66.896  1.00  0.00     0.000 HD 
HETATM    7  C   UNL     3      -7.299  14.415  68.551  1.00  0.00    -0.122 C  
ENDROOT
BRANCH   3   8
HETATM    8  C   UNL     2     -12.458  12.461  65.316  1.00  0.00    -0.181 C  
HETATM    9  H   UNL     2     -11.885  13.437  66.922  1.00  0.00     0.000 HD 
HETATM   10  O   UNL     2     -12.224  13.674  66.066  1.00  0.00    -0.408 OA 
BRANCH   8  11
HETATM   11  C   UNL     2     -11.156  11.631  65.325  1.00  0.00    -0.236 C  
HETATM   12  C   UNL     2     -10.501  11.252  66.629  1.00  0.00    -0.247 C  
HETATM   13  O   UNL     2     -10.178  12.567  64.856  1.00  0.00    -0.288 OA 
HETATM   14  O   UNL     2      -9.480  14.465  65.974  1.00  0.00    -0.282 OA 
HETATM   15  H   UNL     2      -9.218  11.903  68.981  1.00  0.00     0.000 HD 
HETATM   16  O   UNL     2     -10.450  10.030  66.938  1.00  0.00    -0.236 OA 
HETATM   17  C   UNL     2      -9.882  13.323  65.954  1.00  0.00    -0.231 C  
HETATM   18  C   UNL     2      -9.931  12.383  67.107  1.00  0.00    -0.207 C  
HETATM   19  O   UNL     2      -9.187  12.503  68.245  1.00  0.00    -0.201 OA 
ENDBRANCH   8  11
ENDBRANCH   3   8
BRANCH   7  20
HETATM   20  C   UNL     3      -8.121  15.647  68.948  1.00  0.00    -0.197 C  
HETATM   21  O   UNL     3      -9.211  15.261  69.783  1.00  0.00    -0.420 OA 
HETATM   22  H   UNL     3      -9.720  16.024  70.029  1.00  0.00     0.000 HD 
BRANCH  20  23
HETATM   23  C   UNL     3      -8.517  16.731  67.908  1.00  0.00    -0.200 C  
HETATM   24  O   UNL     3     -10.484  19.514  68.530  1.00  0.00    -0.371 OA 
HETATM   25  C   UNL     3      -8.244  19.019  67.850  1.00  0.00    -0.280 C  
HETATM   26  C   UNL     3      -7.659  17.874  67.476  1.00  0.00    -0.210 C  
HETATM   27  O   UNL     3      -7.797  20.293  67.583  1.00  0.00    -0.299 OA 
HETATM   28  O   UNL     3      -9.782  17.342  68.212  1.00  0.00    -0.271 OA 
HETATM   29  C   UNL     3      -9.599  18.704  68.308  1.00  0.00    -0.347 C  
HETATM   30  O   UNL     3      -6.680  17.557  66.763  1.00  0.00    -0.165 OA 
HETATM   31  H   UNL     3      -6.918  20.497  67.285  1.00  0.00     0.000 HD 
ENDBRANCH  20  23
ENDBRANCH   7  20
TORSDOF 4
ENDMDL
MODEL      363
REMARK 921   NORMALIZED FREE ENERGY PREDICTED BY IDOCK:   -3.11 KCAL/MOL
REMARK 922        TOTAL FREE ENERGY PREDICTED BY IDOCK:   -5.76 KCAL/MOL
REMARK 923 INTER-LIGAND FREE ENERGY PREDICTED BY IDOCK:   -4.64 KCAL/MOL
REMARK 924 INTRA-LIGAND FREE ENERGY PREDICTED BY IDOCK:   -1.12 KCAL/MOL
REMARK 927      BINDING AFFINITY PREDICTED BY RF-SCORE:    0.00 PKD
ROOT
HETATM    1 CA   UNL     1      -7.555   7.387  68.227  1.00  0.00    -0.088 Ca 
HETATM    2  O   UNL     2      -8.489   4.480  74.524  1.00  0.00    -0.102 OA 
HETATM    3  C   UNL     2      -7.970   5.108  73.346  1.00  0.00    -0.111 C  
HETATM    4  H   UNL     2      -7.779   4.429  75.153  1.00  0.00     0.000 HD 
HETATM    5  O   UNL     3     -11.217  10.685  70.549  1.00  0.00    -0.377 OA 
HETATM    6  H   UNL     3     -11.950  10.733  71.152  1.00  0.00     0.000 HD 
HETATM    7  C   UNL     3     -11.745  10.152  69.301  1.00  0.00     0.003 C  
ENDROOT
BRANCH   3   8
HETATM    8  C   UNL     2      -9.099   5.190  72.345  1.00  0.00    -0.134 C  
HETATM    9  H   UNL     2     -11.039   5.484  72.434  1.00  0.00     0.000 HD 
HETATM   10  O   UNL     2     -10.329   5.433  73.063  1.00  0.00    -0.178 OA 
BRANCH   8  11
HETATM   11  C   UNL     2      -9.301   3.950  71.448  1.00  0.00    -0.139 C  
HETATM   12  C   UNL     2      -8.162   3.414  70.618  1.00  0.00    -0.056 C  
HETATM   13  O   UNL     2     -10.122   4.454  70.389  1.00  0.00    -0.209 OA 
HETATM   14  O   UNL     2      -9.484   6.019  68.812  1.00  0.00    -0.124 OA 
HETATM   15  H   UNL     2      -6.317   3.656  68.584  1.00  0.00     0.000 HD 
HETATM   16  O   UNL     2      -7.712   2.268  70.892  1.00  0.00    -0.036 OA 
HETATM   17  C   UNL     2      -9.247   5.097  69.561  1.00  0.00    -0.119 C  
HETATM   18  C   UNL     2      -8.001   4.284  69.593  1.00  0.00    -0.056 C  
HETATM   19  O   UNL     2      -7.112   4.174  68.563  1.00  0.00    -0.053 OA 
ENDBRANCH   8  11
ENDBRANCH   3   8
BRANCH   7  20
HETATM   20  C   UNL     3     -10.564  10.075  68.327  1.00  0.00    -0.226 C  
HETATM   21  O   UNL     3      -9.333  10.094  69.048  1.00  0.00    -0.167 OA 
HETATM   22  H   UNL     3      -8.601  10.046  68.445  1.00  0.00     0.000 HD 
BRANCH  20  23
HETATM   23  C   UNL     3     -10.517  10.935  67.035  1.00  0.00    -0.244 C  
HETATM   24  O   UNL     3     -12.469  13.722  66.384  1.00  0.00    -0.423 OA 
HETATM   25  C   UNL     3     -10.155  13.181  66.661  1.00  0.00    -0.264 C  
HETATM   26  C   UNL     3      -9.518  12.005  66.740  1.00  0.00    -0.208 C  
HETATM   27  O   UNL     3      -9.594  14.397  66.345  1.00  0.00    -0.277 OA 
HETATM   28  O   UNL     3     -11.782  11.552  66.744  1.00  0.00    -0.510 OA 
HETATM   29  C   UNL     3     -11.594  12.914  66.649  1.00  0.00    -0.372 C  
HETATM   30  O   UNL     3      -8.360  11.593  66.499  1.00  0.00    -0.170 OA 
HETATM   31  H   UNL     3      -8.660  14.570  66.352  1.00  0.00     0.000 HD 
ENDBRANCH  20  23
ENDBRANCH   7  20
TORSDOF 4
ENDMDL
MODEL      364
REMARK 921   NORMALIZED FREE ENERGY PREDICTED BY IDOCK:   -3.10 KCAL/MOL
REMARK 922        TOTAL FREE ENERGY PREDICTED BY IDOCK:   -5.75 KCAL/MOL
REMARK 923 INTER-LIGAND FREE ENERGY PREDICTED BY IDOCK:   -4.69 KCAL/MOL
REMARK 924 INTRA-LIGAND FREE ENERGY PREDICTED BY IDOCK:   -1.06 KCAL/MOL
REMARK 927      BINDING AFFINITY PREDICTED BY RF-SCORE:    0.00 PKD
ROOT
HETATM    1 CA   UNL     1      -9.791   3.696  70.200  1.00  0.00    -0.140 Ca 
HETATM    2  O   UNL     2     -10.565   4.504  63.292  1.00  0.00    -0.402 OA 
HETATM    3  C   UNL     2     -10.694   4.145  64.672  1.00  0.00    -0.129 C  
HETATM    4  H   UNL     2     -11.305   4.126  62.831  1.00  0.00     0.000 HD 
HETATM    5  O   UNL     3     -10.448   9.080  69.679  1.00  0.00    -0.212 OA 
HETATM    6  H   UNL     3     -10.292   9.832  69.121  1.00  0.00     0.000 HD 
HETATM    7  C   UNL     3      -9.186   8.793  70.346  1.00  0.00    -0.180 C  
ENDROOT
BRANCH   3   8
HETATM    8  C   UNL     2      -9.517   4.746  65.405  1.00  0.00    -0.151 C  
HETATM    9  H   UNL     2      -9.223   6.321  66.542  1.00  0.00     0.000 HD 
HETATM   10  O   UNL     2      -9.963   5.943  66.082  1.00  0.00    -0.104 OA 
BRANCH   8  11
HETATM   11  C   UNL     2      -8.293   5.112  64.538  1.00  0.00    -0.137 C  
HETATM   12  C   UNL     2      -7.253   4.072  64.209  1.00  0.00    -0.055 C  
HETATM   13  O   UNL     2      -7.512   5.929  65.418  1.00  0.00    -0.077 OA 
HETATM   14  O   UNL     2      -6.465   5.215  67.350  1.00  0.00    -0.045 OA 
HETATM   15  H   UNL     2      -5.264   2.310  64.945  1.00  0.00     0.000 HD 
HETATM   16  O   UNL     2      -7.116   3.723  63.004  1.00  0.00    -0.042 OA 
HETATM   17  C   UNL     2      -6.865   5.034  66.222  1.00  0.00    -0.062 C  
HETATM   18  C   UNL     2      -6.545   3.874  65.346  1.00  0.00    -0.040 C  
HETATM   19  O   UNL     2      -5.468   3.050  65.504  1.00  0.00    -0.009 OA 
ENDBRANCH   8  11
ENDBRANCH   3   8
BRANCH   7  20
HETATM   20  C   UNL     3      -9.437   7.578  71.247  1.00  0.00    -0.150 C  
HETATM   21  O   UNL     3      -9.354   6.376  70.483  1.00  0.00    -0.161 OA 
HETATM   22  H   UNL     3      -9.509   5.623  71.041  1.00  0.00     0.000 HD 
BRANCH  20  23
HETATM   23  C   UNL     3     -10.599   7.555  72.277  1.00  0.00    -0.236 C  
HETATM   24  O   UNL     3     -13.386   9.612  72.234  1.00  0.00    -0.438 OA 
HETATM   25  C   UNL     3     -12.877   7.280  72.062  1.00  0.00    -0.178 C  
HETATM   26  C   UNL     3     -11.745   6.598  72.273  1.00  0.00    -0.269 C  
HETATM   27  O   UNL     3     -14.154   6.767  72.050  1.00  0.00    -0.512 OA 
HETATM   28  O   UNL     3     -11.222   8.842  72.424  1.00  0.00    -0.286 OA 
HETATM   29  C   UNL     3     -12.569   8.708  72.167  1.00  0.00    -0.391 C  
HETATM   30  O   UNL     3     -11.450   5.423  72.590  1.00  0.00    -0.283 OA 
HETATM   31  H   UNL     3     -14.354   5.840  71.982  1.00  0.00     0.000 HD 
ENDBRANCH  20  23
ENDBRANCH   7  20
TORSDOF 4
ENDMDL
MODEL      365
REMARK 921   NORMALIZED FREE ENERGY PREDICTED BY IDOCK:   -3.10 KCAL/MOL
REMARK 922        TOTAL FREE ENERGY PREDICTED BY IDOCK:   -5.75 KCAL/MOL
REMARK 923 INTER-LIGAND FREE ENERGY PREDICTED BY IDOCK:   -5.16 KCAL/MOL
REMARK 924 INTRA-LIGAND FREE ENERGY PREDICTED BY IDOCK:   -0.59 KCAL/MOL
REMARK 927      BINDING AFFINITY PREDICTED BY RF-SCORE:    0.00 PKD
ROOT
HETATM    1 CA   UNL     1     -11.231  17.744  64.907  1.00  0.00    -0.498 Ca 
HETATM    2  O   UNL     2      -8.470  11.622  66.875  1.00  0.00    -0.158 OA 
HETATM    3  C   UNL     2      -8.861  12.811  66.178  1.00  0.00     0.249 C  
HETATM    4  H   UNL     2      -7.874  11.145  66.309  1.00  0.00     0.000 HD 
HETATM    5  O   UNL     3      -8.217  19.112  69.235  1.00  0.00    -0.185 OA 
HETATM    6  H   UNL     3      -7.888  18.822  70.078  1.00  0.00     0.000 HD 
HETATM    7  C   UNL     3      -9.603  19.505  69.447  1.00  0.00    -0.102 C  
ENDROOT
BRANCH   3   8
HETATM    8  C   UNL     2      -9.808  13.569  67.079  1.00  0.00    -0.251 C  
HETATM    9  H   UNL     2      -9.854  14.055  68.981  1.00  0.00     0.000 HD 
HETATM   10  O   UNL     2      -9.258  13.579  68.415  1.00  0.00    -0.195 OA 
BRANCH   8  11
HETATM   11  C   UNL     2     -11.251  13.026  67.156  1.00  0.00    -0.286 C  
HETATM   12  C   UNL     2     -11.734  11.998  66.164  1.00  0.00    -0.241 C  
HETATM   13  O   UNL     2     -12.034  14.140  66.712  1.00  0.00    -0.411 OA 
HETATM   14  O   UNL     2     -12.029  15.031  64.580  1.00  0.00    -0.440 OA 
HETATM   15  H   UNL     2     -12.374  11.212  63.600  1.00  0.00     0.000 HD 
HETATM   16  O   UNL     2     -12.030  10.849  66.592  1.00  0.00     0.310 OA 
HETATM   17  C   UNL     2     -11.932  14.103  65.351  1.00  0.00    -0.381 C  
HETATM   18  C   UNL     2     -11.911  12.657  64.995  1.00  0.00    -0.419 C  
HETATM   19  O   UNL     2     -12.386  12.133  63.828  1.00  0.00    -0.492 OA 
ENDBRANCH   8  11
ENDBRANCH   3   8
BRANCH   7  20
HETATM   20  C   UNL     3     -10.134  19.974  68.088  1.00  0.00    -0.413 C  
HETATM   21  O   UNL     3     -11.069  19.027  67.574  1.00  0.00    -0.381 OA 
HETATM   22  H   UNL     3     -11.398  19.317  66.732  1.00  0.00     0.000 HD 
BRANCH  20  23
HETATM   23  C   UNL     3      -9.186  20.536  66.993  1.00  0.00    -0.312 C  
HETATM   24  O   UNL     3      -5.723  20.508  67.103  1.00  0.00    -0.164 OA 
HETATM   25  C   UNL     3      -7.481  19.590  65.763  1.00  0.00    -0.259 C  
HETATM   26  C   UNL     3      -8.797  19.831  65.735  1.00  0.00     0.037 C  
HETATM   27  O   UNL     3      -6.731  19.014  64.763  1.00  0.00    -0.453 OA 
HETATM   28  O   UNL     3      -7.935  20.990  67.536  1.00  0.00    -0.221 OA 
HETATM   29  C   UNL     3      -6.912  20.329  66.892  1.00  0.00    -0.252 C  
HETATM   30  O   UNL     3      -9.711  19.732  64.884  1.00  0.00     0.755 OA 
HETATM   31  H   UNL     3      -7.101  18.535  64.030  1.00  0.00     0.000 HD 
ENDBRANCH  20  23
ENDBRANCH   7  20
TORSDOF 4
ENDMDL
MODEL      366
REMARK 921   NORMALIZED FREE ENERGY PREDICTED BY IDOCK:   -3.07 KCAL/MOL
REMARK 922        TOTAL FREE ENERGY PREDICTED BY IDOCK:   -5.71 KCAL/MOL
REMARK 923 INTER-LIGAND FREE ENERGY PREDICTED BY IDOCK:   -5.83 KCAL/MOL
REMARK 924 INTRA-LIGAND FREE ENERGY PREDICTED BY IDOCK:    0.11 KCAL/MOL
REMARK 927      BINDING AFFINITY PREDICTED BY RF-SCORE:    0.00 PKD
ROOT
HETATM    1 CA   UNL     1      -6.759  12.592  66.995  1.00  0.00    -0.114 Ca 
HETATM    2  O   UNL     2      -5.677   5.780  65.810  1.00  0.00    -0.013 OA 
HETATM    3  C   UNL     2      -5.644   7.131  66.284  1.00  0.00    -0.027 C  
HETATM    4  H   UNL     2      -5.043   5.286  66.315  1.00  0.00     0.000 HD 
HETATM    5  O   UNL     3     -11.565  10.365  68.271  1.00  0.00    -0.597 OA 
HETATM    6  H   UNL     3     -12.176   9.665  68.073  1.00  0.00     0.000 HD 
HETATM    7  C   UNL     3     -11.740  11.372  67.234  1.00  0.00    -0.039 C  
ENDROOT
BRANCH   3   8
HETATM    8  C   UNL     2      -6.654   7.916  65.480  1.00  0.00    -0.041 C  
HETATM    9  H   UNL     2      -6.621   9.549  64.389  1.00  0.00     0.000 HD 
HETATM   10  O   UNL     2      -5.985   9.055  64.894  1.00  0.00    -0.062 OA 
BRANCH   8  11
HETATM   11  C   UNL     2      -7.887   8.427  66.255  1.00  0.00    -0.098 C  
HETATM   12  C   UNL     2      -8.009   8.190  67.739  1.00  0.00    -0.127 C  
HETATM   13  O   UNL     2      -8.929   7.552  65.809  1.00  0.00    -0.135 OA 
HETATM   14  O   UNL     2      -9.067   5.286  66.240  1.00  0.00    -0.130 OA 
HETATM   15  H   UNL     2      -8.269   6.518  69.916  1.00  0.00     0.000 HD 
HETATM   16  O   UNL     2      -7.991   9.189  68.508  1.00  0.00    -0.100 OA 
HETATM   17  C   UNL     2      -8.751   6.415  66.543  1.00  0.00    -0.133 C  
HETATM   18  C   UNL     2      -8.305   6.876  67.887  1.00  0.00    -0.121 C  
HETATM   19  O   UNL     2      -8.553   6.223  69.059  1.00  0.00    -0.121 OA 
ENDBRANCH   8  11
ENDBRANCH   3   8
BRANCH   7  20
HETATM   20  C   UNL     3     -10.755  12.502  67.554  1.00  0.00    -0.225 C  
HETATM   21  O   UNL     3     -10.244  12.347  68.876  1.00  0.00    -0.399 OA 
HETATM   22  H   UNL     3      -9.633  13.047  69.075  1.00  0.00     0.000 HD 
BRANCH  20  23
HETATM   23  C   UNL     3     -11.071  13.982  67.201  1.00  0.00    -0.303 C  
HETATM   24  O   UNL     3      -8.812  16.295  65.958  1.00  0.00    -0.333 OA 
HETATM   25  C   UNL     3     -10.834  15.216  65.270  1.00  0.00    -0.400 C  
HETATM   26  C   UNL     3     -11.710  14.456  65.938  1.00  0.00    -0.369 C  
HETATM   27  O   UNL     3     -11.063  15.888  64.091  1.00  0.00    -0.905 OA 
HETATM   28  O   UNL     3      -9.923  14.834  67.352  1.00  0.00    -0.223 OA 
HETATM   29  C   UNL     3      -9.697  15.479  66.155  1.00  0.00    -0.319 C  
HETATM   30  O   UNL     3     -12.926  14.177  65.826  1.00  0.00    -0.492 OA 
HETATM   31  H   UNL     3     -11.801  15.718  63.517  1.00  0.00     0.000 HD 
ENDBRANCH  20  23
ENDBRANCH   7  20
TORSDOF 4
ENDMDL
MODEL      367
REMARK 921   NORMALIZED FREE ENERGY PREDICTED BY IDOCK:   -3.07 KCAL/MOL
REMARK 922        TOTAL FREE ENERGY PREDICTED BY IDOCK:   -5.71 KCAL/MOL
REMARK 923 INTER-LIGAND FREE ENERGY PREDICTED BY IDOCK:   -5.59 KCAL/MOL
REMARK 924 INTRA-LIGAND FREE ENERGY PREDICTED BY IDOCK:   -0.12 KCAL/MOL
REMARK 927      BINDING AFFINITY PREDICTED BY RF-SCORE:    0.00 PKD
ROOT
HETATM    1 CA   UNL     1      -8.130  12.909  69.153  1.00  0.00    -0.240 Ca 
HETATM    2  O   UNL     2     -13.228   9.363  72.379  1.00  0.00    -0.434 OA 
HETATM    3  C   UNL     2     -12.151  10.239  72.030  1.00  0.00     0.293 C  
HETATM    4  H   UNL     2     -13.460   9.544  73.283  1.00  0.00     0.000 HD 
HETATM    5  O   UNL     3     -12.559  14.294  66.298  1.00  0.00    -0.488 OA 
HETATM    6  H   UNL     3     -13.406  14.000  65.983  1.00  0.00     0.000 HD 
HETATM    7  C   UNL     3     -11.563  13.700  65.417  1.00  0.00    -0.321 C  
ENDROOT
BRANCH   3   8
HETATM    8  C   UNL     2     -11.784   9.952  70.593  1.00  0.00    -0.323 C  
HETATM    9  H   UNL     2     -12.300  10.669  68.839  1.00  0.00     0.000 HD 
HETATM   10  O   UNL     2     -12.530  10.850  69.743  1.00  0.00    -0.311 OA 
BRANCH   8  11
HETATM   11  C   UNL     2     -12.034   8.509  70.105  1.00  0.00     0.432 C  
HETATM   12  C   UNL     2     -12.086   7.368  71.090  1.00  0.00    -0.325 C  
HETATM   13  O   UNL     2     -10.803   8.175  69.453  1.00  0.00    -0.193 OA 
HETATM   14  O   UNL     2      -8.751   7.925  70.485  1.00  0.00    -0.133 OA 
HETATM   15  H   UNL     2     -10.911   5.730  72.972  1.00  0.00     0.000 HD 
HETATM   16  O   UNL     2     -13.178   6.756  71.239  1.00  0.00    -0.244 OA 
HETATM   17  C   UNL     2      -9.959   7.845  70.474  1.00  0.00    -0.191 C  
HETATM   18  C   UNL     2     -10.807   7.148  71.479  1.00  0.00    -0.225 C  
HETATM   19  O   UNL     2     -10.370   6.175  72.331  1.00  0.00    -0.187 OA 
ENDBRANCH   8  11
ENDBRANCH   3   8
BRANCH   7  20
HETATM   20  C   UNL     3     -10.196  14.175  65.925  1.00  0.00    -0.319 C  
HETATM   21  O   UNL     3      -9.403  13.056  66.316  1.00  0.00    -0.382 OA 
HETATM   22  H   UNL     3      -8.557  13.350  66.631  1.00  0.00     0.000 HD 
BRANCH  20  23
HETATM   23  C   UNL     3     -10.064  15.376  66.902  1.00  0.00    -0.257 C  
HETATM   24  O   UNL     3      -7.587  15.781  69.291  1.00  0.00    -0.199 OA 
HETATM   25  C   UNL     3      -8.366  16.880  67.313  1.00  0.00    -0.184 C  
HETATM   26  C   UNL     3      -9.466  16.703  66.571  1.00  0.00    -0.266 C  
HETATM   27  O   UNL     3      -7.569  18.001  67.344  1.00  0.00    -0.201 OA 
HETATM   28  O   UNL     3      -9.426  15.006  68.136  1.00  0.00    -0.190 OA 
HETATM   29  C   UNL     3      -8.329  15.820  68.323  1.00  0.00    -0.163 C  
HETATM   30  O   UNL     3     -10.155  17.413  65.802  1.00  0.00    -0.544 OA 
HETATM   31  H   UNL     3      -7.593  18.689  66.689  1.00  0.00     0.000 HD 
ENDBRANCH  20  23
ENDBRANCH   7  20
TORSDOF 4
ENDMDL
MODEL      368
REMARK 921   NORMALIZED FREE ENERGY PREDICTED BY IDOCK:   -3.05 KCAL/MOL
REMARK 922        TOTAL FREE ENERGY PREDICTED BY IDOCK:   -5.69 KCAL/MOL
REMARK 923 INTER-LIGAND FREE ENERGY PREDICTED BY IDOCK:   -5.62 KCAL/MOL
REMARK 924 INTRA-LIGAND FREE ENERGY PREDICTED BY IDOCK:   -0.07 KCAL/MOL
REMARK 927      BINDING AFFINITY PREDICTED BY RF-SCORE:    0.00 PKD
ROOT
HETATM    1 CA   UNL     1      -7.027  13.950  68.912  1.00  0.00    -0.078 Ca 
HETATM    2  O   UNL     2     -10.728  19.796  67.861  1.00  0.00    -0.391 OA 
HETATM    3  C   UNL     2      -9.700  18.810  68.015  1.00  0.00    -0.325 C  
HETATM    4  H   UNL     2     -10.304  20.612  67.620  1.00  0.00     0.000 HD 
HETATM    5  O   UNL     3     -10.102  12.675  64.599  1.00  0.00    -0.428 OA 
HETATM    6  H   UNL     3     -10.940  12.810  64.173  1.00  0.00     0.000 HD 
HETATM    7  C   UNL     3     -10.336  11.725  65.678  1.00  0.00    -0.252 C  
ENDROOT
BRANCH   3   8
HETATM    8  C   UNL     2     -10.375  17.513  68.397  1.00  0.00    -0.378 C  
HETATM    9  H   UNL     2      -9.920  15.968  69.522  1.00  0.00     0.000 HD 
HETATM   10  O   UNL     2      -9.496  16.784  69.282  1.00  0.00    -0.211 OA 
BRANCH   8  11
HETATM   11  C   UNL     2     -10.763  16.581  67.229  1.00  0.00    -0.243 C  
HETATM   12  C   UNL     2     -10.215  15.178  67.158  1.00  0.00    -0.247 C  
HETATM   13  O   UNL     2     -10.055  17.147  66.121  1.00  0.00    -0.305 OA 
HETATM   14  O   UNL     2      -7.758  17.205  65.873  1.00  0.00    -0.446 OA 
HETATM   15  H   UNL     2      -8.124  13.399  66.897  1.00  0.00     0.000 HD 
HETATM   16  O   UNL     2     -11.022  14.215  67.266  1.00  0.00    -0.288 OA 
HETATM   17  C   UNL     2      -8.778  16.684  66.265  1.00  0.00    -0.324 C  
HETATM   18  C   UNL     2      -8.916  15.300  66.794  1.00  0.00    -0.262 C  
HETATM   19  O   UNL     2      -8.036  14.283  66.560  1.00  0.00     0.275 OA 
ENDBRANCH   8  11
ENDBRANCH   3   8
BRANCH   7  20
HETATM   20  C   UNL     3      -8.984  11.506  66.365  1.00  0.00    -0.197 C  
HETATM   21  O   UNL     3      -8.084  10.844  65.478  1.00  0.00    -0.295 OA 
HETATM   22  H   UNL     3      -7.246  10.709  65.903  1.00  0.00     0.000 HD 
BRANCH  20  23
HETATM   23  C   UNL     3      -8.887  10.976  67.823  1.00  0.00    -0.133 C  
HETATM   24  O   UNL     3     -11.538   9.850  69.748  1.00  0.00    -0.191 OA 
HETATM   25  C   UNL     3      -9.512   8.990  68.810  1.00  0.00    -0.148 C  
HETATM   26  C   UNL     3      -8.475   9.597  68.220  1.00  0.00    -0.118 C  
HETATM   27  O   UNL     3      -9.515   7.732  69.371  1.00  0.00    -0.156 OA 
HETATM   28  O   UNL     3     -10.096  11.205  68.566  1.00  0.00    -0.186 OA 
HETATM   29  C   UNL     3     -10.547   9.997  69.052  1.00  0.00    -0.214 C  
HETATM   30  O   UNL     3      -7.260   9.343  68.055  1.00  0.00    -0.077 OA 
HETATM   31  H   UNL     3      -8.842   7.079  69.214  1.00  0.00     0.000 HD 
ENDBRANCH  20  23
ENDBRANCH   7  20
TORSDOF 4
ENDMDL
MODEL      369
REMARK 921   NORMALIZED FREE ENERGY PREDICTED BY IDOCK:   -3.05 KCAL/MOL
REMARK 922        TOTAL FREE ENERGY PREDICTED BY IDOCK:   -5.69 KCAL/MOL
REMARK 923 INTER-LIGAND FREE ENERGY PREDICTED BY IDOCK:   -5.12 KCAL/MOL
REMARK 924 INTRA-LIGAND FREE ENERGY PREDICTED BY IDOCK:   -0.57 KCAL/MOL
REMARK 927      BINDING AFFINITY PREDICTED BY RF-SCORE:    0.00 PKD
ROOT
HETATM    1 CA   UNL     1      -9.824   6.121  69.069  1.00  0.00    -0.129 Ca 
HETATM    2  O   UNL     2      -7.119  11.061  64.915  1.00  0.00    -0.290 OA 
HETATM    3  C   UNL     2      -7.742   9.893  65.463  1.00  0.00    -0.124 C  
HETATM    4  H   UNL     2      -7.164  10.988  63.969  1.00  0.00     0.000 HD 
HETATM    5  O   UNL     3     -12.855  10.491  70.256  1.00  0.00    -0.465 OA 
HETATM    6  H   UNL     3     -12.859  11.437  70.334  1.00  0.00     0.000 HD 
HETATM    7  C   UNL     3     -12.220   9.981  71.463  1.00  0.00    -0.405 C  
ENDROOT
BRANCH   3   8
HETATM    8  C   UNL     2      -7.672  10.009  66.968  1.00  0.00    -0.095 C  
HETATM    9  H   UNL     2      -8.065   8.832  68.490  1.00  0.00     0.000 HD 
HETATM   10  O   UNL     2      -8.109   8.758  67.544  1.00  0.00    -0.105 OA 
BRANCH   8  11
HETATM   11  C   UNL     2      -8.503  11.146  67.600  1.00  0.00    -0.122 C  
HETATM   12  C   UNL     2      -8.405  12.552  67.064  1.00  0.00    -0.144 C  
HETATM   13  O   UNL     2      -7.856  11.351  68.861  1.00  0.00    -0.138 OA 
HETATM   14  O   UNL     2      -5.717  12.169  69.166  1.00  0.00    -0.063 OA 
HETATM   15  H   UNL     2      -6.995  14.870  66.571  1.00  0.00     0.000 HD 
HETATM   16  O   UNL     2      -9.427  13.059  66.524  1.00  0.00    -0.250 OA 
HETATM   17  C   UNL     2      -6.764  12.112  68.561  1.00  0.00    -0.071 C  
HETATM   18  C   UNL     2      -7.207  13.030  67.476  1.00  0.00    -0.151 C  
HETATM   19  O   UNL     2      -6.712  14.284  67.262  1.00  0.00    -0.259 OA 
ENDBRANCH   8  11
ENDBRANCH   3   8
BRANCH   7  20
HETATM   20  C   UNL     3     -12.214   8.453  71.338  1.00  0.00    -0.302 C  
HETATM   21  O   UNL     3     -13.274   7.893  72.111  1.00  0.00    -0.470 OA 
HETATM   22  H   UNL     3     -13.270   6.947  72.033  1.00  0.00     0.000 HD 
BRANCH  20  23
HETATM   23  C   UNL     3     -10.898   7.633  71.441  1.00  0.00    -0.225 C  
HETATM   24  O   UNL     3      -8.759   7.570  74.165  1.00  0.00    -0.209 OA 
HETATM   25  C   UNL     3     -10.151   6.054  72.945  1.00  0.00    -0.182 C  
HETATM   26  C   UNL     3     -10.803   6.183  71.782  1.00  0.00    -0.255 C  
HETATM   27  O   UNL     3      -9.808   4.875  73.566  1.00  0.00    -0.141 OA 
HETATM   28  O   UNL     3      -9.934   8.257  72.306  1.00  0.00    -0.238 OA 
HETATM   29  C   UNL     3      -9.580   7.358  73.288  1.00  0.00    -0.232 C  
HETATM   30  O   UNL     3     -11.209   5.404  70.889  1.00  0.00    -0.055 OA 
HETATM   31  H   UNL     3     -10.178   4.029  73.343  1.00  0.00     0.000 HD 
ENDBRANCH  20  23
ENDBRANCH   7  20
TORSDOF 4
ENDMDL
MODEL      370
REMARK 921   NORMALIZED FREE ENERGY PREDICTED BY IDOCK:   -3.04 KCAL/MOL
REMARK 922        TOTAL FREE ENERGY PREDICTED BY IDOCK:   -5.67 KCAL/MOL
REMARK 923 INTER-LIGAND FREE ENERGY PREDICTED BY IDOCK:   -5.32 KCAL/MOL
REMARK 924 INTRA-LIGAND FREE ENERGY PREDICTED BY IDOCK:   -0.35 KCAL/MOL
REMARK 927      BINDING AFFINITY PREDICTED BY RF-SCORE:    0.00 PKD
ROOT
HETATM    1 CA   UNL     1     -11.479  13.159  70.079  1.00  0.00    -0.251 Ca 
HETATM    2  O   UNL     2     -10.904   6.192  69.770  1.00  0.00    -0.280 OA 
HETATM    3  C   UNL     2     -11.315   7.544  70.005  1.00  0.00    -0.096 C  
HETATM    4  H   UNL     2     -11.580   5.625  70.123  1.00  0.00     0.000 HD 
HETATM    5  O   UNL     3     -11.522  12.180  64.720  1.00  0.00    -0.318 OA 
HETATM    6  H   UNL     3     -11.198  11.614  64.029  1.00  0.00     0.000 HD 
HETATM    7  C   UNL     3     -10.435  13.090  65.053  1.00  0.00    -0.328 C  
ENDROOT
BRANCH   3   8
HETATM    8  C   UNL     2     -10.240   8.445  69.443  1.00  0.00    -0.208 C  
HETATM    9  H   UNL     2      -9.450  10.173  69.942  1.00  0.00     0.000 HD 
HETATM   10  O   UNL     2     -10.126   9.606  70.295  1.00  0.00    -0.243 OA 
BRANCH   8  11
HETATM   11  C   UNL     2     -10.451   8.931  67.993  1.00  0.00    -0.208 C  
HETATM   12  C   UNL     2      -9.659   8.325  66.862  1.00  0.00    -0.207 C  
HETATM   13  O   UNL     2      -9.854  10.232  68.003  1.00  0.00    -0.148 OA 
HETATM   14  O   UNL     2      -7.605  10.685  68.279  1.00  0.00    -0.091 OA 
HETATM   15  H   UNL     2      -7.282   7.831  65.556  1.00  0.00     0.000 HD 
HETATM   16  O   UNL     2     -10.279   7.666  65.984  1.00  0.00     0.242 OA 
HETATM   17  C   UNL     2      -8.515   9.990  67.887  1.00  0.00    -0.118 C  
HETATM   18  C   UNL     2      -8.403   8.818  66.977  1.00  0.00    -0.103 C  
HETATM   19  O   UNL     2      -7.354   8.579  66.137  1.00  0.00    -0.079 OA 
ENDBRANCH   8  11
ENDBRANCH   3   8
BRANCH   7  20
HETATM   20  C   UNL     3     -10.959  14.003  66.167  1.00  0.00    -0.295 C  
HETATM   21  O   UNL     3     -12.365  14.194  66.024  1.00  0.00    -0.444 OA 
HETATM   22  H   UNL     3     -12.690  14.759  66.715  1.00  0.00     0.000 HD 
BRANCH  20  23
HETATM   23  C   UNL     3     -10.214  15.306  66.569  1.00  0.00    -0.275 C  
HETATM   24  O   UNL     3     -10.689  18.431  65.150  1.00  0.00    -0.562 OA 
HETATM   25  C   UNL     3     -10.947  17.372  67.280  1.00  0.00    -0.011 C  
HETATM   26  C   UNL     3     -10.553  16.176  67.734  1.00  0.00    -0.309 C  
HETATM   27  O   UNL     3     -11.284  18.468  68.042  1.00  0.00    -0.115 OA 
HETATM   28  O   UNL     3     -10.097  16.227  65.471  1.00  0.00    -0.477 OA 
HETATM   29  C   UNL     3     -10.653  17.430  65.847  1.00  0.00    -0.200 C  
HETATM   30  O   UNL     3     -10.283  15.685  68.854  1.00  0.00    -0.198 OA 
HETATM   31  H   UNL     3     -11.475  18.430  68.973  1.00  0.00     0.000 HD 
ENDBRANCH  20  23
ENDBRANCH   7  20
TORSDOF 4
ENDMDL
MODEL      371
REMARK 921   NORMALIZED FREE ENERGY PREDICTED BY IDOCK:   -3.03 KCAL/MOL
REMARK 922        TOTAL FREE ENERGY PREDICTED BY IDOCK:   -5.67 KCAL/MOL
REMARK 923 INTER-LIGAND FREE ENERGY PREDICTED BY IDOCK:   -4.03 KCAL/MOL
REMARK 924 INTRA-LIGAND FREE ENERGY PREDICTED BY IDOCK:   -1.64 KCAL/MOL
REMARK 927      BINDING AFFINITY PREDICTED BY RF-SCORE:    0.00 PKD
ROOT
HETATM    1 CA   UNL     1      -9.011  10.141  70.954  1.00  0.00    -0.253 Ca 
HETATM    2  O   UNL     2     -10.102  13.053  64.686  1.00  0.00    -0.512 OA 
HETATM    3  C   UNL     2      -9.565  12.603  65.935  1.00  0.00    -0.153 C  
HETATM    4  H   UNL     2      -9.413  13.528  64.236  1.00  0.00     0.000 HD 
HETATM    5  O   UNL     3     -10.007   5.829  67.776  1.00  0.00    -0.123 OA 
HETATM    6  H   UNL     3     -10.488   5.513  67.020  1.00  0.00     0.000 HD 
HETATM    7  C   UNL     3     -10.951   5.862  68.883  1.00  0.00    -0.267 C  
ENDROOT
BRANCH   3   8
HETATM    8  C   UNL     2     -10.661  11.846  66.649  1.00  0.00    -0.238 C  
HETATM    9  H   UNL     2     -12.377  12.311  67.484  1.00  0.00     0.000 HD 
HETATM   10  O   UNL     2     -11.688  12.786  67.035  1.00  0.00    -0.342 OA 
BRANCH   8  11
HETATM   11  C   UNL     2     -10.233  11.059  67.906  1.00  0.00    -0.182 C  
HETATM   12  C   UNL     2      -8.782  10.717  68.135  1.00  0.00    -0.130 C  
HETATM   13  O   UNL     2     -10.726   9.741  67.640  1.00  0.00    -0.260 OA 
HETATM   14  O   UNL     2      -9.973   8.327  65.975  1.00  0.00    -0.104 OA 
HETATM   15  H   UNL     2      -6.458   9.407  67.439  1.00  0.00     0.000 HD 
HETATM   16  O   UNL     2      -8.194  11.236  69.123  1.00  0.00    -0.077 OA 
HETATM   17  C   UNL     2      -9.799   9.197  66.798  1.00  0.00    -0.226 C  
HETATM   18  C   UNL     2      -8.486   9.726  67.261  1.00  0.00    -0.125 C  
HETATM   19  O   UNL     2      -7.295   9.070  67.144  1.00  0.00    -0.085 OA 
ENDBRANCH   8  11
ENDBRANCH   3   8
BRANCH   7  20
HETATM   20  C   UNL     3     -10.174   6.371  70.103  1.00  0.00    -0.187 C  
HETATM   21  O   UNL     3     -10.356   7.778  70.247  1.00  0.00    -0.207 OA 
HETATM   22  H   UNL     3      -9.874   8.093  71.003  1.00  0.00     0.000 HD 
BRANCH  20  23
HETATM   23  C   UNL     3      -8.712   5.923  70.381  1.00  0.00    -0.139 C  
HETATM   24  O   UNL     3      -6.561   4.484  68.079  1.00  0.00    -0.041 OA 
HETATM   25  C   UNL     3      -6.695   6.468  69.409  1.00  0.00    -0.056 C  
HETATM   26  C   UNL     3      -7.519   6.819  70.405  1.00  0.00    -0.087 C  
HETATM   27  O   UNL     3      -5.461   7.013  69.135  1.00  0.00    -0.014 OA 
HETATM   28  O   UNL     3      -8.309   4.828  69.541  1.00  0.00    -0.081 OA 
HETATM   29  C   UNL     3      -7.172   5.199  68.856  1.00  0.00    -0.061 C  
HETATM   30  O   UNL     3      -7.461   7.593  71.387  1.00  0.00    -0.076 OA 
HETATM   31  H   UNL     3      -5.152   7.837  69.494  1.00  0.00     0.000 HD 
ENDBRANCH  20  23
ENDBRANCH   7  20
TORSDOF 4
ENDMDL
MODEL      372
REMARK 921   NORMALIZED FREE ENERGY PREDICTED BY IDOCK:   -3.03 KCAL/MOL
REMARK 922        TOTAL FREE ENERGY PREDICTED BY IDOCK:   -5.66 KCAL/MOL
REMARK 923 INTER-LIGAND FREE ENERGY PREDICTED BY IDOCK:   -4.64 KCAL/MOL
REMARK 924 INTRA-LIGAND FREE ENERGY PREDICTED BY IDOCK:   -1.02 KCAL/MOL
REMARK 927      BINDING AFFINITY PREDICTED BY RF-SCORE:    0.00 PKD
ROOT
HETATM    1 CA   UNL     1      -6.000  16.088  71.002  1.00  0.00    -0.136 Ca 
HETATM    2  O   UNL     2      -7.094   9.443  69.101  1.00  0.00    -0.060 OA 
HETATM    3  C   UNL     2      -7.091  10.722  69.746  1.00  0.00    -0.124 C  
HETATM    4  H   UNL     2      -7.704   8.888  69.574  1.00  0.00     0.000 HD 
HETATM    5  O   UNL     3      -8.177  16.596  66.033  1.00  0.00    -0.386 OA 
HETATM    6  H   UNL     3      -8.253  16.201  65.173  1.00  0.00     0.000 HD 
HETATM    7  C   UNL     3      -6.874  17.244  66.076  1.00  0.00    -0.100 C  
ENDROOT
BRANCH   3   8
HETATM    8  C   UNL     2      -6.122  11.603  68.993  1.00  0.00    -0.057 C  
HETATM    9  H   UNL     2      -4.701  12.870  69.479  1.00  0.00     0.000 HD 
HETATM   10  O   UNL     2      -5.310  12.315  69.953  1.00  0.00    -0.076 OA 
BRANCH   8  11
HETATM   11  C   UNL     2      -6.750  12.637  68.034  1.00  0.00    -0.095 C  
HETATM   12  C   UNL     2      -8.107  12.387  67.425  1.00  0.00    -0.177 C  
HETATM   13  O   UNL     2      -5.954  12.500  66.852  1.00  0.00    -0.278 OA 
HETATM   14  O   UNL     2      -5.878  10.642  65.481  1.00  0.00    -0.123 OA 
HETATM   15  H   UNL     2      -9.811  10.956  65.797  1.00  0.00     0.000 HD 
HETATM   16  O   UNL     2      -9.056  13.155  67.744  1.00  0.00    -0.181 OA 
HETATM   17  C   UNL     2      -6.459  11.394  66.231  1.00  0.00     0.033 C  
HETATM   18  C   UNL     2      -7.926  11.435  66.480  1.00  0.00    -0.128 C  
HETATM   19  O   UNL     2      -8.875  10.929  65.639  1.00  0.00    -0.185 OA 
ENDBRANCH   8  11
ENDBRANCH   3   8
BRANCH   7  20
HETATM   20  C   UNL     3      -6.752  17.881  67.465  1.00  0.00    -0.176 C  
HETATM   21  O   UNL     3      -6.928  16.891  68.476  1.00  0.00    -0.169 OA 
HETATM   22  H   UNL     3      -6.852  17.285  69.337  1.00  0.00     0.000 HD 
BRANCH  20  23
HETATM   23  C   UNL     3      -7.456  19.223  67.810  1.00  0.00    -0.257 C  
HETATM   24  O   UNL     3     -10.679  20.111  66.905  1.00  0.00    -0.331 OA 
HETATM   25  C   UNL     3      -9.422  19.723  68.903  1.00  0.00    -0.238 C  
HETATM   26  C   UNL     3      -8.111  19.550  69.111  1.00  0.00    -0.139 C  
HETATM   27  O   UNL     3     -10.359  20.096  69.840  1.00  0.00    -0.583 OA 
HETATM   28  O   UNL     3      -8.435  19.593  66.825  1.00  0.00    -0.282 OA 
HETATM   29  C   UNL     3      -9.647  19.767  67.457  1.00  0.00    -0.353 C  
HETATM   30  O   UNL     3      -7.322  19.726  70.068  1.00  0.00    -0.037 OA 
HETATM   31  H   UNL     3     -10.212  20.068  70.779  1.00  0.00     0.000 HD 
ENDBRANCH  20  23
ENDBRANCH   7  20
TORSDOF 4
ENDMDL
MODEL      373
REMARK 921   NORMALIZED FREE ENERGY PREDICTED BY IDOCK:   -3.01 KCAL/MOL
REMARK 922        TOTAL FREE ENERGY PREDICTED BY IDOCK:   -5.64 KCAL/MOL
REMARK 923 INTER-LIGAND FREE ENERGY PREDICTED BY IDOCK:   -5.78 KCAL/MOL
REMARK 924 INTRA-LIGAND FREE ENERGY PREDICTED BY IDOCK:    0.13 KCAL/MOL
REMARK 927      BINDING AFFINITY PREDICTED BY RF-SCORE:    0.00 PKD
ROOT
HETATM    1 CA   UNL     1      -8.986  17.650  65.429  1.00  0.00    -0.039 Ca 
HETATM    2  O   UNL     2     -11.342  11.209  66.817  1.00  0.00    -0.341 OA 
HETATM    3  C   UNL     2     -10.833  12.402  66.210  1.00  0.00    -0.266 C  
HETATM    4  H   UNL     2     -11.376  10.540  66.143  1.00  0.00     0.000 HD 
HETATM    5  O   UNL     3      -5.353  15.786  69.037  1.00  0.00    -0.102 OA 
HETATM    6  H   UNL     3      -5.225  15.228  69.795  1.00  0.00     0.000 HD 
HETATM    7  C   UNL     3      -5.959  17.016  69.527  1.00  0.00    -0.216 C  
ENDROOT
BRANCH   3   8
HETATM    8  C   UNL     2     -10.780  13.465  67.282  1.00  0.00    -0.260 C  
HETATM    9  H   UNL     2     -10.444  15.400  67.330  1.00  0.00     0.000 HD 
HETATM   10  O   UNL     2     -10.478  14.731  66.655  1.00  0.00    -0.277 OA 
BRANCH   8  11
HETATM   11  C   UNL     2      -9.758  13.234  68.416  1.00  0.00    -0.198 C  
HETATM   12  C   UNL     2      -8.492  14.051  68.481  1.00  0.00    -0.143 C  
HETATM   13  O   UNL     2      -9.181  11.969  68.072  1.00  0.00    -0.179 OA 
HETATM   14  O   UNL     2      -7.865  11.543  66.221  1.00  0.00    -0.086 OA 
HETATM   15  H   UNL     2      -6.055  14.837  67.460  1.00  0.00     0.000 HD 
HETATM   16  O   UNL     2      -8.337  14.835  69.457  1.00  0.00    -0.061 OA 
HETATM   17  C   UNL     2      -8.266  12.268  67.103  1.00  0.00    -0.179 C  
HETATM   18  C   UNL     2      -7.691  13.584  67.494  1.00  0.00    -0.175 C  
HETATM   19  O   UNL     2      -6.422  13.998  67.210  1.00  0.00    -0.286 OA 
ENDBRANCH   8  11
ENDBRANCH   3   8
BRANCH   7  20
HETATM   20  C   UNL     3      -6.166  17.916  68.304  1.00  0.00    -0.178 C  
HETATM   21  O   UNL     3      -5.298  19.046  68.374  1.00  0.00    -0.182 OA 
HETATM   22  H   UNL     3      -5.426  19.604  67.616  1.00  0.00     0.000 HD 
BRANCH  20  23
HETATM   23  C   UNL     3      -7.587  18.282  67.794  1.00  0.00    -0.227 C  
HETATM   24  O   UNL     3     -10.563  16.934  68.946  1.00  0.00    -0.326 OA 
HETATM   25  C   UNL     3      -9.478  19.065  68.854  1.00  0.00    -0.342 C  
HETATM   26  C   UNL     3      -8.379  19.477  68.211  1.00  0.00    -0.340 C  
HETATM   27  O   UNL     3     -10.491  19.860  69.339  1.00  0.00    -0.610 OA 
HETATM   28  O   UNL     3      -8.512  17.190  67.927  1.00  0.00    -0.204 OA 
HETATM   29  C   UNL     3      -9.588  17.616  68.675  1.00  0.00    -0.307 C  
HETATM   30  O   UNL     3      -7.949  20.571  67.776  1.00  0.00    -0.252 OA 
HETATM   31  H   UNL     3     -10.419  20.801  69.455  1.00  0.00     0.000 HD 
ENDBRANCH  20  23
ENDBRANCH   7  20
TORSDOF 4
ENDMDL
MODEL      374
REMARK 921   NORMALIZED FREE ENERGY PREDICTED BY IDOCK:   -3.01 KCAL/MOL
REMARK 922        TOTAL FREE ENERGY PREDICTED BY IDOCK:   -5.64 KCAL/MOL
REMARK 923 INTER-LIGAND FREE ENERGY PREDICTED BY IDOCK:   -4.42 KCAL/MOL
REMARK 924 INTRA-LIGAND FREE ENERGY PREDICTED BY IDOCK:   -1.22 KCAL/MOL
REMARK 927      BINDING AFFINITY PREDICTED BY RF-SCORE:    0.00 PKD
ROOT
HETATM    1 CA   UNL     1      -7.202   5.653  69.876  1.00  0.00    -0.051 Ca 
HETATM    2  O   UNL     2      -9.817   4.268  63.534  1.00  0.00    -0.283 OA 
HETATM    3  C   UNL     2      -9.352   4.216  64.888  1.00  0.00    -0.164 C  
HETATM    4  H   UNL     2     -10.165   3.410  63.321  1.00  0.00     0.000 HD 
HETATM    5  O   UNL     3     -11.498   8.991  69.585  1.00  0.00    -0.439 OA 
HETATM    6  H   UNL     3     -12.036   9.519  69.007  1.00  0.00     0.000 HD 
HETATM    7  C   UNL     3     -10.286   9.758  69.835  1.00  0.00    -0.254 C  
ENDROOT
BRANCH   3   8
HETATM    8  C   UNL     2      -8.799   5.580  65.227  1.00  0.00    -0.107 C  
HETATM    9  H   UNL     2      -7.018   6.406  65.266  1.00  0.00     0.000 HD 
HETATM   10  O   UNL     2      -7.365   5.548  65.052  1.00  0.00    -0.065 OA 
BRANCH   8  11
HETATM   11  C   UNL     2      -9.099   6.099  66.649  1.00  0.00    -0.139 C  
HETATM   12  C   UNL     2     -10.233   7.065  66.886  1.00  0.00    -0.248 C  
HETATM   13  O   UNL     2      -8.004   6.986  66.903  1.00  0.00    -0.111 OA 
HETATM   14  O   UNL     2      -7.593   8.976  65.803  1.00  0.00    -0.089 OA 
HETATM   15  H   UNL     2     -11.442   9.519  66.545  1.00  0.00     0.000 HD 
HETATM   16  O   UNL     2     -11.211   6.679  67.583  1.00  0.00    -0.296 OA 
HETATM   17  C   UNL     2      -8.342   8.136  66.249  1.00  0.00    -0.119 C  
HETATM   18  C   UNL     2      -9.817   8.260  66.403  1.00  0.00    -0.213 C  
HETATM   19  O   UNL     2     -10.501   9.440  66.446  1.00  0.00    -0.204 OA 
ENDBRANCH   8  11
ENDBRANCH   3   8
BRANCH   7  20
HETATM   20  C   UNL     3      -9.418   8.906  70.768  1.00  0.00    -0.228 C  
HETATM   21  O   UNL     3      -8.118   8.733  70.206  1.00  0.00    -0.098 OA 
HETATM   22  H   UNL     3      -7.580   8.205  70.784  1.00  0.00     0.000 HD 
BRANCH  20  23
HETATM   23  C   UNL     3      -9.963   7.611  71.431  1.00  0.00    -0.181 C  
HETATM   24  O   UNL     3      -9.732   4.413  70.120  1.00  0.00    -0.186 OA 
HETATM   25  C   UNL     3      -8.967   5.623  72.037  1.00  0.00    -0.138 C  
HETATM   26  C   UNL     3      -9.283   6.835  72.510  1.00  0.00    -0.136 C  
HETATM   27  O   UNL     3      -8.385   4.594  72.742  1.00  0.00    -0.108 OA 
HETATM   28  O   UNL     3     -10.325   6.614  70.461  1.00  0.00    -0.194 OA 
HETATM   29  C   UNL     3      -9.630   5.458  70.742  1.00  0.00    -0.173 C  
HETATM   30  O   UNL     3      -9.269   7.394  73.630  1.00  0.00    -0.198 OA 
HETATM   31  H   UNL     3      -7.955   4.702  73.583  1.00  0.00     0.000 HD 
ENDBRANCH  20  23
ENDBRANCH   7  20
TORSDOF 4
ENDMDL
MODEL      375
REMARK 921   NORMALIZED FREE ENERGY PREDICTED BY IDOCK:   -3.01 KCAL/MOL
REMARK 922        TOTAL FREE ENERGY PREDICTED BY IDOCK:   -5.63 KCAL/MOL
REMARK 923 INTER-LIGAND FREE ENERGY PREDICTED BY IDOCK:   -5.14 KCAL/MOL
REMARK 924 INTRA-LIGAND FREE ENERGY PREDICTED BY IDOCK:   -0.50 KCAL/MOL
REMARK 927      BINDING AFFINITY PREDICTED BY RF-SCORE:    0.00 PKD
ROOT
HETATM    1 CA   UNL     1     -11.992  11.881  69.933  1.00  0.00    -0.226 Ca 
HETATM    2  O   UNL     2     -10.120  18.493  68.608  1.00  0.00    -0.366 OA 
HETATM    3  C   UNL     2     -10.395  17.218  69.200  1.00  0.00    -0.290 C  
HETATM    4  H   UNL     2      -9.725  19.037  69.279  1.00  0.00     0.000 HD 
HETATM    5  O   UNL     3      -8.100  11.303  66.164  1.00  0.00    -0.273 OA 
HETATM    6  H   UNL     3      -7.695  11.692  65.398  1.00  0.00     0.000 HD 
HETATM    7  C   UNL     3      -9.335  10.681  65.706  1.00  0.00    -0.186 C  
ENDROOT
BRANCH   3   8
HETATM    8  C   UNL     2     -11.023  16.352  68.133  1.00  0.00    -0.339 C  
HETATM    9  H   UNL     2     -12.660  15.278  67.975  1.00  0.00     0.000 HD 
HETATM   10  O   UNL     2     -12.265  15.823  68.646  1.00  0.00    -0.170 OA 
BRANCH   8  11
HETATM   11  C   UNL     2     -10.168  15.170  67.629  1.00  0.00    -0.241 C  
HETATM   12  C   UNL     2      -8.740  15.009  68.088  1.00  0.00    -0.165 C  
HETATM   13  O   UNL     2      -9.917  15.516  66.263  1.00  0.00    -0.258 OA 
HETATM   14  O   UNL     2      -8.645  17.302  65.533  1.00  0.00    -0.248 OA 
HETATM   15  H   UNL     2      -6.124  15.869  68.227  1.00  0.00     0.000 HD 
HETATM   16  O   UNL     2      -8.448  14.004  68.792  1.00  0.00    -0.134 OA 
HETATM   17  C   UNL     2      -8.898  16.423  66.326  1.00  0.00    -0.332 C  
HETATM   18  C   UNL     2      -8.028  15.963  67.442  1.00  0.00    -0.161 C  
HETATM   19  O   UNL     2      -6.679  16.162  67.515  1.00  0.00    -0.137 OA 
ENDBRANCH   8  11
ENDBRANCH   3   8
BRANCH   7  20
HETATM   20  C   UNL     3      -9.989  10.054  66.943  1.00  0.00    -0.209 C  
HETATM   21  O   UNL     3     -10.290  11.064  67.904  1.00  0.00    -0.176 OA 
HETATM   22  H   UNL     3     -10.695  10.676  68.670  1.00  0.00     0.000 HD 
BRANCH  20  23
HETATM   23  C   UNL     3      -9.430   8.757  67.590  1.00  0.00    -0.141 C  
HETATM   24  O   UNL     3     -10.852   5.606  67.367  1.00  0.00    -0.243 OA 
HETATM   25  C   UNL     3      -8.828   6.708  66.723  1.00  0.00    -0.130 C  
HETATM   26  C   UNL     3      -8.332   7.912  67.033  1.00  0.00    -0.117 C  
HETATM   27  O   UNL     3      -8.122   5.630  66.241  1.00  0.00    -0.104 OA 
HETATM   28  O   UNL     3     -10.468   7.814  67.905  1.00  0.00    -0.214 OA 
HETATM   29  C   UNL     3     -10.180   6.621  67.279  1.00  0.00    -0.198 C  
HETATM   30  O   UNL     3      -7.191   8.426  67.093  1.00  0.00    -0.081 OA 
HETATM   31  H   UNL     3      -7.244   5.687  65.881  1.00  0.00     0.000 HD 
ENDBRANCH  20  23
ENDBRANCH   7  20
TORSDOF 4
ENDMDL
MODEL      376
REMARK 921   NORMALIZED FREE ENERGY PREDICTED BY IDOCK:   -2.98 KCAL/MOL
REMARK 922        TOTAL FREE ENERGY PREDICTED BY IDOCK:   -5.61 KCAL/MOL
REMARK 923 INTER-LIGAND FREE ENERGY PREDICTED BY IDOCK:   -5.93 KCAL/MOL
REMARK 924 INTRA-LIGAND FREE ENERGY PREDICTED BY IDOCK:    0.32 KCAL/MOL
REMARK 927      BINDING AFFINITY PREDICTED BY RF-SCORE:    0.00 PKD
ROOT
HETATM    1 CA   UNL     1     -11.049  14.813  68.020  1.00  0.00    -0.236 Ca 
HETATM    2  O   UNL     2      -8.344  21.240  67.427  1.00  0.00    -0.486 OA 
HETATM    3  C   UNL     2      -9.071  20.068  67.814  1.00  0.00    -0.320 C  
HETATM    4  H   UNL     2      -8.571  21.929  68.041  1.00  0.00     0.000 HD 
HETATM    5  O   UNL     3      -5.725  13.962  68.813  1.00  0.00    -0.079 OA 
HETATM    6  H   UNL     3      -4.849  14.248  68.584  1.00  0.00     0.000 HD 
HETATM    7  C   UNL     3      -6.200  13.154  67.699  1.00  0.00    -0.153 C  
ENDROOT
BRANCH   3   8
HETATM    8  C   UNL     2      -8.710  18.972  66.838  1.00  0.00    -0.303 C  
HETATM    9  H   UNL     2      -9.275  17.116  66.535  1.00  0.00     0.000 HD 
HETATM   10  O   UNL     2      -9.503  17.805  67.148  1.00  0.00    -0.255 OA 
BRANCH   8  11
HETATM   11  C   UNL     2      -7.225  18.552  66.809  1.00  0.00    -0.211 C  
HETATM   12  C   UNL     2      -6.791  17.240  67.413  1.00  0.00    -0.161 C  
HETATM   13  O   UNL     2      -6.625  19.437  67.762  1.00  0.00    -0.218 OA 
HETATM   14  O   UNL     2      -7.021  19.441  70.039  1.00  0.00    -0.085 OA 
HETATM   15  H   UNL     2      -6.452  15.553  69.567  1.00  0.00     0.000 HD 
HETATM   16  O   UNL     2      -6.327  16.353  66.645  1.00  0.00    -0.291 OA 
HETATM   17  C   UNL     2      -6.917  18.877  68.973  1.00  0.00    -0.311 C  
HETATM   18  C   UNL     2      -6.848  17.406  68.755  1.00  0.00    -0.228 C  
HETATM   19  O   UNL     2      -6.496  16.491  69.706  1.00  0.00    -0.218 OA 
ENDBRANCH   8  11
ENDBRANCH   3   8
BRANCH   7  20
HETATM   20  C   UNL     3      -7.615  12.693  68.068  1.00  0.00    -0.132 C  
HETATM   21  O   UNL     3      -7.601  12.037  69.335  1.00  0.00    -0.335 OA 
HETATM   22  H   UNL     3      -8.477  11.751  69.564  1.00  0.00     0.000 HD 
BRANCH  20  23
HETATM   23  C   UNL     3      -8.536  11.986  67.035  1.00  0.00    -0.183 C  
HETATM   24  O   UNL     3     -10.537   9.228  67.660  1.00  0.00    -0.263 OA 
HETATM   25  C   UNL     3     -10.792  11.518  67.014  1.00  0.00    -0.273 C  
HETATM   26  C   UNL     3      -9.900  12.441  66.634  1.00  0.00    -0.223 C  
HETATM   27  O   UNL     3     -12.147  11.539  66.772  1.00  0.00    -0.345 OA 
HETATM   28  O   UNL     3      -8.707  10.588  67.326  1.00  0.00    -0.126 OA 
HETATM   29  C   UNL     3     -10.055  10.328  67.443  1.00  0.00    -0.202 C  
HETATM   30  O   UNL     3      -9.924  13.479  65.934  1.00  0.00    -0.294 OA 
HETATM   31  H   UNL     3     -12.625  12.311  66.492  1.00  0.00     0.000 HD 
ENDBRANCH  20  23
ENDBRANCH   7  20
TORSDOF 4
ENDMDL
MODEL      377
REMARK 921   NORMALIZED FREE ENERGY PREDICTED BY IDOCK:   -2.98 KCAL/MOL
REMARK 922        TOTAL FREE ENERGY PREDICTED BY IDOCK:   -5.61 KCAL/MOL
REMARK 923 INTER-LIGAND FREE ENERGY PREDICTED BY IDOCK:   -5.89 KCAL/MOL
REMARK 924 INTRA-LIGAND FREE ENERGY PREDICTED BY IDOCK:    0.28 KCAL/MOL
REMARK 927      BINDING AFFINITY PREDICTED BY RF-SCORE:    0.00 PKD
ROOT
HETATM    1 CA   UNL     1     -10.600  19.726  66.653  1.00  0.00    -0.330 Ca 
HETATM    2  O   UNL     2     -11.412  13.048  64.724  1.00  0.00    -0.309 OA 
HETATM    3  C   UNL     2     -11.529  14.461  64.924  1.00  0.00    -0.386 C  
HETATM    4  H   UNL     2     -12.102  12.788  64.126  1.00  0.00     0.000 HD 
HETATM    5  O   UNL     3      -5.981  18.675  63.961  1.00  0.00    -0.268 OA 
HETATM    6  H   UNL     3      -5.339  18.009  63.748  1.00  0.00     0.000 HD 
HETATM    7  C   UNL     3      -5.680  19.119  65.315  1.00  0.00    -0.199 C  
ENDROOT
BRANCH   3   8
HETATM    8  C   UNL     2     -10.431  14.874  65.875  1.00  0.00    -0.315 C  
HETATM    9  H   UNL     2      -8.713  14.118  66.455  1.00  0.00     0.000 HD 
HETATM   10  O   UNL     2      -9.404  13.858  65.856  1.00  0.00    -0.120 OA 
BRANCH   8  11
HETATM   11  C   UNL     2     -10.854  15.104  67.342  1.00  0.00    -0.302 C  
HETATM   12  C   UNL     2     -10.084  14.461  68.468  1.00  0.00    -0.244 C  
HETATM   13  O   UNL     2     -12.064  14.345  67.446  1.00  0.00    -0.397 OA 
HETATM   14  O   UNL     2     -12.233  12.044  67.310  1.00  0.00    -0.496 OA 
HETATM   15  H   UNL     2      -9.206  12.244  69.853  1.00  0.00     0.000 HD 
HETATM   16  O   UNL     2      -9.462  15.209  69.270  1.00  0.00    -0.220 OA 
HETATM   17  C   UNL     2     -11.642  13.057  67.611  1.00  0.00    -0.355 C  
HETATM   18  C   UNL     2     -10.413  13.147  68.447  1.00  0.00    -0.253 C  
HETATM   19  O   UNL     2      -9.989  12.187  69.319  1.00  0.00     0.201 OA 
ENDBRANCH   8  11
ENDBRANCH   3   8
BRANCH   7  20
HETATM   20  C   UNL     3      -6.717  20.195  65.660  1.00  0.00    -0.266 C  
HETATM   21  O   UNL     3      -6.611  21.286  64.748  1.00  0.00    -0.488 OA 
HETATM   22  H   UNL     3      -7.253  21.953  64.961  1.00  0.00     0.000 HD 
BRANCH  20  23
HETATM   23  C   UNL     3      -6.954  20.657  67.125  1.00  0.00    -0.322 C  
HETATM   24  O   UNL     3      -9.700  19.859  69.080  1.00  0.00    -0.301 OA 
HETATM   25  C   UNL     3      -7.333  19.508  69.086  1.00  0.00    -0.329 C  
HETATM   26  C   UNL     3      -6.353  20.032  68.340  1.00  0.00    -0.278 C  
HETATM   27  O   UNL     3      -7.194  18.900  70.313  1.00  0.00     0.598 OA 
HETATM   28  O   UNL     3      -8.352  20.761  67.443  1.00  0.00    -0.300 OA 
HETATM   29  C   UNL     3      -8.611  19.970  68.541  1.00  0.00    -0.021 C  
HETATM   30  O   UNL     3      -5.125  20.234  68.483  1.00  0.00    -0.191 OA 
HETATM   31  H   UNL     3      -6.364  18.601  70.667  1.00  0.00     0.000 HD 
ENDBRANCH  20  23
ENDBRANCH   7  20
TORSDOF 4
ENDMDL
MODEL      378
REMARK 921   NORMALIZED FREE ENERGY PREDICTED BY IDOCK:   -2.96 KCAL/MOL
REMARK 922        TOTAL FREE ENERGY PREDICTED BY IDOCK:   -5.57 KCAL/MOL
REMARK 923 INTER-LIGAND FREE ENERGY PREDICTED BY IDOCK:   -5.61 KCAL/MOL
REMARK 924 INTRA-LIGAND FREE ENERGY PREDICTED BY IDOCK:    0.03 KCAL/MOL
REMARK 927      BINDING AFFINITY PREDICTED BY RF-SCORE:    0.00 PKD
ROOT
HETATM    1 CA   UNL     1      -9.710  10.423  70.969  1.00  0.00    -0.292 Ca 
HETATM    2  O   UNL     2      -8.289  15.344  66.201  1.00  0.00    -0.360 OA 
HETATM    3  C   UNL     2      -8.277  14.440  67.312  1.00  0.00    -0.203 C  
HETATM    4  H   UNL     2      -7.478  15.839  66.229  1.00  0.00     0.000 HD 
HETATM    5  O   UNL     3      -9.423   7.570  66.336  1.00  0.00    -0.230 OA 
HETATM    6  H   UNL     3      -9.578   7.589  65.399  1.00  0.00     0.000 HD 
HETATM    7  C   UNL     3     -10.721   7.372  66.964  1.00  0.00    -0.319 C  
ENDROOT
BRANCH   3   8
HETATM    8  C   UNL     2      -9.566  13.654  67.267  1.00  0.00    -0.238 C  
HETATM    9  H   UNL     2     -10.636  12.631  68.558  1.00  0.00     0.000 HD 
HETATM   10  O   UNL     2      -9.825  13.126  68.586  1.00  0.00    -0.188 OA 
BRANCH   8  11
HETATM   11  C   UNL     2      -9.612  12.484  66.262  1.00  0.00    -0.245 C  
HETATM   12  C   UNL     2     -10.613  12.484  65.134  1.00  0.00    -0.293 C  
HETATM   13  O   UNL     2     -10.164  11.416  67.040  1.00  0.00    -0.203 OA 
HETATM   14  O   UNL     2     -12.312  11.333  67.888  1.00  0.00    -0.363 OA 
HETATM   15  H   UNL     2     -13.202  12.416  64.186  1.00  0.00     0.000 HD 
HETATM   16  O   UNL     2     -10.181  12.557  63.951  1.00  0.00    -0.408 OA 
HETATM   17  C   UNL     2     -11.507  11.663  67.046  1.00  0.00    -0.262 C  
HETATM   18  C   UNL     2     -11.814  12.212  65.697  1.00  0.00    -0.276 C  
HETATM   19  O   UNL     2     -13.005  12.066  65.047  1.00  0.00    -0.222 OA 
ENDBRANCH   8  11
ENDBRANCH   3   8
BRANCH   7  20
HETATM   20  C   UNL     3     -10.471   7.341  68.477  1.00  0.00    -0.188 C  
HETATM   21  O   UNL     3      -9.076   7.466  68.745  1.00  0.00    -0.133 OA 
HETATM   22  H   UNL     3      -8.921   7.446  69.682  1.00  0.00     0.000 HD 
BRANCH  20  23
HETATM   23  C   UNL     3     -11.169   6.300  69.396  1.00  0.00    -0.420 C  
HETATM   24  O   UNL     3      -9.902   3.196  70.267  1.00  0.00    -0.089 OA 
HETATM   25  C   UNL     3     -10.520   5.244  71.339  1.00  0.00    -0.203 C  
HETATM   26  C   UNL     3     -11.171   6.323  70.888  1.00  0.00    -0.324 C  
HETATM   27  O   UNL     3     -10.359   4.873  72.654  1.00  0.00    -0.183 OA 
HETATM   28  O   UNL     3     -10.797   4.950  69.070  1.00  0.00     0.254 OA 
HETATM   29  C   UNL     3     -10.285   4.352  70.201  1.00  0.00     0.057 C  
HETATM   30  O   UNL     3     -11.867   7.231  71.399  1.00  0.00    -0.277 OA 
HETATM   31  H   UNL     3     -10.513   5.452  73.392  1.00  0.00     0.000 HD 
ENDBRANCH  20  23
ENDBRANCH   7  20
TORSDOF 4
ENDMDL
MODEL      379
REMARK 921   NORMALIZED FREE ENERGY PREDICTED BY IDOCK:   -2.95 KCAL/MOL
REMARK 922        TOTAL FREE ENERGY PREDICTED BY IDOCK:   -5.57 KCAL/MOL
REMARK 923 INTER-LIGAND FREE ENERGY PREDICTED BY IDOCK:   -3.84 KCAL/MOL
REMARK 924 INTRA-LIGAND FREE ENERGY PREDICTED BY IDOCK:   -1.73 KCAL/MOL
REMARK 927      BINDING AFFINITY PREDICTED BY RF-SCORE:    0.00 PKD
ROOT
HETATM    1 CA   UNL     1      -7.407   9.941  65.431  1.00  0.00    -0.094 Ca 
HETATM    2  O   UNL     2     -12.455  14.238  67.672  1.00  0.00    -0.570 OA 
HETATM    3  C   UNL     2     -11.680  13.223  67.024  1.00  0.00    -0.389 C  
HETATM    4  H   UNL     2     -13.354  14.136  67.382  1.00  0.00     0.000 HD 
HETATM    5  O   UNL     3      -7.569   8.927  70.782  1.00  0.00    -0.078 OA 
HETATM    6  H   UNL     3      -7.731   9.300  71.640  1.00  0.00     0.000 HD 
HETATM    7  C   UNL     3      -6.231   9.349  70.394  1.00  0.00    -0.061 C  
ENDROOT
BRANCH   3   8
HETATM    8  C   UNL     2     -10.251  13.384  67.487  1.00  0.00    -0.226 C  
HETATM    9  H   UNL     2      -8.961  14.862  67.581  1.00  0.00     0.000 HD 
HETATM   10  O   UNL     2      -9.860  14.761  67.291  1.00  0.00    -0.227 OA 
BRANCH   8  11
HETATM   11  C   UNL     2      -9.208  12.483  66.792  1.00  0.00    -0.217 C  
HETATM   12  C   UNL     2      -9.645  11.268  66.014  1.00  0.00    -0.218 C  
HETATM   13  O   UNL     2      -8.576  11.819  67.893  1.00  0.00    -0.142 OA 
HETATM   14  O   UNL     2      -9.582  10.292  69.306  1.00  0.00    -0.205 OA 
HETATM   15  H   UNL     2     -10.800   8.769  65.862  1.00  0.00     0.000 HD 
HETATM   16  O   UNL     2      -9.448  11.254  64.768  1.00  0.00    -0.224 OA 
HETATM   17  C   UNL     2      -9.443  10.817  68.224  1.00  0.00    -0.164 C  
HETATM   18  C   UNL     2     -10.014  10.345  66.933  1.00  0.00    -0.206 C  
HETATM   19  O   UNL     2     -10.436   9.071  66.685  1.00  0.00    -0.246 OA 
ENDBRANCH   8  11
ENDBRANCH   3   8
BRANCH   7  20
HETATM   20  C   UNL     3      -5.970   8.746  69.008  1.00  0.00    -0.043 C  
HETATM   21  O   UNL     3      -6.748   9.425  68.024  1.00  0.00    -0.062 OA 
HETATM   22  H   UNL     3      -6.587   9.052  67.166  1.00  0.00     0.000 HD 
BRANCH  20  23
HETATM   23  C   UNL     3      -5.926   7.209  68.784  1.00  0.00    -0.023 C  
HETATM   24  O   UNL     3      -7.872   4.865  70.433  1.00  0.00    -0.064 OA 
HETATM   25  C   UNL     3      -7.536   5.666  68.203  1.00  0.00    -0.081 C  
HETATM   26  C   UNL     3      -6.607   6.474  67.678  1.00  0.00    -0.061 C  
HETATM   27  O   UNL     3      -8.334   4.779  67.517  1.00  0.00    -0.105 OA 
HETATM   28  O   UNL     3      -6.292   6.476  69.965  1.00  0.00    -0.036 OA 
HETATM   29  C   UNL     3      -7.344   5.643  69.655  1.00  0.00    -0.066 C  
HETATM   30  O   UNL     3      -6.104   6.647  66.543  1.00  0.00    -0.031 OA 
HETATM   31  H   UNL     3      -8.458   4.794  66.575  1.00  0.00     0.000 HD 
ENDBRANCH  20  23
ENDBRANCH   7  20
TORSDOF 4
ENDMDL
MODEL      380
REMARK 921   NORMALIZED FREE ENERGY PREDICTED BY IDOCK:   -2.94 KCAL/MOL
REMARK 922        TOTAL FREE ENERGY PREDICTED BY IDOCK:   -5.56 KCAL/MOL
REMARK 923 INTER-LIGAND FREE ENERGY PREDICTED BY IDOCK:   -4.73 KCAL/MOL
REMARK 924 INTRA-LIGAND FREE ENERGY PREDICTED BY IDOCK:   -0.83 KCAL/MOL
REMARK 927      BINDING AFFINITY PREDICTED BY RF-SCORE:    0.00 PKD
ROOT
HETATM    1 CA   UNL     1      -8.338  10.615  64.650  1.00  0.00    -0.154 Ca 
HETATM    2  O   UNL     2     -10.761  16.522  67.515  1.00  0.00    -0.321 OA 
HETATM    3  C   UNL     2     -10.489  15.394  66.675  1.00  0.00    -0.293 C  
HETATM    4  H   UNL     2     -11.451  17.025  67.099  1.00  0.00     0.000 HD 
HETATM    5  O   UNL     3     -10.530   8.879  69.326  1.00  0.00    -0.221 OA 
HETATM    6  H   UNL     3     -10.708   9.102  70.232  1.00  0.00     0.000 HD 
HETATM    7  C   UNL     3      -9.125   8.502  69.262  1.00  0.00    -0.153 C  
ENDROOT
BRANCH   3   8
HETATM    8  C   UNL     2      -9.392  14.594  67.338  1.00  0.00    -0.196 C  
HETATM    9  H   UNL     2      -9.300  12.951  68.410  1.00  0.00     0.000 HD 
HETATM   10  O   UNL     2      -9.990  13.454  67.993  1.00  0.00    -0.225 OA 
BRANCH   8  11
HETATM   11  C   UNL     2      -8.534  15.349  68.375  1.00  0.00    -0.160 C  
HETATM   12  C   UNL     2      -7.618  16.466  67.941  1.00  0.00    -0.148 C  
HETATM   13  O   UNL     2      -7.541  14.381  68.732  1.00  0.00    -0.123 OA 
HETATM   14  O   UNL     2      -5.893  13.557  67.337  1.00  0.00    -0.348 OA 
HETATM   15  H   UNL     2      -5.430  17.409  66.554  1.00  0.00     0.000 HD 
HETATM   16  O   UNL     2      -7.868  17.635  68.342  1.00  0.00    -0.249 OA 
HETATM   17  C   UNL     2      -6.632  14.439  67.715  1.00  0.00    -0.173 C  
HETATM   18  C   UNL     2      -6.570  15.873  67.320  1.00  0.00    -0.165 C  
HETATM   19  O   UNL     2      -5.469  16.495  66.805  1.00  0.00    -0.339 OA 
ENDBRANCH   8  11
ENDBRANCH   3   8
BRANCH   7  20
HETATM   20  C   UNL     3      -8.838   8.142  67.800  1.00  0.00    -0.130 C  
HETATM   21  O   UNL     3      -8.993   9.294  66.973  1.00  0.00    -0.125 OA 
HETATM   22  H   UNL     3      -8.815   9.072  66.067  1.00  0.00     0.000 HD 
BRANCH  20  23
HETATM   23  C   UNL     3      -9.415   6.854  67.150  1.00  0.00    -0.140 C  
HETATM   24  O   UNL     3      -7.586   4.067  66.208  1.00  0.00    -0.086 OA 
HETATM   25  C   UNL     3      -9.332   4.629  67.744  1.00  0.00    -0.141 C  
HETATM   26  C   UNL     3     -10.076   5.734  67.882  1.00  0.00    -0.162 C  
HETATM   27  O   UNL     3      -9.633   3.373  68.220  1.00  0.00    -0.169 OA 
HETATM   28  O   UNL     3      -8.458   6.198  66.301  1.00  0.00    -0.121 OA 
HETATM   29  C   UNL     3      -8.307   4.899  66.734  1.00  0.00    -0.107 C  
HETATM   30  O   UNL     3     -11.210   6.001  68.341  1.00  0.00    -0.287 OA 
HETATM   31  H   UNL     3     -10.299   3.198  68.875  1.00  0.00     0.000 HD 
ENDBRANCH  20  23
ENDBRANCH   7  20
TORSDOF 4
ENDMDL
MODEL      381
REMARK 921   NORMALIZED FREE ENERGY PREDICTED BY IDOCK:   -2.92 KCAL/MOL
REMARK 922        TOTAL FREE ENERGY PREDICTED BY IDOCK:   -5.53 KCAL/MOL
REMARK 923 INTER-LIGAND FREE ENERGY PREDICTED BY IDOCK:   -5.09 KCAL/MOL
REMARK 924 INTRA-LIGAND FREE ENERGY PREDICTED BY IDOCK:   -0.44 KCAL/MOL
REMARK 927      BINDING AFFINITY PREDICTED BY RF-SCORE:    0.00 PKD
ROOT
HETATM    1 CA   UNL     1     -11.858  13.567  68.602  1.00  0.00    -0.238 Ca 
HETATM    2  O   UNL     2      -9.645  20.153  69.433  1.00  0.00     0.005 OA 
HETATM    3  C   UNL     2     -10.258  18.866  69.565  1.00  0.00     0.373 C  
HETATM    4  H   UNL     2      -9.867  20.654  70.210  1.00  0.00     0.000 HD 
HETATM    5  O   UNL     3      -6.444  13.003  68.829  1.00  0.00    -0.073 OA 
HETATM    6  H   UNL     3      -5.610  13.408  68.622  1.00  0.00     0.000 HD 
HETATM    7  C   UNL     3      -6.952  12.448  67.582  1.00  0.00    -0.132 C  
ENDROOT
BRANCH   3   8
HETATM    8  C   UNL     2      -9.905  18.070  68.330  1.00  0.00    -0.366 C  
HETATM    9  H   UNL     2     -10.692  16.553  67.362  1.00  0.00     0.000 HD 
HETATM   10  O   UNL     2     -10.914  17.054  68.138  1.00  0.00    -0.367 OA 
BRANCH   8  11
HETATM   11  C   UNL     2      -8.524  17.382  68.339  1.00  0.00    -0.263 C  
HETATM   12  C   UNL     2      -7.360  17.995  67.603  1.00  0.00    -0.208 C  
HETATM   13  O   UNL     2      -8.732  16.239  67.502  1.00  0.00    -0.179 OA 
HETATM   14  O   UNL     2      -9.167  16.288  65.233  1.00  0.00    -0.175 OA 
HETATM   15  H   UNL     2      -6.109  18.801  65.281  1.00  0.00     0.000 HD 
HETATM   16  O   UNL     2      -6.375  18.405  68.276  1.00  0.00    -0.189 OA 
HETATM   17  C   UNL     2      -8.646  16.732  66.231  1.00  0.00    -0.305 C  
HETATM   18  C   UNL     2      -7.595  17.785  66.286  1.00  0.00    -0.287 C  
HETATM   19  O   UNL     2      -6.780  18.129  65.247  1.00  0.00    -0.443 OA 
ENDBRANCH   8  11
ENDBRANCH   3   8
BRANCH   7  20
HETATM   20  C   UNL     3      -8.298  11.794  67.915  1.00  0.00    -0.149 C  
HETATM   21  O   UNL     3      -8.213  11.104  69.160  1.00  0.00    -0.321 OA 
HETATM   22  H   UNL     3      -9.047  10.699  69.366  1.00  0.00     0.000 HD 
BRANCH  20  23
HETATM   23  C   UNL     3      -9.107  11.007  66.846  1.00  0.00    -0.156 C  
HETATM   24  O   UNL     3      -8.453   7.775  65.784  1.00  0.00    -0.133 OA 
HETATM   25  C   UNL     3     -10.200   8.979  66.891  1.00  0.00    -0.269 C  
HETATM   26  C   UNL     3     -10.394  10.289  67.086  1.00  0.00    -0.238 C  
HETATM   27  O   UNL     3     -11.156   7.991  66.955  1.00  0.00    -0.297 OA 
HETATM   28  O   UNL     3      -8.297  10.046  66.149  1.00  0.00    -0.117 OA 
HETATM   29  C   UNL     3      -8.880   8.804  66.284  1.00  0.00    -0.157 C  
HETATM   30  O   UNL     3     -11.383  11.033  67.278  1.00  0.00    -0.408 OA 
HETATM   31  H   UNL     3     -12.014   8.105  67.348  1.00  0.00     0.000 HD 
ENDBRANCH  20  23
ENDBRANCH   7  20
TORSDOF 4
ENDMDL
MODEL      382
REMARK 921   NORMALIZED FREE ENERGY PREDICTED BY IDOCK:   -2.90 KCAL/MOL
REMARK 922        TOTAL FREE ENERGY PREDICTED BY IDOCK:   -5.50 KCAL/MOL
REMARK 923 INTER-LIGAND FREE ENERGY PREDICTED BY IDOCK:   -4.18 KCAL/MOL
REMARK 924 INTRA-LIGAND FREE ENERGY PREDICTED BY IDOCK:   -1.32 KCAL/MOL
REMARK 927      BINDING AFFINITY PREDICTED BY RF-SCORE:    0.00 PKD
ROOT
HETATM    1 CA   UNL     1     -11.772   5.839  68.441  1.00  0.00    -0.254 Ca 
HETATM    2  O   UNL     2      -5.705   4.833  65.103  1.00  0.00    -0.013 OA 
HETATM    3  C   UNL     2      -7.076   5.032  65.464  1.00  0.00    -0.067 C  
HETATM    4  H   UNL     2      -5.664   4.799  64.154  1.00  0.00     0.000 HD 
HETATM    5  O   UNL     3      -8.903  10.271  69.787  1.00  0.00    -0.338 OA 
HETATM    6  H   UNL     3      -8.034  10.612  69.963  1.00  0.00     0.000 HD 
HETATM    7  C   UNL     3      -9.318   9.561  70.988  1.00  0.00    -0.001 C  
ENDROOT
BRANCH   3   8
HETATM    8  C   UNL     2      -7.142   5.086  66.972  1.00  0.00    -0.072 C  
HETATM    9  H   UNL     2      -6.267   6.138  68.382  1.00  0.00     0.000 HD 
HETATM   10  O   UNL     2      -6.226   6.105  67.433  1.00  0.00    -0.026 OA 
BRANCH   8  11
HETATM   11  C   UNL     2      -6.812   3.772  67.712  1.00  0.00    -0.050 C  
HETATM   12  C   UNL     2      -7.386   2.462  67.235  1.00  0.00    -0.057 C  
HETATM   13  O   UNL     2      -7.550   3.900  68.933  1.00  0.00    -0.054 OA 
HETATM   14  O   UNL     2      -9.853   3.928  69.122  1.00  0.00    -0.133 OA 
HETATM   15  H   UNL     2      -9.514   0.778  66.749  1.00  0.00     0.000 HD 
HETATM   16  O   UNL     2      -6.592   1.587  66.793  1.00  0.00    -0.029 OA 
HETATM   17  C   UNL     2      -8.828   3.563  68.590  1.00  0.00    -0.112 C  
HETATM   18  C   UNL     2      -8.695   2.476  67.582  1.00  0.00    -0.115 C  
HETATM   19  O   UNL     2      -9.599   1.472  67.392  1.00  0.00    -0.020 OA 
ENDBRANCH   8  11
ENDBRANCH   3   8
BRANCH   7  20
HETATM   20  C   UNL     3     -10.721   9.011  70.705  1.00  0.00    -0.239 C  
HETATM   21  O   UNL     3     -11.697   9.769  71.416  1.00  0.00    -0.365 OA 
HETATM   22  H   UNL     3     -12.566   9.428  71.241  1.00  0.00     0.000 HD 
BRANCH  20  23
HETATM   23  C   UNL     3     -11.015   7.485  70.722  1.00  0.00    -0.252 C  
HETATM   24  O   UNL     3      -8.997   5.047  72.129  1.00  0.00    -0.130 OA 
HETATM   25  C   UNL     3     -11.195   5.944  72.426  1.00  0.00    -0.291 C  
HETATM   26  C   UNL     3     -11.922   6.786  71.680  1.00  0.00    -0.347 C  
HETATM   27  O   UNL     3     -11.672   5.075  73.380  1.00  0.00    -0.487 OA 
HETATM   28  O   UNL     3      -9.813   6.698  70.744  1.00  0.00    -0.182 OA 
HETATM   29  C   UNL     3      -9.856   5.864  71.839  1.00  0.00    -0.162 C  
HETATM   30  O   UNL     3     -13.142   7.013  71.512  1.00  0.00    -0.380 OA 
HETATM   31  H   UNL     3     -12.542   5.127  73.760  1.00  0.00     0.000 HD 
ENDBRANCH  20  23
ENDBRANCH   7  20
TORSDOF 4
ENDMDL
MODEL      383
REMARK 921   NORMALIZED FREE ENERGY PREDICTED BY IDOCK:   -2.89 KCAL/MOL
REMARK 922        TOTAL FREE ENERGY PREDICTED BY IDOCK:   -5.49 KCAL/MOL
REMARK 923 INTER-LIGAND FREE ENERGY PREDICTED BY IDOCK:   -4.74 KCAL/MOL
REMARK 924 INTRA-LIGAND FREE ENERGY PREDICTED BY IDOCK:   -0.74 KCAL/MOL
REMARK 927      BINDING AFFINITY PREDICTED BY RF-SCORE:    0.00 PKD
ROOT
HETATM    1 CA   UNL     1      -6.046   7.056  68.926  1.00  0.00    -0.019 Ca 
HETATM    2  O   UNL     2     -11.788  10.304  71.260  1.00  0.00    -0.364 OA 
HETATM    3  C   UNL     2     -10.559   9.941  70.621  1.00  0.00    -0.271 C  
HETATM    4  H   UNL     2     -12.004  11.185  70.980  1.00  0.00     0.000 HD 
HETATM    5  O   UNL     3     -10.071   3.961  66.951  1.00  0.00    -0.314 OA 
HETATM    6  H   UNL     3     -10.949   3.634  67.107  1.00  0.00     0.000 HD 
HETATM    7  C   UNL     3      -9.180   3.155  67.774  1.00  0.00    -0.196 C  
ENDROOT
BRANCH   3   8
HETATM    8  C   UNL     2     -10.216   8.539  71.066  1.00  0.00    -0.203 C  
HETATM    9  H   UNL     2      -8.689   7.324  70.837  1.00  0.00     0.000 HD 
HETATM   10  O   UNL     2      -8.905   8.206  70.558  1.00  0.00    -0.139 OA 
BRANCH   8  11
HETATM   11  C   UNL     2     -11.197   7.430  70.629  1.00  0.00    -0.270 C  
HETATM   12  C   UNL     2     -12.083   6.752  71.644  1.00  0.00    -0.359 C  
HETATM   13  O   UNL     2     -10.326   6.332  70.335  1.00  0.00    -0.192 OA 
HETATM   14  O   UNL     2      -9.038   5.180  71.868  1.00  0.00    -0.135 OA 
HETATM   15  H   UNL     2     -12.453   5.166  73.868  1.00  0.00     0.000 HD 
HETATM   16  O   UNL     2     -13.330   6.914  71.551  1.00  0.00    -0.329 OA 
HETATM   17  C   UNL     2     -10.030   5.799  71.556  1.00  0.00    -0.180 C  
HETATM   18  C   UNL     2     -11.277   5.931  72.359  1.00  0.00    -0.291 C  
HETATM   19  O   UNL     2     -11.658   5.082  73.357  1.00  0.00    -0.291 OA 
ENDBRANCH   8  11
ENDBRANCH   3   8
BRANCH   7  20
HETATM   20  C   UNL     3      -7.762   3.683  67.523  1.00  0.00    -0.078 C  
HETATM   21  O   UNL     3      -7.346   4.505  68.612  1.00  0.00    -0.059 OA 
HETATM   22  H   UNL     3      -6.468   4.832  68.457  1.00  0.00     0.000 HD 
BRANCH  20  23
HETATM   23  C   UNL     3      -7.339   4.256  66.142  1.00  0.00    -0.076 C  
HETATM   24  O   UNL     3      -9.340   4.422  63.319  1.00  0.00    -0.147 OA 
HETATM   25  C   UNL     3      -8.210   5.919  64.804  1.00  0.00    -0.129 C  
HETATM   26  C   UNL     3      -7.312   5.702  65.774  1.00  0.00    -0.073 C  
HETATM   27  O   UNL     3      -8.443   7.109  64.153  1.00  0.00    -0.351 OA 
HETATM   28  O   UNL     3      -8.045   3.634  65.055  1.00  0.00    -0.089 OA 
HETATM   29  C   UNL     3      -8.678   4.617  64.325  1.00  0.00    -0.148 C  
HETATM   30  O   UNL     3      -6.403   6.368  66.321  1.00  0.00    -0.039 OA 
HETATM   31  H   UNL     3      -8.138   7.953  64.464  1.00  0.00     0.000 HD 
ENDBRANCH  20  23
ENDBRANCH   7  20
TORSDOF 4
ENDMDL
MODEL      384
REMARK 921   NORMALIZED FREE ENERGY PREDICTED BY IDOCK:   -2.85 KCAL/MOL
REMARK 922        TOTAL FREE ENERGY PREDICTED BY IDOCK:   -5.44 KCAL/MOL
REMARK 923 INTER-LIGAND FREE ENERGY PREDICTED BY IDOCK:   -3.49 KCAL/MOL
REMARK 924 INTRA-LIGAND FREE ENERGY PREDICTED BY IDOCK:   -1.95 KCAL/MOL
REMARK 927      BINDING AFFINITY PREDICTED BY RF-SCORE:    0.00 PKD
ROOT
HETATM    1 CA   UNL     1      -6.636   7.373  68.886  1.00  0.00    -0.035 Ca 
HETATM    2  O   UNL     2      -9.452   1.797  65.732  1.00  0.00    -0.329 OA 
HETATM    3  C   UNL     2      -9.097   2.853  66.631  1.00  0.00    -0.145 C  
HETATM    4  H   UNL     2     -10.158   1.306  66.136  1.00  0.00     0.000 HD 
HETATM    5  O   UNL     3      -8.847   9.516  64.391  1.00  0.00    -0.203 OA 
HETATM    6  H   UNL     3      -9.059   9.361  63.478  1.00  0.00     0.000 HD 
HETATM    7  C   UNL     3      -7.422   9.813  64.437  1.00  0.00    -0.132 C  
ENDROOT
BRANCH   3   8
HETATM    8  C   UNL     2      -7.974   3.634  65.988  1.00  0.00    -0.093 C  
HETATM    9  H   UNL     2      -6.261   3.191  65.136  1.00  0.00     0.000 HD 
HETATM   10  O   UNL     2      -6.967   2.700  65.540  1.00  0.00    -0.050 OA 
BRANCH   8  11
HETATM   11  C   UNL     2      -7.287   4.692  66.878  1.00  0.00    -0.081 C  
HETATM   12  C   UNL     2      -7.981   5.222  68.108  1.00  0.00    -0.091 C  
HETATM   13  O   UNL     2      -7.345   5.873  66.071  1.00  0.00    -0.074 OA 
HETATM   14  O   UNL     2      -9.268   7.007  65.472  1.00  0.00     0.114 OA 
HETATM   15  H   UNL     2     -10.025   6.605  69.336  1.00  0.00     0.000 HD 
HETATM   16  O   UNL     2      -7.474   4.969  69.235  1.00  0.00    -0.056 OA 
HETATM   17  C   UNL     2      -8.618   6.337  66.243  1.00  0.00    -0.138 C  
HETATM   18  C   UNL     2      -8.957   6.048  67.663  1.00  0.00    -0.111 C  
HETATM   19  O   UNL     2      -9.809   6.789  68.430  1.00  0.00    -0.134 OA 
ENDBRANCH   8  11
ENDBRANCH   3   8
BRANCH   7  20
HETATM   20  C   UNL     3      -7.078  10.063  65.910  1.00  0.00    -0.114 C  
HETATM   21  O   UNL     3      -6.421   8.923  66.461  1.00  0.00    -0.061 OA 
HETATM   22  H   UNL     3      -6.208   9.079  67.373  1.00  0.00     0.000 HD 
BRANCH  20  23
HETATM   23  C   UNL     3      -8.106  10.695  66.890  1.00  0.00    -0.124 C  
HETATM   24  O   UNL     3     -11.394  11.488  66.143  1.00  0.00    -0.266 OA 
HETATM   25  C   UNL     3     -10.191  10.033  67.613  1.00  0.00    -0.204 C  
HETATM   26  C   UNL     3      -8.891   9.955  67.921  1.00  0.00    -0.129 C  
HETATM   27  O   UNL     3     -11.240   9.532  68.350  1.00  0.00    -0.484 OA 
HETATM   28  O   UNL     3      -9.091  11.490  66.208  1.00  0.00    -0.200 OA 
HETATM   29  C   UNL     3     -10.341  11.013  66.536  1.00  0.00    -0.245 C  
HETATM   30  O   UNL     3      -8.222   9.546  68.898  1.00  0.00    -0.110 OA 
HETATM   31  H   UNL     3     -11.142   8.896  69.050  1.00  0.00     0.000 HD 
ENDBRANCH  20  23
ENDBRANCH   7  20
TORSDOF 4
ENDMDL
MODEL      385
REMARK 921   NORMALIZED FREE ENERGY PREDICTED BY IDOCK:   -2.84 KCAL/MOL
REMARK 922        TOTAL FREE ENERGY PREDICTED BY IDOCK:   -5.43 KCAL/MOL
REMARK 923 INTER-LIGAND FREE ENERGY PREDICTED BY IDOCK:   -4.16 KCAL/MOL
REMARK 924 INTRA-LIGAND FREE ENERGY PREDICTED BY IDOCK:   -1.27 KCAL/MOL
REMARK 927      BINDING AFFINITY PREDICTED BY RF-SCORE:    0.00 PKD
ROOT
HETATM    1 CA   UNL     1      -8.252  12.648  69.940  1.00  0.00    -0.010 Ca 
HETATM    2  O   UNL     2      -8.407   6.686  73.601  1.00  0.00    -0.113 OA 
HETATM    3  C   UNL     2      -8.665   7.975  73.032  1.00  0.00    -0.219 C  
HETATM    4  H   UNL     2      -9.117   6.495  74.203  1.00  0.00     0.000 HD 
HETATM    5  O   UNL     3      -8.686   8.855  66.053  1.00  0.00    -0.141 OA 
HETATM    6  H   UNL     3      -8.459   7.967  65.803  1.00  0.00     0.000 HD 
HETATM    7  C   UNL     3      -7.496   9.663  65.832  1.00  0.00    -0.099 C  
ENDROOT
BRANCH   3   8
HETATM    8  C   UNL     2      -7.536   8.278  72.074  1.00  0.00    -0.100 C  
HETATM    9  H   UNL     2      -5.728   9.032  72.224  1.00  0.00     0.000 HD 
HETATM   10  O   UNL     2      -6.438   8.841  72.826  1.00  0.00    -0.213 OA 
BRANCH   8  11
HETATM   11  C   UNL     2      -7.869   9.241  70.916  1.00  0.00    -0.113 C  
HETATM   12  C   UNL     2      -9.108   9.032  70.081  1.00  0.00    -0.188 C  
HETATM   13  O   UNL     2      -6.885   8.908  69.930  1.00  0.00    -0.044 OA 
HETATM   14  O   UNL     2      -6.742   6.904  68.788  1.00  0.00    -0.052 OA 
HETATM   15  H   UNL     2     -10.614   7.563  68.299  1.00  0.00     0.000 HD 
HETATM   16  O   UNL     2     -10.017   9.904  70.132  1.00  0.00    -0.249 OA 
HETATM   17  C   UNL     2      -7.374   7.780  69.334  1.00  0.00    -0.086 C  
HETATM   18  C   UNL     2      -8.850   7.966  69.286  1.00  0.00    -0.142 C  
HETATM   19  O   UNL     2      -9.673   7.444  68.330  1.00  0.00    -0.149 OA 
ENDBRANCH   8  11
ENDBRANCH   3   8
BRANCH   7  20
HETATM   20  C   UNL     3      -7.862  11.096  66.235  1.00  0.00    -0.109 C  
HETATM   21  O   UNL     3      -6.680  11.878  66.394  1.00  0.00    -0.363 OA 
HETATM   22  H   UNL     3      -6.907  12.766  66.644  1.00  0.00     0.000 HD 
BRANCH  20  23
HETATM   23  C   UNL     3      -8.926  11.387  67.330  1.00  0.00    -0.159 C  
HETATM   24  O   UNL     3      -9.835  14.522  68.490  1.00  0.00    -0.219 OA 
HETATM   25  C   UNL     3     -10.839  12.672  67.351  1.00  0.00    -0.243 C  
HETATM   26  C   UNL     3     -10.403  11.429  67.115  1.00  0.00    -0.212 C  
HETATM   27  O   UNL     3     -12.146  13.103  67.321  1.00  0.00    -0.354 OA 
HETATM   28  O   UNL     3      -8.646  12.596  68.054  1.00  0.00    -0.172 OA 
HETATM   29  C   UNL     3      -9.741  13.427  67.960  1.00  0.00    -0.222 C  
HETATM   30  O   UNL     3     -10.936  10.315  66.903  1.00  0.00    -0.190 OA 
HETATM   31  H   UNL     3     -12.858  12.613  66.926  1.00  0.00     0.000 HD 
ENDBRANCH  20  23
ENDBRANCH   7  20
TORSDOF 4
ENDMDL
MODEL      386
REMARK 921   NORMALIZED FREE ENERGY PREDICTED BY IDOCK:   -2.82 KCAL/MOL
REMARK 922        TOTAL FREE ENERGY PREDICTED BY IDOCK:   -5.41 KCAL/MOL
REMARK 923 INTER-LIGAND FREE ENERGY PREDICTED BY IDOCK:   -4.61 KCAL/MOL
REMARK 924 INTRA-LIGAND FREE ENERGY PREDICTED BY IDOCK:   -0.80 KCAL/MOL
REMARK 927      BINDING AFFINITY PREDICTED BY RF-SCORE:    0.00 PKD
ROOT
HETATM    1 CA   UNL     1      -7.930   9.125  69.131  1.00  0.00    -0.081 Ca 
HETATM    2  O   UNL     2      -9.672   2.830  66.619  1.00  0.00    -0.396 OA 
HETATM    3  C   UNL     2      -9.511   4.018  67.402  1.00  0.00    -0.192 C  
HETATM    4  H   UNL     2     -10.261   2.255  67.094  1.00  0.00     0.000 HD 
HETATM    5  O   UNL     3     -10.606  10.352  64.546  1.00  0.00    -0.241 OA 
HETATM    6  H   UNL     3     -10.803  10.070  63.661  1.00  0.00     0.000 HD 
HETATM    7  C   UNL     3      -9.266  10.919  64.509  1.00  0.00    -0.201 C  
ENDROOT
BRANCH   3   8
HETATM    8  C   UNL     2      -8.575   4.932  66.646  1.00  0.00    -0.109 C  
HETATM    9  H   UNL     2      -7.765   6.693  66.967  1.00  0.00     0.000 HD 
HETATM   10  O   UNL     2      -8.353   6.118  67.442  1.00  0.00    -0.109 OA 
BRANCH   8  11
HETATM   11  C   UNL     2      -9.045   5.375  65.244  1.00  0.00    -0.051 C  
HETATM   12  C   UNL     2      -9.080   4.388  64.104  1.00  0.00    -0.149 C  
HETATM   13  O   UNL     2      -7.961   6.193  64.789  1.00  0.00    -0.113 OA 
HETATM   14  O   UNL     2      -5.823   5.459  64.309  1.00  0.00    -0.020 OA 
HETATM   15  H   UNL     2      -7.836   2.685  62.329  1.00  0.00     0.000 HD 
HETATM   16  O   UNL     2     -10.201   4.085  63.611  1.00  0.00    -0.179 OA 
HETATM   17  C   UNL     2      -7.022   5.300  64.358  1.00  0.00    -0.049 C  
HETATM   18  C   UNL     2      -7.791   4.182  63.745  1.00  0.00    -0.087 C  
HETATM   19  O   UNL     2      -7.346   3.398  62.720  1.00  0.00    -0.047 OA 
ENDBRANCH   8  11
ENDBRANCH   3   8
BRANCH   7  20
HETATM   20  C   UNL     3      -8.948  11.375  65.938  1.00  0.00    -0.177 C  
HETATM   21  O   UNL     3      -9.028  10.268  66.834  1.00  0.00    -0.136 OA 
HETATM   22  H   UNL     3      -8.831  10.550  67.720  1.00  0.00     0.000 HD 
BRANCH  20  23
HETATM   23  C   UNL     3      -9.557  12.674  66.533  1.00  0.00    -0.248 C  
HETATM   24  O   UNL     3     -11.193  15.148  64.744  1.00  0.00    -0.394 OA 
HETATM   25  C   UNL     3     -11.677  13.576  66.481  1.00  0.00    -0.371 C  
HETATM   26  C   UNL     3     -10.883  12.781  67.209  1.00  0.00    -0.251 C  
HETATM   27  O   UNL     3     -12.956  13.971  66.800  1.00  0.00    -0.299 OA 
HETATM   28  O   UNL     3      -9.561  13.756  65.587  1.00  0.00    -0.158 OA 
HETATM   29  C   UNL     3     -10.854  14.216  65.453  1.00  0.00    -0.337 C  
HETATM   30  O   UNL     3     -10.943  12.244  68.340  1.00  0.00    -0.211 OA 
HETATM   31  H   UNL     3     -13.490  13.556  67.467  1.00  0.00     0.000 HD 
ENDBRANCH  20  23
ENDBRANCH   7  20
TORSDOF 4
ENDMDL
MODEL      387
REMARK 921   NORMALIZED FREE ENERGY PREDICTED BY IDOCK:   -2.80 KCAL/MOL
REMARK 922        TOTAL FREE ENERGY PREDICTED BY IDOCK:   -5.38 KCAL/MOL
REMARK 923 INTER-LIGAND FREE ENERGY PREDICTED BY IDOCK:   -4.59 KCAL/MOL
REMARK 924 INTRA-LIGAND FREE ENERGY PREDICTED BY IDOCK:   -0.79 KCAL/MOL
REMARK 927      BINDING AFFINITY PREDICTED BY RF-SCORE:    0.00 PKD
ROOT
HETATM    1 CA   UNL     1      -9.767   5.984  68.273  1.00  0.00    -0.120 Ca 
HETATM    2  O   UNL     2      -7.741   9.895  62.834  1.00  0.00    -0.123 OA 
HETATM    3  C   UNL     2      -8.282   8.888  63.698  1.00  0.00    -0.172 C  
HETATM    4  H   UNL     2      -7.958   9.650  61.942  1.00  0.00     0.000 HD 
HETATM    5  O   UNL     3     -12.423  10.669  69.097  1.00  0.00    -0.752 OA 
HETATM    6  H   UNL     3     -12.390  11.612  68.989  1.00  0.00     0.000 HD 
HETATM    7  C   UNL     3     -11.592  10.357  70.251  1.00  0.00    -0.327 C  
ENDROOT
BRANCH   3   8
HETATM    8  C   UNL     2      -7.937   9.279  65.116  1.00  0.00    -0.116 C  
HETATM    9  H   UNL     2      -6.584   8.740  66.434  1.00  0.00     0.000 HD 
HETATM   10  O   UNL     2      -6.801   8.495  65.542  1.00  0.00    -0.069 OA 
BRANCH   8  11
HETATM   11  C   UNL     2      -9.060   9.105  66.160  1.00  0.00    -0.187 C  
HETATM   12  C   UNL     2      -9.558  10.288  66.951  1.00  0.00    -0.173 C  
HETATM   13  O   UNL     2      -8.405   8.397  67.218  1.00  0.00    -0.121 OA 
HETATM   14  O   UNL     2      -6.711   9.228  68.552  1.00  0.00    -0.057 OA 
HETATM   15  H   UNL     2      -9.186  12.307  68.792  1.00  0.00     0.000 HD 
HETATM   16  O   UNL     2     -10.747  10.668  66.773  1.00  0.00    -0.250 OA 
HETATM   17  C   UNL     2      -7.719   9.364  67.896  1.00  0.00    -0.088 C  
HETATM   18  C   UNL     2      -8.590  10.570  67.855  1.00  0.00    -0.123 C  
HETATM   19  O   UNL     2      -8.630  11.538  68.817  1.00  0.00    -0.139 OA 
ENDBRANCH   8  11
ENDBRANCH   3   8
BRANCH   7  20
HETATM   20  C   UNL     3     -11.646   8.834  70.426  1.00  0.00    -0.088 C  
HETATM   21  O   UNL     3     -12.472   8.498  71.539  1.00  0.00    -0.303 OA 
HETATM   22  H   UNL     3     -12.506   7.555  71.647  1.00  0.00     0.000 HD 
BRANCH  20  23
HETATM   23  C   UNL     3     -10.365   7.960  70.342  1.00  0.00    -0.212 C  
HETATM   24  O   UNL     3      -7.651   8.131  72.489  1.00  0.00    -0.106 OA 
HETATM   25  C   UNL     3      -9.330   6.552  71.846  1.00  0.00    -0.148 C  
HETATM   26  C   UNL     3     -10.231   6.564  70.856  1.00  0.00    -0.190 C  
HETATM   27  O   UNL     3      -8.882   5.447  72.534  1.00  0.00    -0.130 OA 
HETATM   28  O   UNL     3      -9.209   8.635  70.867  1.00  0.00    -0.159 OA 
HETATM   29  C   UNL     3      -8.660   7.854  71.861  1.00  0.00    -0.125 C  
HETATM   30  O   UNL     3     -10.856   5.700  70.199  1.00  0.00    -0.316 OA 
HETATM   31  H   UNL     3      -9.317   4.602  72.523  1.00  0.00     0.000 HD 
ENDBRANCH  20  23
ENDBRANCH   7  20
TORSDOF 4
ENDMDL
MODEL      388
REMARK 921   NORMALIZED FREE ENERGY PREDICTED BY IDOCK:   -2.80 KCAL/MOL
REMARK 922        TOTAL FREE ENERGY PREDICTED BY IDOCK:   -5.38 KCAL/MOL
REMARK 923 INTER-LIGAND FREE ENERGY PREDICTED BY IDOCK:   -4.77 KCAL/MOL
REMARK 924 INTRA-LIGAND FREE ENERGY PREDICTED BY IDOCK:   -0.60 KCAL/MOL
REMARK 927      BINDING AFFINITY PREDICTED BY RF-SCORE:    0.00 PKD
ROOT
HETATM    1 CA   UNL     1     -12.112  13.660  68.539  1.00  0.00    -0.267 Ca 
HETATM    2  O   UNL     2      -9.849  20.142  69.895  1.00  0.00    -0.032 OA 
HETATM    3  C   UNL     2     -10.460  18.847  69.930  1.00  0.00     1.217 C  
HETATM    4  H   UNL     2     -10.037  20.567  70.723  1.00  0.00     0.000 HD 
HETATM    5  O   UNL     3      -6.694  13.084  68.489  1.00  0.00    -0.078 OA 
HETATM    6  H   UNL     3      -5.868  13.507  68.287  1.00  0.00     0.000 HD 
HETATM    7  C   UNL     3      -7.255  12.648  67.217  1.00  0.00    -0.103 C  
ENDROOT
BRANCH   3   8
HETATM    8  C   UNL     2     -10.160  18.171  68.613  1.00  0.00    -0.392 C  
HETATM    9  H   UNL     2     -11.001  16.765  67.529  1.00  0.00     0.000 HD 
HETATM   10  O   UNL     2     -11.190  17.190  68.357  1.00  0.00    -0.218 OA 
BRANCH   8  11
HETATM   11  C   UNL     2      -8.790  17.469  68.507  1.00  0.00    -0.282 C  
HETATM   12  C   UNL     2      -7.654  18.119  67.758  1.00  0.00    -0.222 C  
HETATM   13  O   UNL     2      -9.054  16.389  67.604  1.00  0.00    -0.197 OA 
HETATM   14  O   UNL     2      -9.596  16.600  65.367  1.00  0.00    -0.454 OA 
HETATM   15  H   UNL     2      -6.504  19.071  65.440  1.00  0.00     0.000 HD 
HETATM   16  O   UNL     2      -6.632  18.471  68.410  1.00  0.00    -0.215 OA 
HETATM   17  C   UNL     2      -9.021  16.968  66.368  1.00  0.00    -0.275 C  
HETATM   18  C   UNL     2      -7.955  18.004  66.443  1.00  0.00    -0.262 C  
HETATM   19  O   UNL     2      -7.185  18.411  65.392  1.00  0.00    -0.534 OA 
ENDBRANCH   8  11
ENDBRANCH   3   8
BRANCH   7  20
HETATM   20  C   UNL     3      -8.588  11.964  67.542  1.00  0.00    -0.160 C  
HETATM   21  O   UNL     3      -8.371  10.857  68.416  1.00  0.00    -0.122 OA 
HETATM   22  H   UNL     3      -9.197  10.434  68.617  1.00  0.00     0.000 HD 
BRANCH  20  23
HETATM   23  C   UNL     3      -9.637  11.660  66.437  1.00  0.00    -0.217 C  
HETATM   24  O   UNL     3     -11.106  13.994  64.341  1.00  0.00    -0.365 OA 
HETATM   25  C   UNL     3      -9.689  12.074  64.171  1.00  0.00    -0.098 C  
HETATM   26  C   UNL     3      -9.333  11.147  65.069  1.00  0.00    -0.207 C  
HETATM   27  O   UNL     3      -9.625  11.955  62.801  1.00  0.00    -0.510 OA 
HETATM   28  O   UNL     3     -10.520  12.770  66.204  1.00  0.00    -0.259 OA 
HETATM   29  C   UNL     3     -10.455  13.108  64.869  1.00  0.00    -0.351 C  
HETATM   30  O   UNL     3      -8.953   9.954  65.026  1.00  0.00    -0.170 OA 
HETATM   31  H   UNL     3      -9.128  11.284  62.348  1.00  0.00     0.000 HD 
ENDBRANCH  20  23
ENDBRANCH   7  20
TORSDOF 4
ENDMDL
MODEL      389
REMARK 921   NORMALIZED FREE ENERGY PREDICTED BY IDOCK:   -2.78 KCAL/MOL
REMARK 922        TOTAL FREE ENERGY PREDICTED BY IDOCK:   -5.36 KCAL/MOL
REMARK 923 INTER-LIGAND FREE ENERGY PREDICTED BY IDOCK:   -4.53 KCAL/MOL
REMARK 924 INTRA-LIGAND FREE ENERGY PREDICTED BY IDOCK:   -0.82 KCAL/MOL
REMARK 927      BINDING AFFINITY PREDICTED BY RF-SCORE:    0.00 PKD
ROOT
HETATM    1 CA   UNL     1      -9.826   6.118  69.054  1.00  0.00    -0.129 Ca 
HETATM    2  O   UNL     2      -6.418  10.317  64.613  1.00  0.00    -0.146 OA 
HETATM    3  C   UNL     2      -7.172   9.270  65.235  1.00  0.00    -0.090 C  
HETATM    4  H   UNL     2      -6.391  10.132  63.682  1.00  0.00     0.000 HD 
HETATM    5  O   UNL     3     -12.593  10.795  69.449  1.00  0.00    -0.632 OA 
HETATM    6  H   UNL     3     -12.529  11.742  69.415  1.00  0.00     0.000 HD 
HETATM    7  C   UNL     3     -12.099  10.394  70.759  1.00  0.00    -0.364 C  
ENDROOT
BRANCH   3   8
HETATM    8  C   UNL     2      -7.214   9.565  66.716  1.00  0.00    -0.086 C  
HETATM    9  H   UNL     2      -5.930  10.194  68.063  1.00  0.00     0.000 HD 
HETATM   10  O   UNL     2      -5.904  10.010  67.132  1.00  0.00    -0.049 OA 
BRANCH   8  11
HETATM   11  C   UNL     2      -7.636   8.394  67.629  1.00  0.00    -0.098 C  
HETATM   12  C   UNL     2      -8.882   7.599  67.325  1.00  0.00    -0.120 C  
HETATM   13  O   UNL     2      -8.088   9.060  68.813  1.00  0.00    -0.103 OA 
HETATM   14  O   UNL     2      -9.952  10.416  68.974  1.00  0.00    -0.193 OA 
HETATM   15  H   UNL     2     -11.616   7.385  67.047  1.00  0.00     0.000 HD 
HETATM   16  O   UNL     2      -8.754   6.384  67.012  1.00  0.00    -0.114 OA 
HETATM   17  C   UNL     2      -9.352   9.474  68.506  1.00  0.00    -0.137 C  
HETATM   18  C   UNL     2      -9.926   8.396  67.654  1.00  0.00    -0.190 C  
HETATM   19  O   UNL     2     -11.250   8.073  67.590  1.00  0.00     0.185 OA 
ENDBRANCH   8  11
ENDBRANCH   3   8
BRANCH   7  20
HETATM   20  C   UNL     3     -12.202   8.866  70.813  1.00  0.00    -0.049 C  
HETATM   21  O   UNL     3     -13.373   8.478  71.529  1.00  0.00    -0.372 OA 
HETATM   22  H   UNL     3     -13.437   7.531  71.563  1.00  0.00     0.000 HD 
BRANCH  20  23
HETATM   23  C   UNL     3     -10.971   7.979  71.150  1.00  0.00    -0.243 C  
HETATM   24  O   UNL     3      -9.110   8.119  74.068  1.00  0.00    -0.149 OA 
HETATM   25  C   UNL     3     -10.498   6.558  72.902  1.00  0.00    -0.222 C  
HETATM   26  C   UNL     3     -11.025   6.581  71.671  1.00  0.00    -0.249 C  
HETATM   27  O   UNL     3     -10.310   5.447  73.692  1.00  0.00    -0.195 OA 
HETATM   28  O   UNL     3     -10.046   8.642  72.028  1.00  0.00    -0.286 OA 
HETATM   29  C   UNL     3      -9.859   7.853  73.143  1.00  0.00    -0.290 C  
HETATM   30  O   UNL     3     -11.407   5.724  70.841  1.00  0.00    -0.213 OA 
HETATM   31  H   UNL     3     -10.725   4.606  73.535  1.00  0.00     0.000 HD 
ENDBRANCH  20  23
ENDBRANCH   7  20
TORSDOF 4
ENDMDL
MODEL      390
REMARK 921   NORMALIZED FREE ENERGY PREDICTED BY IDOCK:   -2.74 KCAL/MOL
REMARK 922        TOTAL FREE ENERGY PREDICTED BY IDOCK:   -5.31 KCAL/MOL
REMARK 923 INTER-LIGAND FREE ENERGY PREDICTED BY IDOCK:   -7.88 KCAL/MOL
REMARK 924 INTRA-LIGAND FREE ENERGY PREDICTED BY IDOCK:    2.58 KCAL/MOL
REMARK 927      BINDING AFFINITY PREDICTED BY RF-SCORE:    0.00 PKD
ROOT
HETATM    1 CA   UNL     1      -7.084  17.855  64.805  1.00  0.00    -0.045 Ca 
HETATM    2  O   UNL     2      -9.100  11.762  67.595  1.00  0.00    -0.167 OA 
HETATM    3  C   UNL     2      -8.369  12.877  67.071  1.00  0.00    -0.107 C  
HETATM    4  H   UNL     2      -8.464  11.124  67.898  1.00  0.00     0.000 HD 
HETATM    5  O   UNL     3      -9.730  19.405  69.309  1.00  0.00    -0.379 OA 
HETATM    6  H   UNL     3     -10.442  19.200  69.903  1.00  0.00     0.000 HD 
HETATM    7  C   UNL     3     -10.334  20.023  68.137  1.00  0.00    -0.362 C  
ENDROOT
BRANCH   3   8
HETATM    8  C   UNL     2      -9.380  13.892  66.591  1.00  0.00    -0.268 C  
HETATM    9  H   UNL     2      -9.517  15.851  66.591  1.00  0.00     0.000 HD 
HETATM   10  O   UNL     2      -8.881  15.213  66.893  1.00  0.00    -0.222 OA 
BRANCH   8  11
HETATM   11  C   UNL     2     -10.800  13.767  67.183  1.00  0.00    -0.283 C  
HETATM   12  C   UNL     2     -11.745  12.702  66.685  1.00  0.00    -0.398 C  
HETATM   13  O   UNL     2     -11.470  14.916  66.650  1.00  0.00    -0.349 OA 
HETATM   14  O   UNL     2     -11.968  15.277  64.423  1.00  0.00    -0.421 OA 
HETATM   15  H   UNL     2     -13.280  11.553  64.704  1.00  0.00     0.000 HD 
HETATM   16  O   UNL     2     -12.094  11.792  67.485  1.00  0.00    -0.599 OA 
HETATM   17  C   UNL     2     -11.805  14.551  65.377  1.00  0.00    -0.344 C  
HETATM   18  C   UNL     2     -12.155  13.106  65.459  1.00  0.00    -0.442 C  
HETATM   19  O   UNL     2     -13.056  12.474  64.652  1.00  0.00    -0.845 OA 
ENDBRANCH   8  11
ENDBRANCH   3   8
BRANCH   7  20
HETATM   20  C   UNL     3      -9.184  20.354  67.179  1.00  0.00    -0.380 C  
HETATM   21  O   UNL     3      -9.623  20.233  65.827  1.00  0.00    -0.592 OA 
HETATM   22  H   UNL     3      -8.910  20.438  65.233  1.00  0.00     0.000 HD 
BRANCH  20  23
HETATM   23  C   UNL     3      -7.753  19.790  67.399  1.00  0.00    -0.272 C  
HETATM   24  O   UNL     3      -6.755  16.521  66.835  1.00  0.00    -0.190 OA 
HETATM   25  C   UNL     3      -6.264  18.713  66.008  1.00  0.00    -0.201 C  
HETATM   26  C   UNL     3      -6.610  19.929  66.449  1.00  0.00    -0.203 C  
HETATM   27  O   UNL     3      -5.217  18.412  65.167  1.00  0.00    -0.154 OA 
HETATM   28  O   UNL     3      -7.764  18.391  67.728  1.00  0.00    -0.227 OA 
HETATM   29  C   UNL     3      -6.976  17.721  66.817  1.00  0.00    -0.193 C  
HETATM   30  O   UNL     3      -6.134  21.084  66.363  1.00  0.00    -0.239 OA 
HETATM   31  H   UNL     3      -4.755  19.056  64.642  1.00  0.00     0.000 HD 
ENDBRANCH  20  23
ENDBRANCH   7  20
TORSDOF 4
ENDMDL
MODEL      391
REMARK 921   NORMALIZED FREE ENERGY PREDICTED BY IDOCK:   -2.73 KCAL/MOL
REMARK 922        TOTAL FREE ENERGY PREDICTED BY IDOCK:   -5.30 KCAL/MOL
REMARK 923 INTER-LIGAND FREE ENERGY PREDICTED BY IDOCK:   -4.12 KCAL/MOL
REMARK 924 INTRA-LIGAND FREE ENERGY PREDICTED BY IDOCK:   -1.18 KCAL/MOL
REMARK 927      BINDING AFFINITY PREDICTED BY RF-SCORE:    0.00 PKD
ROOT
HETATM    1 CA   UNL     1     -11.503   5.114  71.076  1.00  0.00    -0.133 Ca 
HETATM    2  O   UNL     2      -8.926   3.357  64.812  1.00  0.00    -0.120 OA 
HETATM    3  C   UNL     2      -9.720   3.835  65.904  1.00  0.00    -0.129 C  
HETATM    4  H   UNL     2      -9.390   3.570  64.010  1.00  0.00     0.000 HD 
HETATM    5  O   UNL     3      -6.893   8.007  70.811  1.00  0.00    -0.037 OA 
HETATM    6  H   UNL     3      -6.003   8.024  70.479  1.00  0.00     0.000 HD 
HETATM    7  C   UNL     3      -6.877   7.148  71.987  1.00  0.00    -0.056 C  
ENDROOT
BRANCH   3   8
HETATM    8  C   UNL     2      -8.982   3.496  67.179  1.00  0.00    -0.149 C  
HETATM    9  H   UNL     2      -9.003   2.010  68.463  1.00  0.00     0.000 HD 
HETATM   10  O   UNL     2      -9.466   2.223  67.662  1.00  0.00    -0.168 OA 
BRANCH   8  11
HETATM   11  C   UNL     2      -9.101   4.522  68.325  1.00  0.00    -0.124 C  
HETATM   12  C   UNL     2      -8.096   5.639  68.457  1.00  0.00    -0.103 C  
HETATM   13  O   UNL     2      -8.728   3.758  69.477  1.00  0.00    -0.070 OA 
HETATM   14  O   UNL     2      -6.629   2.890  69.901  1.00  0.00    -0.032 OA 
HETATM   15  H   UNL     2      -5.536   6.560  68.902  1.00  0.00     0.000 HD 
HETATM   16  O   UNL     2      -8.496   6.825  68.299  1.00  0.00    -0.124 OA 
HETATM   17  C   UNL     2      -7.363   3.734  69.438  1.00  0.00    -0.052 C  
HETATM   18  C   UNL     2      -6.958   5.068  68.919  1.00  0.00    -0.052 C  
HETATM   19  O   UNL     2      -5.794   5.709  69.233  1.00  0.00    -0.017 OA 
ENDBRANCH   8  11
ENDBRANCH   3   8
BRANCH   7  20
HETATM   20  C   UNL     3      -8.313   7.119  72.523  1.00  0.00    -0.108 C  
HETATM   21  O   UNL     3      -8.963   5.917  72.117  1.00  0.00    -0.142 OA 
HETATM   22  H   UNL     3      -9.853   5.899  72.450  1.00  0.00     0.000 HD 
BRANCH  20  23
HETATM   23  C   UNL     3      -9.240   8.363  72.435  1.00  0.00    -0.275 C  
HETATM   24  O   UNL     3      -9.807  10.270  69.599  1.00  0.00    -0.230 OA 
HETATM   25  C   UNL     3     -11.046   8.877  71.099  1.00  0.00    -0.285 C  
HETATM   26  C   UNL     3     -10.724   8.330  72.278  1.00  0.00    -0.329 C  
HETATM   27  O   UNL     3     -12.316   9.088  70.613  1.00  0.00    -0.492 OA 
HETATM   28  O   UNL     3      -8.805   9.296  71.432  1.00  0.00    -0.313 OA 
HETATM   29  C   UNL     3      -9.844   9.508  70.551  1.00  0.00    -0.269 C  
HETATM   30  O   UNL     3     -11.352   7.943  73.290  1.00  0.00    -0.312 OA 
HETATM   31  H   UNL     3     -13.097   8.679  70.969  1.00  0.00     0.000 HD 
ENDBRANCH  20  23
ENDBRANCH   7  20
TORSDOF 4
ENDMDL
MODEL      392
REMARK 921   NORMALIZED FREE ENERGY PREDICTED BY IDOCK:   -2.72 KCAL/MOL
REMARK 922        TOTAL FREE ENERGY PREDICTED BY IDOCK:   -5.29 KCAL/MOL
REMARK 923 INTER-LIGAND FREE ENERGY PREDICTED BY IDOCK:   -4.24 KCAL/MOL
REMARK 924 INTRA-LIGAND FREE ENERGY PREDICTED BY IDOCK:   -1.04 KCAL/MOL
REMARK 927      BINDING AFFINITY PREDICTED BY RF-SCORE:    0.00 PKD
ROOT
HETATM    1 CA   UNL     1      -6.330   7.104  68.856  1.00  0.00    -0.024 Ca 
HETATM    2  O   UNL     2     -11.633   4.349  65.214  1.00  0.00    -0.973 OA 
HETATM    3  C   UNL     2     -10.771   4.886  66.224  1.00  0.00    -0.158 C  
HETATM    4  H   UNL     2     -12.470   4.166  65.624  1.00  0.00     0.000 HD 
HETATM    5  O   UNL     3      -7.414  10.978  65.181  1.00  0.00    -0.352 OA 
HETATM    6  H   UNL     3      -7.714  11.149  64.297  1.00  0.00     0.000 HD 
HETATM    7  C   UNL     3      -6.024  10.559  65.070  1.00  0.00    -0.101 C  
ENDROOT
BRANCH   3   8
HETATM    8  C   UNL     2      -9.440   5.177  65.572  1.00  0.00    -0.080 C  
HETATM    9  H   UNL     2      -8.268   4.254  64.293  1.00  0.00     0.000 HD 
HETATM   10  O   UNL     2      -9.106   4.072  64.703  1.00  0.00    -0.128 OA 
BRANCH   8  11
HETATM   11  C   UNL     2      -8.252   5.412  66.529  1.00  0.00    -0.109 C  
HETATM   12  C   UNL     2      -8.474   5.479  68.020  1.00  0.00    -0.098 C  
HETATM   13  O   UNL     2      -7.923   6.786  66.298  1.00  0.00    -0.101 OA 
HETATM   14  O   UNL     2      -9.256   8.601  66.820  1.00  0.00    -0.151 OA 
HETATM   15  H   UNL     2      -9.549   6.669  70.262  1.00  0.00     0.000 HD 
HETATM   16  O   UNL     2      -7.965   4.578  68.741  1.00  0.00    -0.077 OA 
HETATM   17  C   UNL     2      -8.845   7.481  67.028  1.00  0.00    -0.128 C  
HETATM   18  C   UNL     2      -9.066   6.673  68.259  1.00  0.00    -0.123 C  
HETATM   19  O   UNL     2      -9.408   7.184  69.477  1.00  0.00    -0.149 OA 
ENDBRANCH   8  11
ENDBRANCH   3   8
BRANCH   7  20
HETATM   20  C   UNL     3      -5.538  10.282  66.498  1.00  0.00    -0.053 C  
HETATM   21  O   UNL     3      -5.797   8.924  66.849  1.00  0.00    -0.047 OA 
HETATM   22  H   UNL     3      -5.496   8.753  67.733  1.00  0.00     0.000 HD 
BRANCH  20  23
HETATM   23  C   UNL     3      -5.829  11.269  67.662  1.00  0.00    -0.050 C  
HETATM   24  O   UNL     3      -6.710  14.602  67.321  1.00  0.00    -0.280 OA 
HETATM   25  C   UNL     3      -7.651  12.579  68.186  1.00  0.00    -0.127 C  
HETATM   26  C   UNL     3      -7.116  11.373  68.412  1.00  0.00    -0.079 C  
HETATM   27  O   UNL     3      -8.804  13.082  68.745  1.00  0.00    -0.377 OA 
HETATM   28  O   UNL     3      -5.519  12.629  67.314  1.00  0.00    -0.266 OA 
HETATM   29  C   UNL     3      -6.648  13.397  67.501  1.00  0.00    -0.131 C  
HETATM   30  O   UNL     3      -7.359  10.411  69.176  1.00  0.00    -0.082 OA 
HETATM   31  H   UNL     3      -9.455  12.551  69.190  1.00  0.00     0.000 HD 
ENDBRANCH  20  23
ENDBRANCH   7  20
TORSDOF 4
ENDMDL
MODEL      393
REMARK 921   NORMALIZED FREE ENERGY PREDICTED BY IDOCK:   -2.72 KCAL/MOL
REMARK 922        TOTAL FREE ENERGY PREDICTED BY IDOCK:   -5.28 KCAL/MOL
REMARK 923 INTER-LIGAND FREE ENERGY PREDICTED BY IDOCK:   -4.66 KCAL/MOL
REMARK 924 INTRA-LIGAND FREE ENERGY PREDICTED BY IDOCK:   -0.62 KCAL/MOL
REMARK 927      BINDING AFFINITY PREDICTED BY RF-SCORE:    0.00 PKD
ROOT
HETATM    1 CA   UNL     1     -12.662  13.175  68.140  1.00  0.00    -0.230 Ca 
HETATM    2  O   UNL     2      -9.902  19.419  69.678  1.00  0.00    -0.287 OA 
HETATM    3  C   UNL     2     -10.626  18.184  69.669  1.00  0.00     0.873 C  
HETATM    4  H   UNL     2     -10.091  19.853  70.501  1.00  0.00     0.000 HD 
HETATM    5  O   UNL     3      -7.320  12.119  68.342  1.00  0.00    -0.094 OA 
HETATM    6  H   UNL     3      -6.451  12.469  68.185  1.00  0.00     0.000 HD 
HETATM    7  C   UNL     3      -7.855  11.744  67.040  1.00  0.00    -0.161 C  
ENDROOT
BRANCH   3   8
HETATM    8  C   UNL     2     -10.323  17.494  68.359  1.00  0.00    -0.378 C  
HETATM    9  H   UNL     2     -11.144  16.055  67.304  1.00  0.00     0.000 HD 
HETATM   10  O   UNL     2     -11.335  16.489  68.128  1.00  0.00    -0.308 OA 
BRANCH   8  11
HETATM   11  C   UNL     2      -8.940  16.818  68.253  1.00  0.00    -0.228 C  
HETATM   12  C   UNL     2      -7.786  17.536  67.600  1.00  0.00    -0.201 C  
HETATM   13  O   UNL     2      -9.155  15.807  67.261  1.00  0.00    -0.199 OA 
HETATM   14  O   UNL     2      -9.616  16.183  65.028  1.00  0.00    -0.130 OA 
HETATM   15  H   UNL     2      -6.565  18.676  65.406  1.00  0.00     0.000 HD 
HETATM   16  O   UNL     2      -6.795  17.849  68.314  1.00  0.00    -0.199 OA 
HETATM   17  C   UNL     2      -9.085  16.480  66.074  1.00  0.00    -0.255 C  
HETATM   18  C   UNL     2      -8.036  17.518  66.269  1.00  0.00    -0.254 C  
HETATM   19  O   UNL     2      -7.234  18.013  65.282  1.00  0.00    -0.409 OA 
ENDBRANCH   8  11
ENDBRANCH   3   8
BRANCH   7  20
HETATM   20  C   UNL     3      -9.258  11.179  67.293  1.00  0.00    -0.160 C  
HETATM   21  O   UNL     3     -10.212  11.852  66.472  1.00  0.00    -0.199 OA 
HETATM   22  H   UNL     3     -11.081  11.502  66.629  1.00  0.00     0.000 HD 
BRANCH  20  23
HETATM   23  C   UNL     3      -9.782  10.916  68.731  1.00  0.00    -0.189 C  
HETATM   24  O   UNL     3     -12.093  12.858  70.432  1.00  0.00    -0.361 OA 
HETATM   25  C   UNL     3     -11.898  10.624  69.597  1.00  0.00    -0.286 C  
HETATM   26  C   UNL     3     -10.856   9.946  69.100  1.00  0.00    -0.221 C  
HETATM   27  O   UNL     3     -13.058  10.086  70.106  1.00  0.00    -0.566 OA 
HETATM   28  O   UNL     3     -10.164  12.129  69.402  1.00  0.00     0.206 OA 
HETATM   29  C   UNL     3     -11.475  12.010  69.809  1.00  0.00    -0.210 C  
HETATM   30  O   UNL     3     -10.531   8.741  69.006  1.00  0.00    -0.215 OA 
HETATM   31  H   UNL     3     -13.332   9.186  69.969  1.00  0.00     0.000 HD 
ENDBRANCH  20  23
ENDBRANCH   7  20
TORSDOF 4
ENDMDL
MODEL      394
REMARK 921   NORMALIZED FREE ENERGY PREDICTED BY IDOCK:   -2.69 KCAL/MOL
REMARK 922        TOTAL FREE ENERGY PREDICTED BY IDOCK:   -5.24 KCAL/MOL
REMARK 923 INTER-LIGAND FREE ENERGY PREDICTED BY IDOCK:   -4.72 KCAL/MOL
REMARK 924 INTRA-LIGAND FREE ENERGY PREDICTED BY IDOCK:   -0.53 KCAL/MOL
REMARK 927      BINDING AFFINITY PREDICTED BY RF-SCORE:    0.00 PKD
ROOT
HETATM    1 CA   UNL     1      -6.989   8.722  69.847  1.00  0.00    -0.040 Ca 
HETATM    2  O   UNL     2      -6.584  11.302  63.354  1.00  0.00     0.164 OA 
HETATM    3  C   UNL     2      -6.322  10.750  64.650  1.00  0.00     0.218 C  
HETATM    4  H   UNL     2      -5.754  11.355  62.896  1.00  0.00     0.000 HD 
HETATM    5  O   UNL     3      -9.934   5.170  66.949  1.00  0.00    -0.161 OA 
HETATM    6  H   UNL     3     -10.511   5.064  66.202  1.00  0.00     0.000 HD 
HETATM    7  C   UNL     3     -10.744   5.735  68.019  1.00  0.00    -0.209 C  
ENDROOT
BRANCH   3   8
HETATM    8  C   UNL     2      -7.643  10.664  65.378  1.00  0.00    -0.038 C  
HETATM    9  H   UNL     2      -8.237  10.050  67.147  1.00  0.00     0.000 HD 
HETATM   10  O   UNL     2      -7.406  10.104  66.689  1.00  0.00    -0.100 OA 
BRANCH   8  11
HETATM   11  C   UNL     2      -8.745   9.831  64.690  1.00  0.00    -0.194 C  
HETATM   12  C   UNL     2      -9.570  10.426  63.577  1.00  0.00    -0.310 C  
HETATM   13  O   UNL     2      -9.761   9.754  65.696  1.00  0.00    -0.251 OA 
HETATM   14  O   UNL     2     -11.008  11.528  66.494  1.00  0.00    -0.282 OA 
HETATM   15  H   UNL     2     -11.401  12.252  62.623  1.00  0.00     0.000 HD 
HETATM   16  O   UNL     2      -9.458   9.932  62.421  1.00  0.00    -0.278 OA 
HETATM   17  C   UNL     2     -10.408  10.954  65.613  1.00  0.00    -0.242 C  
HETATM   18  C   UNL     2     -10.422  11.298  64.165  1.00  0.00    -0.369 C  
HETATM   19  O   UNL     2     -11.392  12.033  63.546  1.00  0.00    -0.418 OA 
ENDBRANCH   8  11
ENDBRANCH   3   8
BRANCH   7  20
HETATM   20  C   UNL     3      -9.813   5.906  69.225  1.00  0.00    -0.160 C  
HETATM   21  O   UNL     3      -8.881   4.828  69.282  1.00  0.00    -0.089 OA 
HETATM   22  H   UNL     3      -8.304   4.934  70.029  1.00  0.00     0.000 HD 
BRANCH  20  23
HETATM   23  C   UNL     3     -10.359   6.303  70.625  1.00  0.00    -0.203 C  
HETATM   24  O   UNL     3      -8.877   8.539  72.817  1.00  0.00    -0.315 OA 
HETATM   25  C   UNL     3     -10.910   8.330  71.573  1.00  0.00    -0.249 C  
HETATM   26  C   UNL     3     -11.433   7.306  70.886  1.00  0.00    -0.292 C  
HETATM   27  O   UNL     3     -11.590   9.424  72.057  1.00  0.00    -0.342 OA 
HETATM   28  O   UNL     3      -9.308   6.674  71.533  1.00  0.00    -0.154 OA 
HETATM   29  C   UNL     3      -9.566   7.943  72.005  1.00  0.00    -0.186 C  
HETATM   30  O   UNL     3     -12.583   6.946  70.547  1.00  0.00    -0.216 OA 
HETATM   31  H   UNL     3     -12.463   9.675  71.777  1.00  0.00     0.000 HD 
ENDBRANCH  20  23
ENDBRANCH   7  20
TORSDOF 4
ENDMDL
MODEL      395
REMARK 921   NORMALIZED FREE ENERGY PREDICTED BY IDOCK:   -2.68 KCAL/MOL
REMARK 922        TOTAL FREE ENERGY PREDICTED BY IDOCK:   -5.23 KCAL/MOL
REMARK 923 INTER-LIGAND FREE ENERGY PREDICTED BY IDOCK:   -5.75 KCAL/MOL
REMARK 924 INTRA-LIGAND FREE ENERGY PREDICTED BY IDOCK:    0.52 KCAL/MOL
REMARK 927      BINDING AFFINITY PREDICTED BY RF-SCORE:    0.00 PKD
ROOT
HETATM    1 CA   UNL     1      -8.980  12.189  65.197  1.00  0.00    -0.375 Ca 
HETATM    2  O   UNL     2      -6.066   7.783  69.787  1.00  0.00    -0.026 OA 
HETATM    3  C   UNL     2      -6.332   8.733  68.749  1.00  0.00    -0.049 C  
HETATM    4  H   UNL     2      -5.123   7.676  69.838  1.00  0.00     0.000 HD 
HETATM    5  O   UNL     3     -10.380  14.348  70.000  1.00  0.00    -0.394 OA 
HETATM    6  H   UNL     3     -10.601  14.157  70.904  1.00  0.00     0.000 HD 
HETATM    7  C   UNL     3     -11.572  14.061  69.215  1.00  0.00    -0.309 C  
ENDROOT
BRANCH   3   8
HETATM    8  C   UNL     2      -7.832   8.903  68.669  1.00  0.00    -0.102 C  
HETATM    9  H   UNL     2      -9.360   8.471  69.824  1.00  0.00     0.000 HD 
HETATM   10  O   UNL     2      -8.417   8.364  69.875  1.00  0.00    -0.121 OA 
BRANCH   8  11
HETATM   11  C   UNL     2      -8.526   8.241  67.459  1.00  0.00    -0.130 C  
HETATM   12  C   UNL     2      -9.784   7.431  67.650  1.00  0.00    -0.144 C  
HETATM   13  O   UNL     2      -7.631   7.174  67.123  1.00  0.00    -0.099 OA 
HETATM   14  O   UNL     2      -7.190   5.319  68.428  1.00  0.00    -0.064 OA 
HETATM   15  H   UNL     2     -11.140   5.257  68.667  1.00  0.00     0.000 HD 
HETATM   16  O   UNL     2     -10.852   7.858  67.133  1.00  0.00    -0.296 OA 
HETATM   17  C   UNL     2      -7.926   6.191  68.023  1.00  0.00    -0.110 C  
HETATM   18  C   UNL     2      -9.399   6.268  68.225  1.00  0.00    -0.112 C  
HETATM   19  O   UNL     2     -10.201   5.209  68.538  1.00  0.00    -0.164 OA 
ENDBRANCH   8  11
ENDBRANCH   3   8
BRANCH   7  20
HETATM   20  C   UNL     3     -11.215  14.368  67.756  1.00  0.00    -0.300 C  
HETATM   21  O   UNL     3     -10.788  13.178  67.095  1.00  0.00    -0.253 OA 
HETATM   22  H   UNL     3     -10.568  13.368  66.191  1.00  0.00     0.000 HD 
BRANCH  20  23
HETATM   23  C   UNL     3     -10.362  15.608  67.370  1.00  0.00    -0.275 C  
HETATM   24  O   UNL     3     -10.982  17.747  64.716  1.00  0.00    -0.855 OA 
HETATM   25  C   UNL     3     -10.875  17.839  67.105  1.00  0.00    -0.117 C  
HETATM   26  C   UNL     3     -10.446  16.953  68.012  1.00  0.00    -0.347 C  
HETATM   27  O   UNL     3     -11.024  19.195  67.290  1.00  0.00    -0.478 OA 
HETATM   28  O   UNL     3     -10.419  15.891  65.962  1.00  0.00    -0.316 OA 
HETATM   29  C   UNL     3     -10.852  17.188  65.793  1.00  0.00    -0.039 C  
HETATM   30  O   UNL     3      -9.988  17.010  69.177  1.00  0.00    -0.271 OA 
HETATM   31  H   UNL     3     -11.038  19.617  68.141  1.00  0.00     0.000 HD 
ENDBRANCH  20  23
ENDBRANCH   7  20
TORSDOF 4
ENDMDL
MODEL      396
REMARK 921   NORMALIZED FREE ENERGY PREDICTED BY IDOCK:   -2.67 KCAL/MOL
REMARK 922        TOTAL FREE ENERGY PREDICTED BY IDOCK:   -5.22 KCAL/MOL
REMARK 923 INTER-LIGAND FREE ENERGY PREDICTED BY IDOCK:   -4.92 KCAL/MOL
REMARK 924 INTRA-LIGAND FREE ENERGY PREDICTED BY IDOCK:   -0.30 KCAL/MOL
REMARK 927      BINDING AFFINITY PREDICTED BY RF-SCORE:    0.00 PKD
ROOT
HETATM    1 CA   UNL     1      -8.458   6.183  67.810  1.00  0.00    -0.109 Ca 
HETATM    2  O   UNL     2     -10.300   2.004  62.508  1.00  0.00    -0.095 OA 
HETATM    3  C   UNL     2     -10.185   2.698  63.755  1.00  0.00    -0.152 C  
HETATM    4  H   UNL     2     -11.044   1.417  62.578  1.00  0.00     0.000 HD 
HETATM    5  O   UNL     3      -9.863   9.723  63.913  1.00  0.00    -0.465 OA 
HETATM    6  H   UNL     3      -9.885   9.881  62.977  1.00  0.00     0.000 HD 
HETATM    7  C   UNL     3      -8.492   9.968  64.341  1.00  0.00    -0.173 C  
ENDROOT
BRANCH   3   8
HETATM    8  C   UNL     2      -9.002   3.632  63.643  1.00  0.00    -0.098 C  
HETATM    9  H   UNL     2      -7.050   3.427  63.567  1.00  0.00     0.000 HD 
HETATM   10  O   UNL     2      -7.794   2.840  63.637  1.00  0.00    -0.070 OA 
BRANCH   8  11
HETATM   11  C   UNL     2      -8.873   4.698  64.752  1.00  0.00    -0.152 C  
HETATM   12  C   UNL     2      -7.580   4.857  65.512  1.00  0.00    -0.085 C  
HETATM   13  O   UNL     2      -9.679   4.162  65.806  1.00  0.00    -0.176 OA 
HETATM   14  O   UNL     2      -9.227   2.241  67.009  1.00  0.00    -0.129 OA 
HETATM   15  H   UNL     2      -5.646   3.911  67.234  1.00  0.00     0.000 HD 
HETATM   16  O   UNL     2      -6.937   5.933  65.379  1.00  0.00    -0.060 OA 
HETATM   17  C   UNL     2      -8.879   3.229  66.401  1.00  0.00    -0.141 C  
HETATM   18  C   UNL     2      -7.504   3.796  66.350  1.00  0.00    -0.083 C  
HETATM   19  O   UNL     2      -6.523   3.550  67.266  1.00  0.00    -0.036 OA 
ENDBRANCH   8  11
ENDBRANCH   3   8
BRANCH   7  20
HETATM   20  C   UNL     3      -8.457   9.712  65.852  1.00  0.00    -0.128 C  
HETATM   21  O   UNL     3      -8.774   8.349  66.126  1.00  0.00    -0.133 OA 
HETATM   22  H   UNL     3      -8.751   8.190  67.062  1.00  0.00     0.000 HD 
BRANCH  20  23
HETATM   23  C   UNL     3      -9.113  10.696  66.860  1.00  0.00    -0.155 C  
HETATM   24  O   UNL     3     -11.962  12.581  66.287  1.00  0.00    -0.508 OA 
HETATM   25  C   UNL     3     -11.233  10.837  67.754  1.00  0.00    -0.316 C  
HETATM   26  C   UNL     3     -10.022  10.312  67.980  1.00  0.00    -0.153 C  
HETATM   27  O   UNL     3     -12.328  10.762  68.585  1.00  0.00    -0.825 OA 
HETATM   28  O   UNL     3      -9.808  11.768  66.201  1.00  0.00    -0.216 OA 
HETATM   29  C   UNL     3     -11.115  11.775  66.636  1.00  0.00    -0.310 C  
HETATM   30  O   UNL     3      -9.463   9.721  68.932  1.00  0.00    -0.151 OA 
HETATM   31  H   UNL     3     -12.403  10.154  69.311  1.00  0.00     0.000 HD 
ENDBRANCH  20  23
ENDBRANCH   7  20
TORSDOF 4
ENDMDL
MODEL      397
REMARK 921   NORMALIZED FREE ENERGY PREDICTED BY IDOCK:   -2.58 KCAL/MOL
REMARK 922        TOTAL FREE ENERGY PREDICTED BY IDOCK:   -5.11 KCAL/MOL
REMARK 923 INTER-LIGAND FREE ENERGY PREDICTED BY IDOCK:   -5.07 KCAL/MOL
REMARK 924 INTRA-LIGAND FREE ENERGY PREDICTED BY IDOCK:   -0.04 KCAL/MOL
REMARK 927      BINDING AFFINITY PREDICTED BY RF-SCORE:    0.00 PKD
ROOT
HETATM    1 CA   UNL     1     -11.808   7.406  69.359  1.00  0.00    -0.456 Ca 
HETATM    2  O   UNL     2      -7.525   6.131  63.974  1.00  0.00    -0.068 OA 
HETATM    3  C   UNL     2      -8.613   6.176  64.904  1.00  0.00     0.032 C  
HETATM    4  H   UNL     2      -7.796   5.582  63.247  1.00  0.00     0.000 HD 
HETATM    5  O   UNL     3     -11.114  12.347  67.170  1.00  0.00    -0.253 OA 
HETATM    6  H   UNL     3     -10.509  12.917  66.710  1.00  0.00     0.000 HD 
HETATM    7  C   UNL     3     -10.710  12.359  68.569  1.00  0.00    -0.238 C  
ENDROOT
BRANCH   3   8
HETATM    8  C   UNL     2      -8.181   7.049  66.060  1.00  0.00    -0.129 C  
HETATM    9  H   UNL     2      -9.084   8.224  67.350  1.00  0.00     0.000 HD 
HETATM   10  O   UNL     2      -9.356   7.675  66.623  1.00  0.00    -0.171 OA 
BRANCH   8  11
HETATM   11  C   UNL     2      -7.158   8.156  65.728  1.00  0.00    -0.064 C  
HETATM   12  C   UNL     2      -7.124   9.430  66.534  1.00  0.00    -0.085 C  
HETATM   13  O   UNL     2      -7.656   8.691  64.497  1.00  0.00    -0.102 OA 
HETATM   14  O   UNL     2      -9.637   9.850  64.230  1.00  0.00    -0.282 OA 
HETATM   15  H   UNL     2      -8.267  11.785  67.399  1.00  0.00     0.000 HD 
HETATM   16  O   UNL     2      -6.100   9.671  67.229  1.00  0.00    -0.054 OA 
HETATM   17  C   UNL     2      -8.665   9.529  64.877  1.00  0.00    -0.189 C  
HETATM   18  C   UNL     2      -8.209  10.145  66.152  1.00  0.00    -0.125 C  
HETATM   19  O   UNL     2      -8.558  11.392  66.586  1.00  0.00    -0.161 OA 
ENDBRANCH   8  11
ENDBRANCH   3   8
BRANCH   7  20
HETATM   20  C   UNL     3     -11.687  11.440  69.311  1.00  0.00    -0.337 C  
HETATM   21  O   UNL     3     -12.366  12.169  70.332  1.00  0.00    -0.303 OA 
HETATM   22  H   UNL     3     -12.971  11.600  70.792  1.00  0.00     0.000 HD 
BRANCH  20  23
HETATM   23  C   UNL     3     -11.276  10.012  69.766  1.00  0.00    -0.258 C  
HETATM   24  O   UNL     3      -8.067   8.708  69.694  1.00  0.00    -0.106 OA 
HETATM   25  C   UNL     3      -9.750   9.240  71.310  1.00  0.00    -0.229 C  
HETATM   26  C   UNL     3     -11.036   9.585  71.176  1.00  0.00    -0.379 C  
HETATM   27  O   UNL     3      -9.150   8.734  72.441  1.00  0.00    -0.366 OA 
HETATM   28  O   UNL     3     -10.125   9.525  69.055  1.00  0.00    -0.179 OA 
HETATM   29  C   UNL     3      -9.156   9.182  69.973  1.00  0.00    -0.192 C  
HETATM   30  O   UNL     3     -12.066   9.506  71.884  1.00  0.00    -0.371 OA 
HETATM   31  H   UNL     3      -9.536   8.770  73.309  1.00  0.00     0.000 HD 
ENDBRANCH  20  23
ENDBRANCH   7  20
TORSDOF 4
ENDMDL
MODEL      398
REMARK 921   NORMALIZED FREE ENERGY PREDICTED BY IDOCK:   -2.56 KCAL/MOL
REMARK 922        TOTAL FREE ENERGY PREDICTED BY IDOCK:   -5.08 KCAL/MOL
REMARK 923 INTER-LIGAND FREE ENERGY PREDICTED BY IDOCK:   -4.49 KCAL/MOL
REMARK 924 INTRA-LIGAND FREE ENERGY PREDICTED BY IDOCK:   -0.59 KCAL/MOL
REMARK 927      BINDING AFFINITY PREDICTED BY RF-SCORE:    0.00 PKD
ROOT
HETATM    1 CA   UNL     1     -10.255   4.906  69.090  1.00  0.00    -0.149 Ca 
HETATM    2  O   UNL     2      -7.216   7.915  63.551  1.00  0.00    -0.078 OA 
HETATM    3  C   UNL     2      -8.130   7.374  64.511  1.00  0.00    -0.079 C  
HETATM    4  H   UNL     2      -7.734   8.294  62.849  1.00  0.00     0.000 HD 
HETATM    5  O   UNL     3      -7.628   9.136  71.302  1.00  0.00    -0.253 OA 
HETATM    6  H   UNL     3      -6.862   9.694  71.242  1.00  0.00     0.000 HD 
HETATM    7  C   UNL     3      -7.185   7.894  71.920  1.00  0.00    -0.074 C  
ENDROOT
BRANCH   3   8
HETATM    8  C   UNL     2      -7.307   6.772  65.626  1.00  0.00    -0.079 C  
HETATM    9  H   UNL     2      -5.451   6.933  66.250  1.00  0.00     0.000 HD 
HETATM   10  O   UNL     2      -5.969   7.312  65.549  1.00  0.00    -0.036 OA 
BRANCH   8  11
HETATM   11  C   UNL     2      -7.204   5.232  65.638  1.00  0.00    -0.068 C  
HETATM   12  C   UNL     2      -7.872   4.414  64.560  1.00  0.00    -0.085 C  
HETATM   13  O   UNL     2      -8.043   4.865  66.739  1.00  0.00    -0.106 OA 
HETATM   14  O   UNL     2     -10.335   5.138  66.841  1.00  0.00    -0.224 OA 
HETATM   15  H   UNL     2     -10.117   3.507  63.241  1.00  0.00     0.000 HD 
HETATM   16  O   UNL     2      -7.141   3.753  63.773  1.00  0.00    -0.048 OA 
HETATM   17  C   UNL     2      -9.310   4.927  66.233  1.00  0.00    -0.149 C  
HETATM   18  C   UNL     2      -9.199   4.452  64.826  1.00  0.00    -0.157 C  
HETATM   19  O   UNL     2     -10.187   3.810  64.138  1.00  0.00    -0.203 OA 
ENDBRANCH   8  11
ENDBRANCH   3   8
BRANCH   7  20
HETATM   20  C   UNL     3      -8.421   6.993  72.018  1.00  0.00    -0.112 C  
HETATM   21  O   UNL     3      -8.704   6.410  70.747  1.00  0.00    -0.137 OA 
HETATM   22  H   UNL     3      -9.470   5.851  70.808  1.00  0.00     0.000 HD 
BRANCH  20  23
HETATM   23  C   UNL     3      -9.703   7.448  72.769  1.00  0.00    -0.173 C  
HETATM   24  O   UNL     3     -12.073   9.670  71.567  1.00  0.00    -0.351 OA 
HETATM   25  C   UNL     3     -11.942   7.375  72.229  1.00  0.00    -0.239 C  
HETATM   26  C   UNL     3     -10.981   6.680  72.849  1.00  0.00    -0.253 C  
HETATM   27  O   UNL     3     -13.273   7.033  72.139  1.00  0.00    -0.534 OA 
HETATM   28  O   UNL     3     -10.116   8.771  72.388  1.00  0.00    -0.283 OA 
HETATM   29  C   UNL     3     -11.418   8.711  71.939  1.00  0.00    -0.348 C  
HETATM   30  O   UNL     3     -10.934   5.654  73.566  1.00  0.00    -0.276 OA 
HETATM   31  H   UNL     3     -13.613   6.166  72.327  1.00  0.00     0.000 HD 
ENDBRANCH  20  23
ENDBRANCH   7  20
TORSDOF 4
ENDMDL
MODEL      399
REMARK 921   NORMALIZED FREE ENERGY PREDICTED BY IDOCK:   -2.54 KCAL/MOL
REMARK 922        TOTAL FREE ENERGY PREDICTED BY IDOCK:   -5.06 KCAL/MOL
REMARK 923 INTER-LIGAND FREE ENERGY PREDICTED BY IDOCK:   -4.35 KCAL/MOL
REMARK 924 INTRA-LIGAND FREE ENERGY PREDICTED BY IDOCK:   -0.71 KCAL/MOL
REMARK 927      BINDING AFFINITY PREDICTED BY RF-SCORE:    0.00 PKD
ROOT
HETATM    1 CA   UNL     1     -10.281   3.500  71.447  1.00  0.00    -0.164 Ca 
HETATM    2  O   UNL     2      -9.980   4.864  64.590  1.00  0.00    -0.370 OA 
HETATM    3  C   UNL     2     -10.364   4.480  65.916  1.00  0.00    -0.258 C  
HETATM    4  H   UNL     2     -10.733   4.730  64.027  1.00  0.00     0.000 HD 
HETATM    5  O   UNL     3      -9.407   8.876  71.322  1.00  0.00    -0.223 OA 
HETATM    6  H   UNL     3      -8.990   9.586  70.848  1.00  0.00     0.000 HD 
HETATM    7  C   UNL     3      -8.357   8.217  72.085  1.00  0.00    -0.157 C  
ENDROOT
BRANCH   3   8
HETATM    8  C   UNL     2      -9.165   4.693  66.811  1.00  0.00    -0.126 C  
HETATM    9  H   UNL     2      -8.372   6.219  67.761  1.00  0.00     0.000 HD 
HETATM   10  O   UNL     2      -9.126   6.085  67.198  1.00  0.00    -0.114 OA 
BRANCH   8  11
HETATM   11  C   UNL     2      -7.794   4.323  66.207  1.00  0.00    -0.095 C  
HETATM   12  C   UNL     2      -7.296   2.900  66.258  1.00  0.00    -0.067 C  
HETATM   13  O   UNL     2      -6.870   4.909  67.132  1.00  0.00    -0.054 OA 
HETATM   14  O   UNL     2      -6.558   4.256  69.326  1.00  0.00    -0.038 OA 
HETATM   15  H   UNL     2      -6.447   0.674  67.646  1.00  0.00     0.000 HD 
HETATM   16  O   UNL     2      -7.152   2.278  65.171  1.00  0.00    -0.053 OA 
HETATM   17  C   UNL     2      -6.823   4.021  68.169  1.00  0.00    -0.047 C  
HETATM   18  C   UNL     2      -6.932   2.675  67.543  1.00  0.00    -0.048 C  
HETATM   19  O   UNL     2      -6.378   1.533  68.045  1.00  0.00    -0.024 OA 
ENDBRANCH   8  11
ENDBRANCH   3   8
BRANCH   7  20
HETATM   20  C   UNL     3      -9.029   7.071  72.850  1.00  0.00    -0.126 C  
HETATM   21  O   UNL     3      -8.043   6.270  73.499  1.00  0.00    -0.107 OA 
HETATM   22  H   UNL     3      -8.460   5.560  73.972  1.00  0.00     0.000 HD 
BRANCH  20  23
HETATM   23  C   UNL     3     -10.167   6.226  72.214  1.00  0.00    -0.187 C  
HETATM   24  O   UNL     3     -13.362   7.350  71.486  1.00  0.00    -0.370 OA 
HETATM   25  C   UNL     3     -11.452   6.502  70.321  1.00  0.00    -0.411 C  
HETATM   26  C   UNL     3     -10.322   5.933  70.759  1.00  0.00    -0.232 C  
HETATM   27  O   UNL     3     -11.978   6.411  69.052  1.00  0.00    -0.305 OA 
HETATM   28  O   UNL     3     -11.471   6.676  72.619  1.00  0.00    -0.251 OA 
HETATM   29  C   UNL     3     -12.203   6.968  71.488  1.00  0.00    -0.368 C  
HETATM   30  O   UNL     3      -9.477   5.136  70.289  1.00  0.00    -0.152 OA 
HETATM   31  H   UNL     3     -11.491   6.108  68.295  1.00  0.00     0.000 HD 
ENDBRANCH  20  23
ENDBRANCH   7  20
TORSDOF 4
ENDMDL
MODEL      400
REMARK 921   NORMALIZED FREE ENERGY PREDICTED BY IDOCK:   -2.53 KCAL/MOL
REMARK 922        TOTAL FREE ENERGY PREDICTED BY IDOCK:   -5.05 KCAL/MOL
REMARK 923 INTER-LIGAND FREE ENERGY PREDICTED BY IDOCK:   -5.61 KCAL/MOL
REMARK 924 INTRA-LIGAND FREE ENERGY PREDICTED BY IDOCK:    0.56 KCAL/MOL
REMARK 927      BINDING AFFINITY PREDICTED BY RF-SCORE:    0.00 PKD
ROOT
HETATM    1 CA   UNL     1     -11.872   7.243  68.556  1.00  0.00    -0.431 Ca 
HETATM    2  O   UNL     2      -9.453  11.914  63.942  1.00  0.00    -0.494 OA 
HETATM    3  C   UNL     2     -10.142  10.856  64.617  1.00  0.00    -0.328 C  
HETATM    4  H   UNL     2      -9.800  11.961  63.058  1.00  0.00     0.000 HD 
HETATM    5  O   UNL     3     -13.242  12.004  70.825  1.00  0.00     0.123 OA 
HETATM    6  H   UNL     3     -12.992  12.913  70.936  1.00  0.00     0.000 HD 
HETATM    7  C   UNL     3     -12.412  11.234  71.741  1.00  0.00    -0.020 C  
ENDROOT
BRANCH   3   8
HETATM    8  C   UNL     2      -9.589  10.782  66.021  1.00  0.00    -0.201 C  
HETATM    9  H   UNL     2     -10.148  11.434  67.788  1.00  0.00     0.000 HD 
HETATM   10  O   UNL     2     -10.495  11.479  66.905  1.00  0.00    -0.219 OA 
BRANCH   8  11
HETATM   11  C   UNL     2      -8.175  11.366  66.225  1.00  0.00    -0.088 C  
HETATM   12  C   UNL     2      -7.268  10.814  67.296  1.00  0.00    -0.096 C  
HETATM   13  O   UNL     2      -8.439  12.648  66.804  1.00  0.00    -0.154 OA 
HETATM   14  O   UNL     2      -9.358  13.024  68.891  1.00  0.00     0.075 OA 
HETATM   15  H   UNL     2      -6.640  10.343  69.939  1.00  0.00     0.000 HD 
HETATM   16  O   UNL     2      -6.209  10.229  66.939  1.00  0.00    -0.064 OA 
HETATM   17  C   UNL     2      -8.682  12.379  68.121  1.00  0.00    -0.190 C  
HETATM   18  C   UNL     2      -7.760  11.265  68.474  1.00  0.00    -0.131 C  
HETATM   19  O   UNL     2      -7.229  11.053  69.714  1.00  0.00    -0.113 OA 
ENDBRANCH   8  11
ENDBRANCH   3   8
BRANCH   7  20
HETATM   20  C   UNL     3     -12.815   9.765  71.563  1.00  0.00    -0.405 C  
HETATM   21  O   UNL     3     -13.790   9.403  72.538  1.00  0.00    -0.646 OA 
HETATM   22  H   UNL     3     -14.039   8.493  72.428  1.00  0.00     0.000 HD 
BRANCH  20  23
HETATM   23  C   UNL     3     -11.755   8.653  71.330  1.00  0.00    -0.297 C  
HETATM   24  O   UNL     3      -9.170   7.836  73.487  1.00  0.00    -0.247 OA 
HETATM   25  C   UNL     3     -11.124   6.810  72.562  1.00  0.00    -0.264 C  
HETATM   26  C   UNL     3     -11.955   7.196  71.586  1.00  0.00    -0.318 C  
HETATM   27  O   UNL     3     -10.962   5.531  73.043  1.00  0.00    -0.249 OA 
HETATM   28  O   UNL     3     -10.504   8.950  71.974  1.00  0.00    -0.338 OA 
HETATM   29  C   UNL     3     -10.185   7.906  72.814  1.00  0.00    -0.314 C  
HETATM   30  O   UNL     3     -12.724   6.621  70.782  1.00  0.00    -0.198 OA 
HETATM   31  H   UNL     3     -11.571   4.820  72.879  1.00  0.00     0.000 HD 
ENDBRANCH  20  23
ENDBRANCH   7  20
TORSDOF 4
ENDMDL
MODEL      401
REMARK 921   NORMALIZED FREE ENERGY PREDICTED BY IDOCK:   -2.52 KCAL/MOL
REMARK 922        TOTAL FREE ENERGY PREDICTED BY IDOCK:   -5.04 KCAL/MOL
REMARK 923 INTER-LIGAND FREE ENERGY PREDICTED BY IDOCK:   -5.97 KCAL/MOL
REMARK 924 INTRA-LIGAND FREE ENERGY PREDICTED BY IDOCK:    0.93 KCAL/MOL
REMARK 927      BINDING AFFINITY PREDICTED BY RF-SCORE:    0.00 PKD
ROOT
HETATM    1 CA   UNL     1      -7.369  11.878  67.338  1.00  0.00    -0.088 Ca 
HETATM    2  O   UNL     2     -12.739  14.397  63.624  1.00  0.00    -0.890 OA 
HETATM    3  C   UNL     2     -11.454  13.995  64.113  1.00  0.00    -0.209 C  
HETATM    4  H   UNL     2     -12.609  14.773  62.761  1.00  0.00     0.000 HD 
HETATM    5  O   UNL     3     -10.416   7.447  66.462  1.00  0.00    -0.496 OA 
HETATM    6  H   UNL     3     -11.301   7.121  66.351  1.00  0.00     0.000 HD 
HETATM    7  C   UNL     3     -10.227   7.649  67.891  1.00  0.00    -0.198 C  
ENDROOT
BRANCH   3   8
HETATM    8  C   UNL     2     -11.662  13.397  65.485  1.00  0.00    -0.340 C  
HETATM    9  H   UNL     2     -12.872  13.730  66.997  1.00  0.00     0.000 HD 
HETATM   10  O   UNL     2     -12.741  14.106  66.134  1.00  0.00    -0.442 OA 
BRANCH   8  11
HETATM   11  C   UNL     2     -10.439  13.418  66.426  1.00  0.00    -0.286 C  
HETATM   12  C   UNL     2     -10.626  13.502  67.920  1.00  0.00    -0.248 C  
HETATM   13  O   UNL     2      -9.887  14.720  66.203  1.00  0.00    -0.279 OA 
HETATM   14  O   UNL     2     -10.888  16.726  66.765  1.00  0.00    -0.172 OA 
HETATM   15  H   UNL     2     -11.454  14.828  70.192  1.00  0.00     0.000 HD 
HETATM   16  O   UNL     2     -10.265  12.520  68.624  1.00  0.00    -0.220 OA 
HETATM   17  C   UNL     2     -10.669  15.551  66.955  1.00  0.00    -0.317 C  
HETATM   18  C   UNL     2     -11.005  14.776  68.181  1.00  0.00    -0.268 C  
HETATM   19  O   UNL     2     -11.240  15.321  69.409  1.00  0.00    -0.250 OA 
ENDBRANCH   8  11
ENDBRANCH   3   8
BRANCH   7  20
HETATM   20  C   UNL     3      -8.798   8.176  68.071  1.00  0.00    -0.131 C  
HETATM   21  O   UNL     3      -8.816   9.398  68.805  1.00  0.00    -0.129 OA 
HETATM   22  H   UNL     3      -7.931   9.725  68.917  1.00  0.00     0.000 HD 
BRANCH  20  23
HETATM   23  C   UNL     3      -7.785   8.197  66.893  1.00  0.00    -0.096 C  
HETATM   24  O   UNL     3      -8.252   9.776  63.846  1.00  0.00    -0.137 OA 
HETATM   25  C   UNL     3      -6.778   9.910  65.725  1.00  0.00    -0.099 C  
HETATM   26  C   UNL     3      -6.604   9.104  66.780  1.00  0.00    -0.068 C  
HETATM   27  O   UNL     3      -5.885  10.844  65.252  1.00  0.00    -0.312 OA 
HETATM   28  O   UNL     3      -8.435   8.313  65.617  1.00  0.00    -0.142 OA 
HETATM   29  C   UNL     3      -7.928   9.416  64.965  1.00  0.00    -0.118 C  
HETATM   30  O   UNL     3      -5.668   8.850  67.573  1.00  0.00    -0.038 OA 
HETATM   31  H   UNL     3      -5.138  11.164  65.745  1.00  0.00     0.000 HD 
ENDBRANCH  20  23
ENDBRANCH   7  20
TORSDOF 4
ENDMDL
MODEL      402
REMARK 921   NORMALIZED FREE ENERGY PREDICTED BY IDOCK:   -2.52 KCAL/MOL
REMARK 922        TOTAL FREE ENERGY PREDICTED BY IDOCK:   -5.03 KCAL/MOL
REMARK 923 INTER-LIGAND FREE ENERGY PREDICTED BY IDOCK:   -5.34 KCAL/MOL
REMARK 924 INTRA-LIGAND FREE ENERGY PREDICTED BY IDOCK:    0.31 KCAL/MOL
REMARK 927      BINDING AFFINITY PREDICTED BY RF-SCORE:    0.00 PKD
ROOT
HETATM    1 CA   UNL     1      -8.554  12.847  65.458  1.00  0.00    -0.372 Ca 
HETATM    2  O   UNL     2      -5.253   7.293  68.147  1.00  0.00    -0.021 OA 
HETATM    3  C   UNL     2      -5.615   8.576  67.623  1.00  0.00    -0.039 C  
HETATM    4  H   UNL     2      -4.337   7.337  68.396  1.00  0.00     0.000 HD 
HETATM    5  O   UNL     3     -11.213  12.011  70.140  1.00  0.00    -0.481 OA 
HETATM    6  H   UNL     3     -11.506  11.356  70.762  1.00  0.00     0.000 HD 
HETATM    7  C   UNL     3     -12.144  11.963  69.021  1.00  0.00    -0.186 C  
ENDROOT
BRANCH   3   8
HETATM    8  C   UNL     2      -7.071   8.507  67.228  1.00  0.00    -0.076 C  
HETATM    9  H   UNL     2      -8.581   9.763  67.195  1.00  0.00     0.000 HD 
HETATM   10  O   UNL     2      -7.665   9.807  67.443  1.00  0.00    -0.095 OA 
BRANCH   8  11
HETATM   11  C   UNL     2      -7.926   7.459  67.971  1.00  0.00    -0.119 C  
HETATM   12  C   UNL     2      -9.400   7.691  68.190  1.00  0.00    -0.144 C  
HETATM   13  O   UNL     2      -7.484   7.589  69.327  1.00  0.00    -0.086 OA 
HETATM   14  O   UNL     2      -7.803   9.434  70.681  1.00  0.00    -0.149 OA 
HETATM   15  H   UNL     2     -11.498   9.092  69.302  1.00  0.00     0.000 HD 
HETATM   16  O   UNL     2     -10.218   6.919  67.618  1.00  0.00    -0.157 OA 
HETATM   17  C   UNL     2      -8.150   8.686  69.795  1.00  0.00    -0.114 C  
HETATM   18  C   UNL     2      -9.493   8.635  69.156  1.00  0.00    -0.157 C  
HETATM   19  O   UNL     2     -10.641   9.124  69.710  1.00  0.00    -0.218 OA 
ENDBRANCH   8  11
ENDBRANCH   3   8
BRANCH   7  20
HETATM   20  C   UNL     3     -11.670  13.020  68.016  1.00  0.00    -0.355 C  
HETATM   21  O   UNL     3     -11.310  12.399  66.784  1.00  0.00    -0.295 OA 
HETATM   22  H   UNL     3     -11.017  13.054  66.162  1.00  0.00     0.000 HD 
BRANCH  20  23
HETATM   23  C   UNL     3     -10.689  14.152  68.428  1.00  0.00    -0.256 C  
HETATM   24  O   UNL     3      -8.588  15.889  66.289  1.00  0.00    -0.312 OA 
HETATM   25  C   UNL     3     -10.440  16.337  67.736  1.00  0.00    -0.295 C  
HETATM   26  C   UNL     3     -11.057  15.581  68.653  1.00  0.00    -0.297 C  
HETATM   27  O   UNL     3     -10.475  17.710  67.646  1.00  0.00    -0.350 OA 
HETATM   28  O   UNL     3      -9.544  14.221  67.561  1.00  0.00    -0.209 OA 
HETATM   29  C   UNL     3      -9.465  15.495  67.040  1.00  0.00    -0.225 C  
HETATM   30  O   UNL     3     -11.726  15.795  69.690  1.00  0.00    -0.334 OA 
HETATM   31  H   UNL     3     -11.108  18.256  68.098  1.00  0.00     0.000 HD 
ENDBRANCH  20  23
ENDBRANCH   7  20
TORSDOF 4
ENDMDL
MODEL      403
REMARK 921   NORMALIZED FREE ENERGY PREDICTED BY IDOCK:   -2.50 KCAL/MOL
REMARK 922        TOTAL FREE ENERGY PREDICTED BY IDOCK:   -5.01 KCAL/MOL
REMARK 923 INTER-LIGAND FREE ENERGY PREDICTED BY IDOCK:   -4.72 KCAL/MOL
REMARK 924 INTRA-LIGAND FREE ENERGY PREDICTED BY IDOCK:   -0.28 KCAL/MOL
REMARK 927      BINDING AFFINITY PREDICTED BY RF-SCORE:    0.00 PKD
ROOT
HETATM    1 CA   UNL     1      -8.895  14.059  70.041  1.00  0.00    -0.192 Ca 
HETATM    2  O   UNL     2      -5.170  18.517  66.139  1.00  0.00    -0.134 OA 
HETATM    3  C   UNL     2      -5.623  17.537  67.081  1.00  0.00    -0.136 C  
HETATM    4  H   UNL     2      -4.226  18.582  66.229  1.00  0.00     0.000 HD 
HETATM    5  O   UNL     3      -9.669  12.179  64.986  1.00  0.00    -0.396 OA 
HETATM    6  H   UNL     3      -9.749  12.418  64.070  1.00  0.00     0.000 HD 
HETATM    7  C   UNL     3     -10.950  12.487  65.606  1.00  0.00    -0.288 C  
ENDROOT
BRANCH   3   8
HETATM    8  C   UNL     2      -7.123  17.435  66.937  1.00  0.00    -0.194 C  
HETATM    9  H   UNL     2      -8.365  16.837  65.537  1.00  0.00     0.000 HD 
HETATM   10  O   UNL     2      -7.421  16.901  65.627  1.00  0.00     0.023 OA 
BRANCH   8  11
HETATM   11  C   UNL     2      -7.913  18.749  67.112  1.00  0.00    -0.245 C  
HETATM   12  C   UNL     2      -8.734  18.987  68.354  1.00  0.00    -0.346 C  
HETATM   13  O   UNL     2      -8.982  18.607  66.170  1.00  0.00    -0.457 OA 
HETATM   14  O   UNL     2     -10.696  17.062  66.294  1.00  0.00    -0.223 OA 
HETATM   15  H   UNL     2     -10.840  18.376  70.025  1.00  0.00     0.000 HD 
HETATM   16  O   UNL     2      -8.386  19.917  69.132  1.00  0.00    -0.123 OA 
HETATM   17  C   UNL     2      -9.886  17.803  66.804  1.00  0.00    -0.320 C  
HETATM   18  C   UNL     2      -9.829  18.199  68.238  1.00  0.00    -0.351 C  
HETATM   19  O   UNL     2     -10.876  18.123  69.111  1.00  0.00     0.321 OA 
ENDBRANCH   8  11
ENDBRANCH   3   8
BRANCH   7  20
HETATM   20  C   UNL     3     -10.821  12.101  67.084  1.00  0.00    -0.244 C  
HETATM   21  O   UNL     3     -10.643  13.269  67.882  1.00  0.00    -0.229 OA 
HETATM   22  H   UNL     3     -10.564  13.030  68.798  1.00  0.00     0.000 HD 
BRANCH  20  23
HETATM   23  C   UNL     3      -9.923  10.918  67.541  1.00  0.00    -0.174 C  
HETATM   24  O   UNL     3      -9.137  10.121  70.819  1.00  0.00     0.272 OA 
HETATM   25  C   UNL     3     -10.280   9.139  68.961  1.00  0.00    -0.207 C  
HETATM   26  C   UNL     3     -10.359   9.497  67.674  1.00  0.00    -0.244 C  
HETATM   27  O   UNL     3     -10.537   7.891  69.482  1.00  0.00    -0.229 OA 
HETATM   28  O   UNL     3      -9.252  11.193  68.782  1.00  0.00    -0.180 OA 
HETATM   29  C   UNL     3      -9.568  10.197  69.680  1.00  0.00    -0.210 C  
HETATM   30  O   UNL     3     -10.571   8.908  66.589  1.00  0.00    -0.216 OA 
HETATM   31  H   UNL     3     -10.999   7.205  69.015  1.00  0.00     0.000 HD 
ENDBRANCH  20  23
ENDBRANCH   7  20
TORSDOF 4
ENDMDL
MODEL      404
REMARK 921   NORMALIZED FREE ENERGY PREDICTED BY IDOCK:   -2.49 KCAL/MOL
REMARK 922        TOTAL FREE ENERGY PREDICTED BY IDOCK:   -5.00 KCAL/MOL
REMARK 923 INTER-LIGAND FREE ENERGY PREDICTED BY IDOCK:   -4.33 KCAL/MOL
REMARK 924 INTRA-LIGAND FREE ENERGY PREDICTED BY IDOCK:   -0.66 KCAL/MOL
REMARK 927      BINDING AFFINITY PREDICTED BY RF-SCORE:    0.00 PKD
ROOT
HETATM    1 CA   UNL     1      -8.580   7.871  67.066  1.00  0.00    -0.112 Ca 
HETATM    2  O   UNL     2      -7.424   6.835  73.890  1.00  0.00    -0.086 OA 
HETATM    3  C   UNL     2      -7.314   7.025  72.474  1.00  0.00    -0.080 C  
HETATM    4  H   UNL     2      -6.541   6.762  74.235  1.00  0.00     0.000 HD 
HETATM    5  O   UNL     3     -10.572  12.408  69.332  1.00  0.00    -0.438 OA 
HETATM    6  H   UNL     3     -11.002  12.772  70.097  1.00  0.00     0.000 HD 
HETATM    7  C   UNL     3     -11.607  11.742  68.554  1.00  0.00    -0.321 C  
ENDROOT
BRANCH   3   8
HETATM    8  C   UNL     2      -8.717   7.141  71.926  1.00  0.00    -0.120 C  
HETATM    9  H   UNL     2     -10.352   6.055  72.001  1.00  0.00     0.000 HD 
HETATM   10  O   UNL     2      -9.470   5.982  72.347  1.00  0.00    -0.147 OA 
BRANCH   8  11
HETATM   11  C   UNL     2      -8.837   7.263  70.392  1.00  0.00    -0.150 C  
HETATM   12  C   UNL     2      -7.652   6.970  69.507  1.00  0.00    -0.098 C  
HETATM   13  O   UNL     2      -8.915   8.678  70.189  1.00  0.00    -0.143 OA 
HETATM   14  O   UNL     2      -7.223  10.197  70.604  1.00  0.00    -0.317 OA 
HETATM   15  H   UNL     2      -5.106   7.519  68.600  1.00  0.00     0.000 HD 
HETATM   16  O   UNL     2      -7.717   5.981  68.728  1.00  0.00    -0.092 OA 
HETATM   17  C   UNL     2      -7.619   9.102  70.272  1.00  0.00    -0.108 C  
HETATM   18  C   UNL     2      -6.808   8.020  69.650  1.00  0.00    -0.042 C  
HETATM   19  O   UNL     2      -5.624   8.208  68.998  1.00  0.00    -0.033 OA 
ENDBRANCH   8  11
ENDBRANCH   3   8
BRANCH   7  20
HETATM   20  C   UNL     3     -10.913  11.155  67.320  1.00  0.00    -0.296 C  
HETATM   21  O   UNL     3     -10.362   9.876  67.630  1.00  0.00    -0.194 OA 
HETATM   22  H   UNL     3      -9.932   9.512  66.865  1.00  0.00     0.000 HD 
BRANCH  20  23
HETATM   23  C   UNL     3      -9.973  12.014  66.429  1.00  0.00    -0.219 C  
HETATM   24  O   UNL     3      -9.611  15.455  66.593  1.00  0.00    -0.231 OA 
HETATM   25  C   UNL     3      -8.276  13.495  66.917  1.00  0.00     0.067 C  
HETATM   26  C   UNL     3      -8.508  12.205  66.645  1.00  0.00    -0.088 C  
HETATM   27  O   UNL     3      -7.048  14.084  67.115  1.00  0.00    -0.365 OA 
HETATM   28  O   UNL     3     -10.473  13.347  66.237  1.00  0.00    -0.280 OA 
HETATM   29  C   UNL     3      -9.508  14.240  66.651  1.00  0.00    -0.286 C  
HETATM   30  O   UNL     3      -7.804  11.197  66.404  1.00  0.00    -0.156 OA 
HETATM   31  H   UNL     3      -6.248  13.600  67.288  1.00  0.00     0.000 HD 
ENDBRANCH  20  23
ENDBRANCH   7  20
TORSDOF 4
ENDMDL
MODEL      405
REMARK 921   NORMALIZED FREE ENERGY PREDICTED BY IDOCK:   -2.48 KCAL/MOL
REMARK 922        TOTAL FREE ENERGY PREDICTED BY IDOCK:   -4.98 KCAL/MOL
REMARK 923 INTER-LIGAND FREE ENERGY PREDICTED BY IDOCK:   -4.41 KCAL/MOL
REMARK 924 INTRA-LIGAND FREE ENERGY PREDICTED BY IDOCK:   -0.57 KCAL/MOL
REMARK 927      BINDING AFFINITY PREDICTED BY RF-SCORE:    0.00 PKD
ROOT
HETATM    1 CA   UNL     1     -11.381   9.337  69.417  1.00  0.00    -0.233 Ca 
HETATM    2  O   UNL     2     -10.562   3.855  65.145  1.00  0.00    -0.468 OA 
HETATM    3  C   UNL     2     -11.054   4.972  65.895  1.00  0.00     0.201 C  
HETATM    4  H   UNL     2     -11.268   3.558  64.583  1.00  0.00     0.000 HD 
HETATM    5  O   UNL     3      -7.516  11.050  65.979  1.00  0.00    -0.276 OA 
HETATM    6  H   UNL     3      -6.778  10.786  65.444  1.00  0.00     0.000 HD 
HETATM    7  C   UNL     3      -7.030  11.116  67.350  1.00  0.00    -0.093 C  
ENDROOT
BRANCH   3   8
HETATM    8  C   UNL     2      -9.930   5.444  66.788  1.00  0.00    -0.192 C  
HETATM    9  H   UNL     2      -9.801   6.383  68.508  1.00  0.00     0.000 HD 
HETATM   10  O   UNL     2     -10.507   6.085  67.947  1.00  0.00    -0.183 OA 
BRANCH   8  11
HETATM   11  C   UNL     2      -8.922   6.423  66.149  1.00  0.00    -0.150 C  
HETATM   12  C   UNL     2      -7.791   5.905  65.295  1.00  0.00    -0.105 C  
HETATM   13  O   UNL     2      -8.157   6.871  67.273  1.00  0.00    -0.115 OA 
HETATM   14  O   UNL     2      -6.736   5.569  68.546  1.00  0.00    -0.053 OA 
HETATM   15  H   UNL     2      -5.463   4.466  64.964  1.00  0.00     0.000 HD 
HETATM   16  O   UNL     2      -7.783   6.203  64.070  1.00  0.00    -0.093 OA 
HETATM   17  C   UNL     2      -7.265   5.862  67.498  1.00  0.00    -0.076 C  
HETATM   18  C   UNL     2      -6.900   5.348  66.150  1.00  0.00    -0.058 C  
HETATM   19  O   UNL     2      -5.696   4.794  65.824  1.00  0.00    -0.017 OA 
ENDBRANCH   8  11
ENDBRANCH   3   8
BRANCH   7  20
HETATM   20  C   UNL     3      -8.222  11.543  68.214  1.00  0.00    -0.152 C  
HETATM   21  O   UNL     3      -8.296  10.730  69.384  1.00  0.00    -0.331 OA 
HETATM   22  H   UNL     3      -9.034  10.995  69.919  1.00  0.00     0.000 HD 
BRANCH  20  23
HETATM   23  C   UNL     3      -9.617  11.828  67.592  1.00  0.00    -0.183 C  
HETATM   24  O   UNL     3     -10.220  13.697  64.738  1.00  0.00    -0.392 OA 
HETATM   25  C   UNL     3     -10.507  11.447  65.500  1.00  0.00    -0.268 C  
HETATM   26  C   UNL     3     -10.384  10.896  66.714  1.00  0.00    -0.241 C  
HETATM   27  O   UNL     3     -11.199  10.928  64.430  1.00  0.00    -0.167 OA 
HETATM   28  O   UNL     3      -9.653  13.079  66.885  1.00  0.00    -0.228 OA 
HETATM   29  C   UNL     3     -10.060  12.839  65.591  1.00  0.00    -0.270 C  
HETATM   30  O   UNL     3     -10.856   9.893  67.297  1.00  0.00    -0.267 OA 
HETATM   31  H   UNL     3     -11.489  10.025  64.372  1.00  0.00     0.000 HD 
ENDBRANCH  20  23
ENDBRANCH   7  20
TORSDOF 4
ENDMDL
MODEL      406
REMARK 921   NORMALIZED FREE ENERGY PREDICTED BY IDOCK:   -2.43 KCAL/MOL
REMARK 922        TOTAL FREE ENERGY PREDICTED BY IDOCK:   -4.93 KCAL/MOL
REMARK 923 INTER-LIGAND FREE ENERGY PREDICTED BY IDOCK:   -6.94 KCAL/MOL
REMARK 924 INTRA-LIGAND FREE ENERGY PREDICTED BY IDOCK:    2.02 KCAL/MOL
REMARK 927      BINDING AFFINITY PREDICTED BY RF-SCORE:    0.00 PKD
ROOT
HETATM    1 CA   UNL     1     -11.693  10.388  70.218  1.00  0.00    -0.208 Ca 
HETATM    2  O   UNL     2      -8.726   4.095  69.463  1.00  0.00    -0.077 OA 
HETATM    3  C   UNL     2      -9.611   5.195  69.709  1.00  0.00    -0.175 C  
HETATM    4  H   UNL     2      -9.223   3.297  69.599  1.00  0.00     0.000 HD 
HETATM    5  O   UNL     3     -10.367  10.303  64.934  1.00  0.00    -0.283 OA 
HETATM    6  H   UNL     3      -9.743   9.985  64.293  1.00  0.00     0.000 HD 
HETATM    7  C   UNL     3      -9.741  11.444  65.588  1.00  0.00    -0.231 C  
ENDROOT
BRANCH   3   8
HETATM    8  C   UNL     2      -8.821   6.465  69.493  1.00  0.00    -0.136 C  
HETATM    9  H   UNL     2      -8.381   8.048  70.569  1.00  0.00     0.000 HD 
HETATM   10  O   UNL     2      -8.877   7.249  70.705  1.00  0.00    -0.146 OA 
BRANCH   8  11
HETATM   11  C   UNL     2      -9.280   7.357  68.320  1.00  0.00    -0.137 C  
HETATM   12  C   UNL     2      -8.966   8.832  68.314  1.00  0.00    -0.141 C  
HETATM   13  O   UNL     2     -10.696   7.438  68.516  1.00  0.00    -0.182 OA 
HETATM   14  O   UNL     2     -11.758   8.480  70.283  1.00  0.00    -0.094 OA 
HETATM   15  H   UNL     2      -9.216  11.370  69.362  1.00  0.00     0.000 HD 
HETATM   16  O   UNL     2      -8.191   9.275  67.424  1.00  0.00    -0.116 OA 
HETATM   17  C   UNL     2     -10.848   8.381  69.491  1.00  0.00    -0.117 C  
HETATM   18  C   UNL     2      -9.790   9.395  69.230  1.00  0.00    -0.174 C  
HETATM   19  O   UNL     2      -9.890  10.723  69.529  1.00  0.00    -0.152 OA 
ENDBRANCH   8  11
ENDBRANCH   3   8
BRANCH   7  20
HETATM   20  C   UNL     3     -10.749  11.959  66.622  1.00  0.00    -0.256 C  
HETATM   21  O   UNL     3     -11.571  10.887  67.081  1.00  0.00    -0.431 OA 
HETATM   22  H   UNL     3     -12.195  11.206  67.722  1.00  0.00     0.000 HD 
BRANCH  20  23
HETATM   23  C   UNL     3     -11.547  13.273  66.397  1.00  0.00    -0.347 C  
HETATM   24  O   UNL     3     -10.214  16.304  65.380  1.00  0.00    -0.518 OA 
HETATM   25  C   UNL     3     -11.775  14.675  64.582  1.00  0.00    -0.426 C  
HETATM   26  C   UNL     3     -12.334  13.613  65.174  1.00  0.00    -0.452 C  
HETATM   27  O   UNL     3     -12.239  15.330  63.464  1.00  0.00    -0.804 OA 
HETATM   28  O   UNL     3     -10.746  14.443  66.631  1.00  0.00    -0.286 OA 
HETATM   29  C   UNL     3     -10.773  15.226  65.497  1.00  0.00    -0.371 C  
HETATM   30  O   UNL     3     -13.390  12.955  65.028  1.00  0.00    -0.682 OA 
HETATM   31  H   UNL     3     -12.890  14.972  62.871  1.00  0.00     0.000 HD 
ENDBRANCH  20  23
ENDBRANCH   7  20
TORSDOF 4
ENDMDL
MODEL      407
REMARK 921   NORMALIZED FREE ENERGY PREDICTED BY IDOCK:   -2.41 KCAL/MOL
REMARK 922        TOTAL FREE ENERGY PREDICTED BY IDOCK:   -4.90 KCAL/MOL
REMARK 923 INTER-LIGAND FREE ENERGY PREDICTED BY IDOCK:   -5.40 KCAL/MOL
REMARK 924 INTRA-LIGAND FREE ENERGY PREDICTED BY IDOCK:    0.50 KCAL/MOL
REMARK 927      BINDING AFFINITY PREDICTED BY RF-SCORE:    0.00 PKD
ROOT
HETATM    1 CA   UNL     1      -8.020  12.381  65.692  1.00  0.00    -0.279 Ca 
HETATM    2  O   UNL     2      -7.400   8.144  71.227  1.00  0.00    -0.062 OA 
HETATM    3  C   UNL     2      -7.189   9.067  70.153  1.00  0.00    -0.062 C  
HETATM    4  H   UNL     2      -6.579   8.067  71.700  1.00  0.00     0.000 HD 
HETATM    5  O   UNL     3     -11.478  14.574  69.286  1.00  0.00    -0.256 OA 
HETATM    6  H   UNL     3     -12.079  14.392  69.999  1.00  0.00     0.000 HD 
HETATM    7  C   UNL     3     -12.182  14.237  68.057  1.00  0.00    -0.133 C  
ENDROOT
BRANCH   3   8
HETATM    8  C   UNL     2      -8.494   9.190  69.401  1.00  0.00    -0.130 C  
HETATM    9  H   UNL     2     -10.332   8.547  69.660  1.00  0.00     0.000 HD 
HETATM   10  O   UNL     2      -9.511   8.470  70.133  1.00  0.00    -0.161 OA 
BRANCH   8  11
HETATM   11  C   UNL     2      -8.490   8.672  67.947  1.00  0.00    -0.129 C  
HETATM   12  C   UNL     2      -9.557   7.717  67.473  1.00  0.00    -0.148 C  
HETATM   13  O   UNL     2      -7.374   7.775  67.931  1.00  0.00    -0.097 OA 
HETATM   14  O   UNL     2      -7.225   5.782  69.091  1.00  0.00    -0.070 OA 
HETATM   15  H   UNL     2     -10.834   5.275  67.548  1.00  0.00     0.000 HD 
HETATM   16  O   UNL     2     -10.361   8.112  66.586  1.00  0.00    -0.304 OA 
HETATM   17  C   UNL     2      -7.854   6.629  68.497  1.00  0.00    -0.110 C  
HETATM   18  C   UNL     2      -9.264   6.519  68.033  1.00  0.00    -0.111 C  
HETATM   19  O   UNL     2      -9.935   5.346  67.844  1.00  0.00    -0.143 OA 
ENDBRANCH   8  11
ENDBRANCH   3   8
BRANCH   7  20
HETATM   20  C   UNL     3     -11.212  14.531  66.906  1.00  0.00    -0.336 C  
HETATM   21  O   UNL     3     -10.635  15.826  67.070  1.00  0.00    -0.309 OA 
HETATM   22  H   UNL     3     -10.034  16.008  66.358  1.00  0.00     0.000 HD 
BRANCH  20  23
HETATM   23  C   UNL     3     -11.583  14.222  65.429  1.00  0.00    -0.346 C  
HETATM   24  O   UNL     3      -9.689  12.348  63.215  1.00  0.00    -0.301 OA 
HETATM   25  C   UNL     3     -11.840  12.253  64.260  1.00  0.00    -0.403 C  
HETATM   26  C   UNL     3     -12.523  13.155  64.976  1.00  0.00    -0.460 C  
HETATM   27  O   UNL     3     -12.360  11.152  63.617  1.00  0.00    -0.156 OA 
HETATM   28  O   UNL     3     -10.421  14.035  64.604  1.00  0.00    -0.434 OA 
HETATM   29  C   UNL     3     -10.506  12.799  64.001  1.00  0.00    -0.406 C  
HETATM   30  O   UNL     3     -13.730  13.376  65.225  1.00  0.00    -0.054 OA 
HETATM   31  H   UNL     3     -13.225  10.798  63.784  1.00  0.00     0.000 HD 
ENDBRANCH  20  23
ENDBRANCH   7  20
TORSDOF 4
ENDMDL
MODEL      408
REMARK 921   NORMALIZED FREE ENERGY PREDICTED BY IDOCK:   -2.35 KCAL/MOL
REMARK 922        TOTAL FREE ENERGY PREDICTED BY IDOCK:   -4.83 KCAL/MOL
REMARK 923 INTER-LIGAND FREE ENERGY PREDICTED BY IDOCK:   -5.53 KCAL/MOL
REMARK 924 INTRA-LIGAND FREE ENERGY PREDICTED BY IDOCK:    0.71 KCAL/MOL
REMARK 927      BINDING AFFINITY PREDICTED BY RF-SCORE:    0.00 PKD
ROOT
HETATM    1 CA   UNL     1     -11.464  14.184  68.311  1.00  0.00    -0.228 Ca 
HETATM    2  O   UNL     2      -9.701  20.384  65.586  1.00  0.00    -0.603 OA 
HETATM    3  C   UNL     2     -10.203  19.313  66.393  1.00  0.00    -0.449 C  
HETATM    4  H   UNL     2      -9.901  21.196  66.038  1.00  0.00     0.000 HD 
HETATM    5  O   UNL     3      -6.020  13.962  68.222  1.00  0.00    -0.095 OA 
HETATM    6  H   UNL     3      -5.238  14.237  67.760  1.00  0.00     0.000 HD 
HETATM    7  C   UNL     3      -6.578  12.850  67.466  1.00  0.00    -0.157 C  
ENDROOT
BRANCH   3   8
HETATM    8  C   UNL     2      -9.885  18.022  65.675  1.00  0.00     0.339 C  
HETATM    9  H   UNL     2     -10.928  16.539  64.918  1.00  0.00     0.000 HD 
HETATM   10  O   UNL     2     -11.128  17.351  65.370  1.00  0.00    -0.215 OA 
BRANCH   8  11
HETATM   11  C   UNL     2      -8.976  17.031  66.432  1.00  0.00    -0.275 C  
HETATM   12  C   UNL     2      -9.565  16.060  67.424  1.00  0.00    -0.225 C  
HETATM   13  O   UNL     2      -8.275  17.878  67.349  1.00  0.00    -0.216 OA 
HETATM   14  O   UNL     2      -9.218  19.027  69.119  1.00  0.00    -0.245 OA 
HETATM   15  H   UNL     2     -10.879  15.496  69.782  1.00  0.00     0.000 HD 
HETATM   16  O   UNL     2      -9.501  14.827  67.165  1.00  0.00    -0.214 OA 
HETATM   17  C   UNL     2      -9.162  18.078  68.369  1.00  0.00    -0.294 C  
HETATM   18  C   UNL     2      -9.892  16.790  68.517  1.00  0.00    -0.257 C  
HETATM   19  O   UNL     2     -10.413  16.318  69.687  1.00  0.00    -0.282 OA 
ENDBRANCH   8  11
ENDBRANCH   3   8
BRANCH   7  20
HETATM   20  C   UNL     3      -7.841  12.407  68.212  1.00  0.00    -0.150 C  
HETATM   21  O   UNL     3      -7.488  11.775  69.442  1.00  0.00    -0.338 OA 
HETATM   22  H   UNL     3      -8.270  11.501  69.904  1.00  0.00     0.000 HD 
BRANCH  20  23
HETATM   23  C   UNL     3      -9.009  11.687  67.482  1.00  0.00    -0.165 C  
HETATM   24  O   UNL     3      -8.871   8.530  66.062  1.00  0.00    -0.153 OA 
HETATM   25  C   UNL     3     -10.049   9.658  67.814  1.00  0.00    -0.187 C  
HETATM   26  C   UNL     3     -10.127  10.953  68.145  1.00  0.00    -0.173 C  
HETATM   27  O   UNL     3     -10.933   8.665  68.173  1.00  0.00    -0.462 OA 
HETATM   28  O   UNL     3      -8.541  10.773  66.476  1.00  0.00    -0.141 OA 
HETATM   29  C   UNL     3      -9.057   9.524  66.745  1.00  0.00    -0.146 C  
HETATM   30  O   UNL     3     -10.956  11.680  68.738  1.00  0.00    -0.202 OA 
HETATM   31  H   UNL     3     -11.577   8.753  68.866  1.00  0.00     0.000 HD 
ENDBRANCH  20  23
ENDBRANCH   7  20
TORSDOF 4
ENDMDL
MODEL      409
REMARK 921   NORMALIZED FREE ENERGY PREDICTED BY IDOCK:   -2.32 KCAL/MOL
REMARK 922        TOTAL FREE ENERGY PREDICTED BY IDOCK:   -4.79 KCAL/MOL
REMARK 923 INTER-LIGAND FREE ENERGY PREDICTED BY IDOCK:   -4.10 KCAL/MOL
REMARK 924 INTRA-LIGAND FREE ENERGY PREDICTED BY IDOCK:   -0.69 KCAL/MOL
REMARK 927      BINDING AFFINITY PREDICTED BY RF-SCORE:    0.00 PKD
ROOT
HETATM    1 CA   UNL     1     -10.403   5.214  70.561  1.00  0.00    -0.172 Ca 
HETATM    2  O   UNL     2      -8.277   4.988  63.898  1.00  0.00    -0.112 OA 
HETATM    3  C   UNL     2      -9.025   4.985  65.119  1.00  0.00    -0.143 C  
HETATM    4  H   UNL     2      -8.898   4.898  63.185  1.00  0.00     0.000 HD 
HETATM    5  O   UNL     3      -8.181  10.136  69.834  1.00  0.00    -0.256 OA 
HETATM    6  H   UNL     3      -7.504  10.625  69.382  1.00  0.00     0.000 HD 
HETATM    7  C   UNL     3      -7.526   9.450  70.939  1.00  0.00    -0.072 C  
ENDROOT
BRANCH   3   8
HETATM    8  C   UNL     2      -8.037   5.129  66.253  1.00  0.00    -0.108 C  
HETATM    9  H   UNL     2      -6.111   5.484  66.403  1.00  0.00     0.000 HD 
HETATM   10  O   UNL     2      -6.732   5.394  65.690  1.00  0.00    -0.049 OA 
BRANCH   8  11
HETATM   11  C   UNL     2      -7.914   3.920  67.204  1.00  0.00    -0.092 C  
HETATM   12  C   UNL     2      -8.571   3.946  68.561  1.00  0.00    -0.094 C  
HETATM   13  O   UNL     2      -6.547   3.982  67.624  1.00  0.00    -0.041 OA 
HETATM   14  O   UNL     2      -5.608   5.643  68.927  1.00  0.00    -0.010 OA 
HETATM   15  H   UNL     2      -8.842   4.969  71.107  1.00  0.00     0.000 HD 
HETATM   16  O   UNL     2      -9.508   3.133  68.787  1.00  0.00    -0.173 OA 
HETATM   17  C   UNL     2      -6.536   4.940  68.597  1.00  0.00    -0.049 C  
HETATM   18  C   UNL     2      -7.826   4.780  69.324  1.00  0.00    -0.070 C  
HETATM   19  O   UNL     2      -8.020   5.071  70.643  1.00  0.00    -0.079 OA 
ENDBRANCH   8  11
ENDBRANCH   3   8
BRANCH   7  20
HETATM   20  C   UNL     3      -8.618   8.660  71.669  1.00  0.00    -0.189 C  
HETATM   21  O   UNL     3      -8.128   7.373  72.039  1.00  0.00    -0.092 OA 
HETATM   22  H   UNL     3      -8.805   6.884  72.492  1.00  0.00     0.000 HD 
BRANCH  20  23
HETATM   23  C   UNL     3     -10.081   8.618  71.145  1.00  0.00    -0.226 C  
HETATM   24  O   UNL     3     -12.153  11.358  70.702  1.00  0.00    -0.361 OA 
HETATM   25  C   UNL     3     -11.139   9.645  69.374  1.00  0.00    -0.139 C  
HETATM   26  C   UNL     3     -10.487   8.526  69.712  1.00  0.00    -0.220 C  
HETATM   27  O   UNL     3     -11.725   9.918  68.159  1.00  0.00    -0.557 OA 
HETATM   28  O   UNL     3     -10.876   9.698  71.663  1.00  0.00    -0.290 OA 
HETATM   29  C   UNL     3     -11.408  10.398  70.601  1.00  0.00    -0.325 C  
HETATM   30  O   UNL     3     -10.269   7.416  69.174  1.00  0.00    -0.185 OA 
HETATM   31  H   UNL     3     -11.551   9.429  67.363  1.00  0.00     0.000 HD 
ENDBRANCH  20  23
ENDBRANCH   7  20
TORSDOF 4
ENDMDL
MODEL      410
REMARK 921   NORMALIZED FREE ENERGY PREDICTED BY IDOCK:   -2.13 KCAL/MOL
REMARK 922        TOTAL FREE ENERGY PREDICTED BY IDOCK:   -4.56 KCAL/MOL
REMARK 923 INTER-LIGAND FREE ENERGY PREDICTED BY IDOCK:   -4.66 KCAL/MOL
REMARK 924 INTRA-LIGAND FREE ENERGY PREDICTED BY IDOCK:    0.10 KCAL/MOL
REMARK 927      BINDING AFFINITY PREDICTED BY RF-SCORE:    0.00 PKD
ROOT
HETATM    1 CA   UNL     1     -11.197  10.326  70.078  1.00  0.00    -0.198 Ca 
HETATM    2  O   UNL     2      -7.030   5.288  72.571  1.00  0.00    -0.076 OA 
HETATM    3  C   UNL     2      -8.122   6.067  72.070  1.00  0.00    -0.107 C  
HETATM    4  H   UNL     2      -7.348   4.402  72.697  1.00  0.00     0.000 HD 
HETATM    5  O   UNL     3      -7.390   9.881  66.205  1.00  0.00    -0.097 OA 
HETATM    6  H   UNL     3      -6.476   9.688  66.031  1.00  0.00     0.000 HD 
HETATM    7  C   UNL     3      -7.434  11.247  66.708  1.00  0.00    -0.146 C  
ENDROOT
BRANCH   3   8
HETATM    8  C   UNL     2      -7.614   7.476  71.869  1.00  0.00    -0.084 C  
HETATM    9  H   UNL     2      -8.130   9.261  72.507  1.00  0.00     0.000 HD 
HETATM   10  O   UNL     2      -8.448   8.375  72.633  1.00  0.00    -0.219 OA 
BRANCH   8  11
HETATM   11  C   UNL     2      -7.573   7.981  70.411  1.00  0.00    -0.081 C  
HETATM   12  C   UNL     2      -8.294   7.227  69.321  1.00  0.00    -0.132 C  
HETATM   13  O   UNL     2      -6.227   7.699  70.014  1.00  0.00    -0.027 OA 
HETATM   14  O   UNL     2      -5.305   5.595  69.762  1.00  0.00    -0.004 OA 
HETATM   15  H   UNL     2      -8.659   4.993  67.749  1.00  0.00     0.000 HD 
HETATM   16  O   UNL     2      -9.264   7.792  68.746  1.00  0.00    -0.140 OA 
HETATM   17  C   UNL     2      -6.236   6.367  69.712  1.00  0.00    -0.034 C  
HETATM   18  C   UNL     2      -7.563   6.112  69.088  1.00  0.00    -0.095 C  
HETATM   19  O   UNL     2      -7.813   5.155  68.147  1.00  0.00    -0.086 OA 
ENDBRANCH   8  11
ENDBRANCH   3   8
BRANCH   7  20
HETATM   20  C   UNL     3      -8.909  11.558  66.990  1.00  0.00    -0.173 C  
HETATM   21  O   UNL     3      -9.660  10.348  67.063  1.00  0.00    -0.161 OA 
HETATM   22  H   UNL     3     -10.573  10.541  67.238  1.00  0.00     0.000 HD 
BRANCH  20  23
HETATM   23  C   UNL     3      -9.662  12.687  66.233  1.00  0.00    -0.259 C  
HETATM   24  O   UNL     3     -12.674  12.343  64.557  1.00  0.00    -0.594 OA 
HETATM   25  C   UNL     3     -11.790  13.551  66.424  1.00  0.00    -0.394 C  
HETATM   26  C   UNL     3     -10.536  13.721  66.862  1.00  0.00    -0.272 C  
HETATM   27  O   UNL     3     -12.877  14.340  66.724  1.00  0.00    -0.407 OA 
HETATM   28  O   UNL     3     -10.451  12.180  65.144  1.00  0.00    -0.263 OA 
HETATM   29  C   UNL     3     -11.756  12.586  65.323  1.00  0.00    -0.386 C  
HETATM   30  O   UNL     3      -9.929  14.586  67.534  1.00  0.00    -0.222 OA 
HETATM   31  H   UNL     3     -12.898  14.966  67.438  1.00  0.00     0.000 HD 
ENDBRANCH  20  23
ENDBRANCH   7  20
TORSDOF 4
ENDMDL
MODEL      411
REMARK 921   NORMALIZED FREE ENERGY PREDICTED BY IDOCK:   -2.11 KCAL/MOL
REMARK 922        TOTAL FREE ENERGY PREDICTED BY IDOCK:   -4.53 KCAL/MOL
REMARK 923 INTER-LIGAND FREE ENERGY PREDICTED BY IDOCK:   -3.18 KCAL/MOL
REMARK 924 INTRA-LIGAND FREE ENERGY PREDICTED BY IDOCK:   -1.34 KCAL/MOL
REMARK 927      BINDING AFFINITY PREDICTED BY RF-SCORE:    0.00 PKD
ROOT
HETATM    1 CA   UNL     1     -10.271   4.156  70.082  1.00  0.00    -0.187 Ca 
HETATM    2  O   UNL     2      -8.017   5.514  63.598  1.00  0.00    -0.097 OA 
HETATM    3  C   UNL     2      -8.759   5.120  64.757  1.00  0.00    -0.133 C  
HETATM    4  H   UNL     2      -8.567   5.352  62.840  1.00  0.00     0.000 HD 
HETATM    5  O   UNL     3      -9.583   9.561  70.149  1.00  0.00    -0.216 OA 
HETATM    6  H   UNL     3      -9.070  10.285  69.809  1.00  0.00     0.000 HD 
HETATM    7  C   UNL     3      -8.781   8.942  71.195  1.00  0.00    -0.222 C  
ENDROOT
BRANCH   3   8
HETATM    8  C   UNL     2      -7.884   5.379  65.961  1.00  0.00    -0.103 C  
HETATM    9  H   UNL     2      -6.592   4.337  67.012  1.00  0.00     0.000 HD 
HETATM   10  O   UNL     2      -7.141   4.175  66.254  1.00  0.00    -0.064 OA 
BRANCH   8  11
HETATM   11  C   UNL     2      -8.615   5.818  67.248  1.00  0.00    -0.109 C  
HETATM   12  C   UNL     2      -9.278   7.171  67.326  1.00  0.00    -0.130 C  
HETATM   13  O   UNL     2      -7.537   6.053  68.162  1.00  0.00    -0.090 OA 
HETATM   14  O   UNL     2      -5.952   7.724  67.982  1.00  0.00    -0.038 OA 
HETATM   15  H   UNL     2      -9.177   9.926  67.337  1.00  0.00     0.000 HD 
HETATM   16  O   UNL     2     -10.533   7.215  67.441  1.00  0.00    -0.222 OA 
HETATM   17  C   UNL     2      -7.071   7.291  67.823  1.00  0.00    -0.089 C  
HETATM   18  C   UNL     2      -8.276   8.075  67.436  1.00  0.00    -0.123 C  
HETATM   19  O   UNL     2      -8.409   9.425  67.583  1.00  0.00    -0.117 OA 
ENDBRANCH   8  11
ENDBRANCH   3   8
BRANCH   7  20
HETATM   20  C   UNL     3      -9.609   7.775  71.743  1.00  0.00    -0.163 C  
HETATM   21  O   UNL     3     -10.168   8.122  73.009  1.00  0.00    -0.309 OA 
HETATM   22  H   UNL     3     -10.681   7.399  73.349  1.00  0.00     0.000 HD 
BRANCH  20  23
HETATM   23  C   UNL     3      -9.083   6.313  71.701  1.00  0.00    -0.145 C  
HETATM   24  O   UNL     3      -5.757   5.361  71.516  1.00  0.00    -0.018 OA 
HETATM   25  C   UNL     3      -7.603   5.143  73.024  1.00  0.00    -0.097 C  
HETATM   26  C   UNL     3      -8.905   5.419  72.883  1.00  0.00    -0.121 C  
HETATM   27  O   UNL     3      -7.038   4.304  73.958  1.00  0.00    -0.063 OA 
HETATM   28  O   UNL     3      -7.837   6.203  70.991  1.00  0.00    -0.109 OA 
HETATM   29  C   UNL     3      -6.909   5.620  71.826  1.00  0.00    -0.067 C  
HETATM   30  O   UNL     3      -9.970   5.014  73.401  1.00  0.00    -0.150 OA 
HETATM   31  H   UNL     3      -7.489   3.994  74.735  1.00  0.00     0.000 HD 
ENDBRANCH  20  23
ENDBRANCH   7  20
TORSDOF 4
ENDMDL
MODEL      412
REMARK 921   NORMALIZED FREE ENERGY PREDICTED BY IDOCK:   -2.04 KCAL/MOL
REMARK 922        TOTAL FREE ENERGY PREDICTED BY IDOCK:   -4.44 KCAL/MOL
REMARK 923 INTER-LIGAND FREE ENERGY PREDICTED BY IDOCK:   -3.70 KCAL/MOL
REMARK 924 INTRA-LIGAND FREE ENERGY PREDICTED BY IDOCK:   -0.74 KCAL/MOL
REMARK 927      BINDING AFFINITY PREDICTED BY RF-SCORE:    0.00 PKD
ROOT
HETATM    1 CA   UNL     1      -7.950  16.637  70.008  1.00  0.00    -0.078 Ca 
HETATM    2  O   UNL     2      -5.927  19.272  63.849  1.00  0.00    -0.429 OA 
HETATM    3  C   UNL     2      -6.021  18.596  65.108  1.00  0.00    -0.259 C  
HETATM    4  H   UNL     2      -5.074  19.068  63.482  1.00  0.00     0.000 HD 
HETATM    5  O   UNL     3     -11.512  14.434  66.523  1.00  0.00    -0.341 OA 
HETATM    6  H   UNL     3     -11.995  14.567  65.716  1.00  0.00     0.000 HD 
HETATM    7  C   UNL     3     -12.218  15.180  67.554  1.00  0.00     0.397 C  
ENDROOT
BRANCH   3   8
HETATM    8  C   UNL     2      -7.377  18.920  65.692  1.00  0.00    -0.092 C  
HETATM    9  H   UNL     2      -8.187  20.463  66.598  1.00  0.00     0.000 HD 
HETATM   10  O   UNL     2      -7.334  20.260  66.231  1.00  0.00    -0.273 OA 
BRANCH   8  11
HETATM   11  C   UNL     2      -7.882  17.971  66.800  1.00  0.00    -0.235 C  
HETATM   12  C   UNL     2      -7.995  16.489  66.544  1.00  0.00    -0.310 C  
HETATM   13  O   UNL     2      -9.277  18.285  66.877  1.00  0.00    -0.267 OA 
HETATM   14  O   UNL     2     -10.844  17.883  65.227  1.00  0.00    -0.614 OA 
HETATM   15  H   UNL     2      -9.099  14.330  65.232  1.00  0.00     0.000 HD 
HETATM   16  O   UNL     2      -7.247  15.711  67.197  1.00  0.00    -0.210 OA 
HETATM   17  C   UNL     2      -9.833  17.604  65.831  1.00  0.00    -0.073 C  
HETATM   18  C   UNL     2      -9.073  16.328  65.741  1.00  0.00    -0.075 C  
HETATM   19  O   UNL     2      -9.583  15.145  65.290  1.00  0.00    -0.215 OA 
ENDBRANCH   8  11
ENDBRANCH   3   8
BRANCH   7  20
HETATM   20  C   UNL     3     -11.439  14.966  68.857  1.00  0.00    -0.299 C  
HETATM   21  O   UNL     3     -10.282  14.168  68.610  1.00  0.00    -0.234 OA 
HETATM   22  H   UNL     3      -9.799  14.036  69.417  1.00  0.00     0.000 HD 
BRANCH  20  23
HETATM   23  C   UNL     3     -12.157  14.590  70.183  1.00  0.00    -0.334 C  
HETATM   24  O   UNL     3     -10.807  14.852  73.362  1.00  0.00     1.127 OA 
HETATM   25  C   UNL     3     -12.620  15.776  72.103  1.00  0.00    -0.453 C  
HETATM   26  C   UNL     3     -13.137  15.447  70.913  1.00  0.00    -0.468 C  
HETATM   27  O   UNL     3     -13.240  16.505  73.093  1.00  0.00    -0.180 OA 
HETATM   28  O   UNL     3     -11.233  14.172  71.202  1.00  0.00     0.299 OA 
HETATM   29  C   UNL     3     -11.417  14.967  72.312  1.00  0.00    -0.211 C  
HETATM   30  O   UNL     3     -14.250  15.568  70.352  1.00  0.00     0.125 OA 
HETATM   31  H   UNL     3     -14.020  17.030  72.957  1.00  0.00     0.000 HD 
ENDBRANCH  20  23
ENDBRANCH   7  20
TORSDOF 4
ENDMDL
MODEL      413
REMARK 921   NORMALIZED FREE ENERGY PREDICTED BY IDOCK:   -2.03 KCAL/MOL
REMARK 922        TOTAL FREE ENERGY PREDICTED BY IDOCK:   -4.44 KCAL/MOL
REMARK 923 INTER-LIGAND FREE ENERGY PREDICTED BY IDOCK:   -4.70 KCAL/MOL
REMARK 924 INTRA-LIGAND FREE ENERGY PREDICTED BY IDOCK:    0.26 KCAL/MOL
REMARK 927      BINDING AFFINITY PREDICTED BY RF-SCORE:    0.00 PKD
ROOT
HETATM    1 CA   UNL     1      -6.262  10.174  68.406  1.00  0.00    -0.046 Ca 
HETATM    2  O   UNL     2      -7.363   6.418  74.207  1.00  0.00    -0.089 OA 
HETATM    3  C   UNL     2      -6.975   7.401  73.240  1.00  0.00    -0.066 C  
HETATM    4  H   UNL     2      -7.076   6.729  75.058  1.00  0.00     0.000 HD 
HETATM    5  O   UNL     3     -11.698  10.050  68.751  1.00  0.00    -0.501 OA 
HETATM    6  H   UNL     3     -12.449   9.537  69.025  1.00  0.00     0.000 HD 
HETATM    7  C   UNL     3     -11.265   9.500  67.474  1.00  0.00     0.308 C  
ENDROOT
BRANCH   3   8
HETATM    8  C   UNL     2      -7.433   6.907  71.887  1.00  0.00    -0.088 C  
HETATM    9  H   UNL     2      -6.924   7.244  70.020  1.00  0.00     0.000 HD 
HETATM   10  O   UNL     2      -6.636   7.555  70.871  1.00  0.00    -0.042 OA 
BRANCH   8  11
HETATM   11  C   UNL     2      -8.921   7.135  71.550  1.00  0.00    -0.134 C  
HETATM   12  C   UNL     2      -9.698   6.096  70.780  1.00  0.00    -0.177 C  
HETATM   13  O   UNL     2      -8.868   8.154  70.545  1.00  0.00    -0.139 OA 
HETATM   14  O   UNL     2      -7.984   7.915  68.424  1.00  0.00    -0.117 OA 
HETATM   15  H   UNL     2     -10.180   4.623  68.500  1.00  0.00     0.000 HD 
HETATM   16  O   UNL     2     -10.648   5.507  71.363  1.00  0.00    -0.242 OA 
HETATM   17  C   UNL     2      -8.555   7.481  69.399  1.00  0.00    -0.133 C  
HETATM   18  C   UNL     2      -9.266   6.177  69.499  1.00  0.00    -0.138 C  
HETATM   19  O   UNL     2      -9.726   5.455  68.436  1.00  0.00    -0.123 OA 
ENDBRANCH   8  11
ENDBRANCH   3   8
BRANCH   7  20
HETATM   20  C   UNL     3     -10.053  10.328  67.032  1.00  0.00    -0.218 C  
HETATM   21  O   UNL     3      -9.339  10.798  68.174  1.00  0.00    -0.146 OA 
HETATM   22  H   UNL     3      -8.588  11.311  67.900  1.00  0.00     0.000 HD 
BRANCH  20  23
HETATM   23  C   UNL     3     -10.163  11.397  65.910  1.00  0.00    -0.246 C  
HETATM   24  O   UNL     3     -13.089  12.407  64.354  1.00  0.00    -0.786 OA 
HETATM   25  C   UNL     3     -11.369  13.352  65.723  1.00  0.00    -0.305 C  
HETATM   26  C   UNL     3     -10.182  12.875  66.118  1.00  0.00    -0.278 C  
HETATM   27  O   UNL     3     -11.755  14.673  65.698  1.00  0.00    -0.347 OA 
HETATM   28  O   UNL     3     -11.278  11.155  65.035  1.00  0.00    -0.105 OA 
HETATM   29  C   UNL     3     -12.075  12.278  65.021  1.00  0.00    -0.327 C  
HETATM   30  O   UNL     3      -9.088  13.370  66.473  1.00  0.00    -0.211 OA 
HETATM   31  H   UNL     3     -11.296  15.369  66.153  1.00  0.00     0.000 HD 
ENDBRANCH  20  23
ENDBRANCH   7  20
TORSDOF 4
ENDMDL
MODEL      414
REMARK 921   NORMALIZED FREE ENERGY PREDICTED BY IDOCK:   -1.96 KCAL/MOL
REMARK 922        TOTAL FREE ENERGY PREDICTED BY IDOCK:   -4.34 KCAL/MOL
REMARK 923 INTER-LIGAND FREE ENERGY PREDICTED BY IDOCK:   -3.91 KCAL/MOL
REMARK 924 INTRA-LIGAND FREE ENERGY PREDICTED BY IDOCK:   -0.43 KCAL/MOL
REMARK 927      BINDING AFFINITY PREDICTED BY RF-SCORE:    0.00 PKD
ROOT
HETATM    1 CA   UNL     1     -10.859   5.185  71.701  1.00  0.00    -0.206 Ca 
HETATM    2  O   UNL     2      -8.846   3.906  65.122  1.00  0.00    -0.119 OA 
HETATM    3  C   UNL     2      -9.575   4.164  66.327  1.00  0.00    -0.199 C  
HETATM    4  H   UNL     2      -9.477   3.862  64.413  1.00  0.00     0.000 HD 
HETATM    5  O   UNL     3      -7.764   9.511  70.522  1.00  0.00    -0.149 OA 
HETATM    6  H   UNL     3      -7.010   9.819  70.032  1.00  0.00     0.000 HD 
HETATM    7  C   UNL     3      -7.242   8.830  71.698  1.00  0.00    -0.071 C  
ENDROOT
BRANCH   3   8
HETATM    8  C   UNL     2      -8.572   4.234  67.454  1.00  0.00    -0.104 C  
HETATM    9  H   UNL     2      -6.695   4.784  67.635  1.00  0.00     0.000 HD 
HETATM   10  O   UNL     2      -7.326   4.741  66.926  1.00  0.00    -0.079 OA 
BRANCH   8  11
HETATM   11  C   UNL     2      -8.280   2.907  68.186  1.00  0.00    -0.072 C  
HETATM   12  C   UNL     2      -9.088   2.508  69.395  1.00  0.00    -0.121 C  
HETATM   13  O   UNL     2      -7.032   3.170  68.837  1.00  0.00    -0.047 OA 
HETATM   14  O   UNL     2      -6.694   4.682  70.551  1.00  0.00    -0.034 OA 
HETATM   15  H   UNL     2      -9.914   2.893  71.997  1.00  0.00     0.000 HD 
HETATM   16  O   UNL     2      -9.821   1.484  69.313  1.00  0.00    -0.001 OA 
HETATM   17  C   UNL     2      -7.375   3.882  69.950  1.00  0.00    -0.045 C  
HETATM   18  C   UNL     2      -8.668   3.303  70.408  1.00  0.00    -0.068 C  
HETATM   19  O   UNL     2      -9.090   3.262  71.705  1.00  0.00    -0.096 OA 
ENDBRANCH   8  11
ENDBRANCH   3   8
BRANCH   7  20
HETATM   20  C   UNL     3      -8.459   8.333  72.487  1.00  0.00    -0.187 C  
HETATM   21  O   UNL     3      -8.308   6.950  72.803  1.00  0.00    -0.109 OA 
HETATM   22  H   UNL     3      -9.061   6.643  73.293  1.00  0.00     0.000 HD 
BRANCH  20  23
HETATM   23  C   UNL     3      -9.909   8.697  72.062  1.00  0.00    -0.325 C  
HETATM   24  O   UNL     3     -11.037   9.051  68.806  1.00  0.00    -0.006 OA 
HETATM   25  C   UNL     3     -11.450   7.653  70.704  1.00  0.00    -0.258 C  
HETATM   26  C   UNL     3     -11.054   7.743  71.980  1.00  0.00    -0.269 C  
HETATM   27  O   UNL     3     -12.516   6.924  70.226  1.00  0.00    -0.613 OA 
HETATM   28  O   UNL     3      -9.949   9.398  70.808  1.00  0.00    -0.264 OA 
HETATM   29  C   UNL     3     -10.770   8.704  69.945  1.00  0.00    -0.225 C  
HETATM   30  O   UNL     3     -11.486   7.342  73.085  1.00  0.00    -0.244 OA 
HETATM   31  H   UNL     3     -12.957   6.242  70.719  1.00  0.00     0.000 HD 
ENDBRANCH  20  23
ENDBRANCH   7  20
TORSDOF 4
ENDMDL
MODEL      415
REMARK 921   NORMALIZED FREE ENERGY PREDICTED BY IDOCK:   -1.80 KCAL/MOL
REMARK 922        TOTAL FREE ENERGY PREDICTED BY IDOCK:   -4.15 KCAL/MOL
REMARK 923 INTER-LIGAND FREE ENERGY PREDICTED BY IDOCK:   -4.21 KCAL/MOL
REMARK 924 INTRA-LIGAND FREE ENERGY PREDICTED BY IDOCK:    0.07 KCAL/MOL
REMARK 927      BINDING AFFINITY PREDICTED BY RF-SCORE:    0.00 PKD
ROOT
HETATM    1 CA   UNL     1      -5.971  15.528  67.648  1.00  0.00    -0.092 Ca 
HETATM    2  O   UNL     2     -10.204  20.815  65.888  1.00  0.00    -0.318 OA 
HETATM    3  C   UNL     2      -9.115  19.897  66.038  1.00  0.00    -0.256 C  
HETATM    4  H   UNL     2      -9.932  21.477  65.264  1.00  0.00     0.000 HD 
HETATM    5  O   UNL     3     -10.137  12.985  65.227  1.00  0.00    -0.349 OA 
HETATM    6  H   UNL     3     -11.073  13.004  65.067  1.00  0.00     0.000 HD 
HETATM    7  C   UNL     3      -9.960  12.477  66.580  1.00  0.00    -0.236 C  
ENDROOT
BRANCH   3   8
HETATM    8  C   UNL     2      -9.548  18.843  67.030  1.00  0.00    -0.312 C  
HETATM    9  H   UNL     2     -11.161  18.490  68.094  1.00  0.00     0.000 HD 
HETATM   10  O   UNL     2     -10.889  19.152  67.469  1.00  0.00    -0.473 OA 
BRANCH   8  11
HETATM   11  C   UNL     2      -8.657  18.682  68.280  1.00  0.00    -0.321 C  
HETATM   12  C   UNL     2      -7.514  19.633  68.531  1.00  0.00    -0.334 C  
HETATM   13  O   UNL     2      -7.897  17.505  67.981  1.00  0.00    -0.212 OA 
HETATM   14  O   UNL     2      -6.318  17.307  66.305  1.00  0.00    -0.219 OA 
HETATM   15  H   UNL     2      -5.076  20.730  67.856  1.00  0.00     0.000 HD 
HETATM   16  O   UNL     2      -7.576  20.388  69.539  1.00  0.00     0.289 OA 
HETATM   17  C   UNL     2      -6.909  17.945  67.147  1.00  0.00    -0.178 C  
HETATM   18  C   UNL     2      -6.546  19.301  67.644  1.00  0.00    -0.210 C  
HETATM   19  O   UNL     2      -5.308  19.866  67.539  1.00  0.00    -0.167 OA 
ENDBRANCH   8  11
ENDBRANCH   3   8
BRANCH   7  20
HETATM   20  C   UNL     3      -8.449  12.447  66.839  1.00  0.00    -0.147 C  
HETATM   21  O   UNL     3      -8.062  11.165  67.330  1.00  0.00    -0.127 OA 
HETATM   22  H   UNL     3      -7.126  11.146  67.490  1.00  0.00     0.000 HD 
BRANCH  20  23
HETATM   23  C   UNL     3      -7.725  13.613  67.567  1.00  0.00    -0.173 C  
HETATM   24  O   UNL     3      -9.037  15.520  70.144  1.00  0.00     0.056 OA 
HETATM   25  C   UNL     3      -7.222  14.004  69.782  1.00  0.00     0.250 C  
HETATM   26  C   UNL     3      -6.723  13.463  68.663  1.00  0.00    -0.095 C  
HETATM   27  O   UNL     3      -6.580  14.120  70.993  1.00  0.00    -0.389 OA 
HETATM   28  O   UNL     3      -8.644  14.597  68.069  1.00  0.00    -0.150 OA 
HETATM   29  C   UNL     3      -8.436  14.740  69.423  1.00  0.00     0.016 C  
HETATM   30  O   UNL     3      -5.613  13.007  68.303  1.00  0.00    -0.067 OA 
HETATM   31  H   UNL     3      -5.792  13.642  71.225  1.00  0.00     0.000 HD 
ENDBRANCH  20  23
ENDBRANCH   7  20
TORSDOF 4
ENDMDL
MODEL      416
REMARK 921   NORMALIZED FREE ENERGY PREDICTED BY IDOCK:   -1.72 KCAL/MOL
REMARK 922        TOTAL FREE ENERGY PREDICTED BY IDOCK:   -4.05 KCAL/MOL
REMARK 923 INTER-LIGAND FREE ENERGY PREDICTED BY IDOCK:   -2.86 KCAL/MOL
REMARK 924 INTRA-LIGAND FREE ENERGY PREDICTED BY IDOCK:   -1.19 KCAL/MOL
REMARK 927      BINDING AFFINITY PREDICTED BY RF-SCORE:    0.00 PKD
ROOT
HETATM    1 CA   UNL     1      -8.603  15.171  70.812  1.00  0.00    -0.221 Ca 
HETATM    2  O   UNL     2     -10.758  19.575  65.819  1.00  0.00    -0.503 OA 
HETATM    3  C   UNL     2     -10.132  18.537  66.581  1.00  0.00    -0.389 C  
HETATM    4  H   UNL     2     -10.472  19.477  64.918  1.00  0.00     0.000 HD 
HETATM    5  O   UNL     3     -13.976  14.282  70.654  1.00  0.00    -0.209 OA 
HETATM    6  H   UNL     3     -14.826  14.677  70.500  1.00  0.00     0.000 HD 
HETATM    7  C   UNL     3     -13.575  14.679  71.996  1.00  0.00    -0.400 C  
ENDROOT
BRANCH   3   8
HETATM    8  C   UNL     2     -10.587  18.692  68.013  1.00  0.00    -0.302 C  
HETATM    9  H   UNL     2     -10.765  20.184  69.279  1.00  0.00     0.000 HD 
HETATM   10  O   UNL     2     -10.480  20.086  68.378  1.00  0.00    -0.411 OA 
BRANCH   8  11
HETATM   11  C   UNL     2      -9.819  17.860  69.063  1.00  0.00    -0.231 C  
HETATM   12  C   UNL     2      -8.852  16.787  68.628  1.00  0.00    -0.255 C  
HETATM   13  O   UNL     2     -10.841  17.020  69.613  1.00  0.00    -0.242 OA 
HETATM   14  O   UNL     2     -11.967  15.347  68.485  1.00  0.00    -0.316 OA 
HETATM   15  H   UNL     2      -8.283  14.384  67.403  1.00  0.00     0.000 HD 
HETATM   16  O   UNL     2      -7.629  16.944  68.891  1.00  0.00    -0.227 OA 
HETATM   17  C   UNL     2     -10.981  16.016  68.698  1.00  0.00    -0.323 C  
HETATM   18  C   UNL     2      -9.609  15.757  68.181  1.00  0.00    -0.199 C  
HETATM   19  O   UNL     2      -9.158  14.549  67.733  1.00  0.00    -0.181 OA 
ENDBRANCH   8  11
ENDBRANCH   3   8
BRANCH   7  20
HETATM   20  C   UNL     3     -12.203  14.042  72.246  1.00  0.00     0.158 C  
HETATM   21  O   UNL     3     -11.169  14.905  71.776  1.00  0.00    -0.548 OA 
HETATM   22  H   UNL     3     -10.319  14.511  71.931  1.00  0.00     0.000 HD 
BRANCH  20  23
HETATM   23  C   UNL     3     -11.929  12.547  71.924  1.00  0.00     1.754 C  
HETATM   24  O   UNL     3     -14.272   9.996  71.999  1.00  0.00     0.084 OA 
HETATM   25  C   UNL     3     -12.851  11.078  70.406  1.00  0.00    -0.145 C  
HETATM   26  C   UNL     3     -11.850  11.953  70.556  1.00  0.00    -0.159 C  
HETATM   27  O   UNL     3     -13.085  10.279  69.310  1.00  0.00    -0.078 OA 
HETATM   28  O   UNL     3     -12.815  11.666  72.634  1.00  0.00     0.419 OA 
HETATM   29  C   UNL     3     -13.469  10.871  71.718  1.00  0.00    -0.182 C  
HETATM   30  O   UNL     3     -10.831  12.274  69.902  1.00  0.00     0.243 OA 
HETATM   31  H   UNL     3     -12.684  10.414  68.459  1.00  0.00     0.000 HD 
ENDBRANCH  20  23
ENDBRANCH   7  20
TORSDOF 4
ENDMDL
MODEL      417
REMARK 921   NORMALIZED FREE ENERGY PREDICTED BY IDOCK:   -1.64 KCAL/MOL
REMARK 922        TOTAL FREE ENERGY PREDICTED BY IDOCK:   -3.95 KCAL/MOL
REMARK 923 INTER-LIGAND FREE ENERGY PREDICTED BY IDOCK:   -2.97 KCAL/MOL
REMARK 924 INTRA-LIGAND FREE ENERGY PREDICTED BY IDOCK:   -0.98 KCAL/MOL
REMARK 927      BINDING AFFINITY PREDICTED BY RF-SCORE:    0.00 PKD
ROOT
HETATM    1 CA   UNL     1      -6.225   8.188  70.182  1.00  0.00    -0.030 Ca 
HETATM    2  O   UNL     2     -11.566   5.538  73.846  1.00  0.00    -0.217 OA 
HETATM    3  C   UNL     2     -10.461   6.308  73.358  1.00  0.00    -0.255 C  
HETATM    4  H   UNL     2     -11.863   5.946  74.650  1.00  0.00     0.000 HD 
HETATM    5  O   UNL     3     -10.422   8.702  66.745  1.00  0.00    -0.291 OA 
HETATM    6  H   UNL     3     -11.244   8.322  66.458  1.00  0.00     0.000 HD 
HETATM    7  C   UNL     3      -9.365   7.914  66.128  1.00  0.00    -0.125 C  
ENDROOT
BRANCH   3   8
HETATM    8  C   UNL     2      -9.989   5.657  72.079  1.00  0.00    -0.177 C  
HETATM    9  H   UNL     2     -10.837   5.042  70.417  1.00  0.00     0.000 HD 
HETATM   10  O   UNL     2     -11.133   5.452  71.221  1.00  0.00    -0.136 OA 
BRANCH   8  11
HETATM   11  C   UNL     2      -9.256   4.308  72.235  1.00  0.00    -0.118 C  
HETATM   12  C   UNL     2      -7.781   4.272  72.550  1.00  0.00    -0.080 C  
HETATM   13  O   UNL     2      -9.201   3.818  70.890  1.00  0.00    -0.102 OA 
HETATM   14  O   UNL     2      -7.997   4.758  69.157  1.00  0.00    -0.071 OA 
HETATM   15  H   UNL     2      -5.148   4.775  71.905  1.00  0.00     0.000 HD 
HETATM   16  O   UNL     2      -7.419   3.794  73.659  1.00  0.00    -0.066 OA 
HETATM   17  C   UNL     2      -8.156   4.493  70.327  1.00  0.00    -0.063 C  
HETATM   18  C   UNL     2      -7.144   4.630  71.410  1.00  0.00    -0.051 C  
HETATM   19  O   UNL     2      -5.794   4.688  71.215  1.00  0.00    -0.015 OA 
ENDBRANCH   8  11
ENDBRANCH   3   8
BRANCH   7  20
HETATM   20  C   UNL     3      -8.038   8.527  66.592  1.00  0.00    -0.104 C  
HETATM   21  O   UNL     3      -7.224   7.528  67.204  1.00  0.00    -0.081 OA 
HETATM   22  H   UNL     3      -6.402   7.908  67.491  1.00  0.00     0.000 HD 
BRANCH  20  23
HETATM   23  C   UNL     3      -7.989   9.886  67.343  1.00  0.00    -0.106 C  
HETATM   24  O   UNL     3      -5.159  11.342  68.711  1.00  0.00    -0.041 OA 
HETATM   25  C   UNL     3      -6.773  11.816  67.010  1.00  0.00    -0.139 C  
HETATM   26  C   UNL     3      -7.938  11.232  66.700  1.00  0.00    -0.159 C  
HETATM   27  O   UNL     3      -6.374  13.085  66.660  1.00  0.00    -0.218 OA 
HETATM   28  O   UNL     3      -6.937   9.929  68.322  1.00  0.00    -0.070 OA 
HETATM   29  C   UNL     3      -6.128  11.010  68.049  1.00  0.00    -0.049 C  
HETATM   30  O   UNL     3      -9.000  11.589  66.141  1.00  0.00    -0.207 OA 
HETATM   31  H   UNL     3      -6.793  13.608  65.986  1.00  0.00     0.000 HD 
ENDBRANCH  20  23
ENDBRANCH   7  20
TORSDOF 4
ENDMDL
MODEL      418
REMARK 921   NORMALIZED FREE ENERGY PREDICTED BY IDOCK:   -1.62 KCAL/MOL
REMARK 922        TOTAL FREE ENERGY PREDICTED BY IDOCK:   -3.93 KCAL/MOL
REMARK 923 INTER-LIGAND FREE ENERGY PREDICTED BY IDOCK:   -2.77 KCAL/MOL
REMARK 924 INTRA-LIGAND FREE ENERGY PREDICTED BY IDOCK:   -1.16 KCAL/MOL
REMARK 927      BINDING AFFINITY PREDICTED BY RF-SCORE:    0.00 PKD
ROOT
HETATM    1 CA   UNL     1      -7.958  13.084  69.281  1.00  0.00    -0.267 Ca 
HETATM    2  O   UNL     2     -12.582  13.414  64.039  1.00  0.00    -0.653 OA 
HETATM    3  C   UNL     2     -11.450  13.555  64.905  1.00  0.00    -0.334 C  
HETATM    4  H   UNL     2     -12.390  13.891  63.240  1.00  0.00     0.000 HD 
HETATM    5  O   UNL     3      -8.374   7.884  67.707  1.00  0.00    -0.126 OA 
HETATM    6  H   UNL     3      -8.955   7.223  67.350  1.00  0.00     0.000 HD 
HETATM    7  C   UNL     3      -8.708   8.007  69.119  1.00  0.00    -0.137 C  
ENDROOT
BRANCH   3   8
HETATM    8  C   UNL     2     -11.757  12.795  66.174  1.00  0.00    -0.403 C  
HETATM    9  H   UNL     2     -12.456  13.250  67.953  1.00  0.00     0.000 HD 
HETATM   10  O   UNL     2     -12.263  13.728  67.154  1.00  0.00    -0.391 OA 
BRANCH   8  11
HETATM   11  C   UNL     2     -10.577  12.026  66.806  1.00  0.00    -0.227 C  
HETATM   12  C   UNL     2     -10.390  10.555  66.533  1.00  0.00    -0.233 C  
HETATM   13  O   UNL     2     -10.953  11.943  68.185  1.00  0.00    -0.203 OA 
HETATM   14  O   UNL     2     -12.741  10.747  69.030  1.00  0.00    -0.188 OA 
HETATM   15  H   UNL     2     -11.217   7.930  66.704  1.00  0.00     0.000 HD 
HETATM   16  O   UNL     2      -9.366  10.191  65.893  1.00  0.00    -0.157 OA 
HETATM   17  C   UNL     2     -11.846  10.912  68.230  1.00  0.00    -0.081 C  
HETATM   18  C   UNL     2     -11.350   9.915  67.242  1.00  0.00     0.502 C  
HETATM   19  O   UNL     2     -11.533   8.566  67.334  1.00  0.00     0.835 OA 
ENDBRANCH   8  11
ENDBRANCH   3   8
BRANCH   7  20
HETATM   20  C   UNL     3      -7.770   9.074  69.696  1.00  0.00    -0.075 C  
HETATM   21  O   UNL     3      -6.465   8.933  69.137  1.00  0.00    -0.042 OA 
HETATM   22  H   UNL     3      -5.884   9.594  69.494  1.00  0.00     0.000 HD 
BRANCH  20  23
HETATM   23  C   UNL     3      -7.741   9.396  71.216  1.00  0.00     0.201 C  
HETATM   24  O   UNL     3      -9.939   8.161  73.592  1.00  0.00    -0.012 OA 
HETATM   25  C   UNL     3      -7.600   8.069  73.095  1.00  0.00    -0.145 C  
HETATM   26  C   UNL     3      -6.847   8.751  72.223  1.00  0.00     0.020 C  
HETATM   27  O   UNL     3      -7.156   7.389  74.206  1.00  0.00    -0.096 OA 
HETATM   28  O   UNL     3      -9.046   9.324  71.813  1.00  0.00    -0.303 OA 
HETATM   29  C   UNL     3      -9.000   8.429  72.860  1.00  0.00    -0.196 C  
HETATM   30  O   UNL     3      -5.640   9.073  72.138  1.00  0.00    -0.061 OA 
HETATM   31  H   UNL     3      -6.247   7.155  74.358  1.00  0.00     0.000 HD 
ENDBRANCH  20  23
ENDBRANCH   7  20
TORSDOF 4
ENDMDL
MODEL      419
REMARK 921   NORMALIZED FREE ENERGY PREDICTED BY IDOCK:   -1.54 KCAL/MOL
REMARK 922        TOTAL FREE ENERGY PREDICTED BY IDOCK:   -3.83 KCAL/MOL
REMARK 923 INTER-LIGAND FREE ENERGY PREDICTED BY IDOCK:   -4.29 KCAL/MOL
REMARK 924 INTRA-LIGAND FREE ENERGY PREDICTED BY IDOCK:    0.46 KCAL/MOL
REMARK 927      BINDING AFFINITY PREDICTED BY RF-SCORE:    0.00 PKD
ROOT
HETATM    1 CA   UNL     1      -8.553  12.847  65.459  1.00  0.00    -0.372 Ca 
HETATM    2  O   UNL     2      -5.168   7.359  68.177  1.00  0.00    -0.022 OA 
HETATM    3  C   UNL     2      -5.550   8.635  67.651  1.00  0.00    -0.039 C  
HETATM    4  H   UNL     2      -4.256   7.420  68.435  1.00  0.00     0.000 HD 
HETATM    5  O   UNL     3     -11.240  11.955  70.114  1.00  0.00    -0.490 OA 
HETATM    6  H   UNL     3     -11.527  11.294  70.732  1.00  0.00     0.000 HD 
HETATM    7  C   UNL     3     -12.159  11.889  68.986  1.00  0.00    -0.186 C  
ENDROOT
BRANCH   3   8
HETATM    8  C   UNL     2      -7.001   8.536  67.241  1.00  0.00    -0.075 C  
HETATM    9  H   UNL     2      -8.487   7.305  67.610  1.00  0.00     0.000 HD 
HETATM   10  O   UNL     2      -7.575   7.367  67.868  1.00  0.00    -0.108 OA 
BRANCH   8  11
HETATM   11  C   UNL     2      -7.273   8.452  65.724  1.00  0.00    -0.072 C  
HETATM   12  C   UNL     2      -8.485   7.719  65.205  1.00  0.00    -0.084 C  
HETATM   13  O   UNL     2      -6.262   7.546  65.269  1.00  0.00    -0.038 OA 
HETATM   14  O   UNL     2      -6.119   5.302  65.801  1.00  0.00    -0.031 OA 
HETATM   15  H   UNL     2      -9.957   5.416  64.839  1.00  0.00     0.000 HD 
HETATM   16  O   UNL     2      -9.378   8.385  64.614  1.00  0.00     0.519 OA 
HETATM   17  C   UNL     2      -6.752   6.310  65.579  1.00  0.00    -0.048 C  
HETATM   18  C   UNL     2      -8.221   6.399  65.359  1.00  0.00    -0.142 C  
HETATM   19  O   UNL     2      -9.020   5.359  64.980  1.00  0.00    -0.131 OA 
ENDBRANCH   8  11
ENDBRANCH   3   8
BRANCH   7  20
HETATM   20  C   UNL     3     -11.697  12.956  67.987  1.00  0.00    -0.356 C  
HETATM   21  O   UNL     3     -11.313  12.343  66.757  1.00  0.00    -0.295 OA 
HETATM   22  H   UNL     3     -11.027  13.004  66.138  1.00  0.00     0.000 HD 
BRANCH  20  23
HETATM   23  C   UNL     3     -10.742  14.107  68.408  1.00  0.00    -0.256 C  
HETATM   24  O   UNL     3      -8.656  15.887  66.291  1.00  0.00    -0.312 OA 
HETATM   25  C   UNL     3     -10.530  16.297  67.721  1.00  0.00    -0.295 C  
HETATM   26  C   UNL     3     -11.141  15.528  68.631  1.00  0.00    -0.297 C  
HETATM   27  O   UNL     3     -10.592  17.669  67.632  1.00  0.00    -0.369 OA 
HETATM   28  O   UNL     3      -9.590  14.200  67.553  1.00  0.00    -0.215 OA 
HETATM   29  C   UNL     3      -9.532  15.475  67.034  1.00  0.00    -0.225 C  
HETATM   30  O   UNL     3     -11.824  15.728  69.662  1.00  0.00    -0.345 OA 
HETATM   31  H   UNL     3     -11.240  18.202  68.078  1.00  0.00     0.000 HD 
ENDBRANCH  20  23
ENDBRANCH   7  20
TORSDOF 4
ENDMDL
MODEL      420
REMARK 921   NORMALIZED FREE ENERGY PREDICTED BY IDOCK:    0.01 KCAL/MOL
REMARK 922        TOTAL FREE ENERGY PREDICTED BY IDOCK:   -1.92 KCAL/MOL
REMARK 923 INTER-LIGAND FREE ENERGY PREDICTED BY IDOCK:   -4.25 KCAL/MOL
REMARK 924 INTRA-LIGAND FREE ENERGY PREDICTED BY IDOCK:    2.34 KCAL/MOL
REMARK 927      BINDING AFFINITY PREDICTED BY RF-SCORE:    0.00 PKD
ROOT
HETATM    1 CA   UNL     1     -10.056  20.974  67.460  1.00  0.00    -0.409 Ca 
HETATM    2  O   UNL     2     -12.141  14.554  69.305  1.00  0.00    -0.393 OA 
HETATM    3  C   UNL     2     -12.042  15.896  68.815  1.00  0.00    -0.000 C  
HETATM    4  H   UNL     2     -13.018  14.245  69.111  1.00  0.00     0.000 HD 
HETATM    5  O   UNL     3      -6.786  17.752  64.526  1.00  0.00     1.364 OA 
HETATM    6  H   UNL     3      -6.327  16.921  64.505  1.00  0.00     0.000 HD 
HETATM    7  C   UNL     3      -5.992  18.641  65.363  1.00  0.00    -0.245 C  
ENDROOT
BRANCH   3   8
HETATM    8  C   UNL     2     -10.646  16.386  69.123  1.00  0.00    -0.308 C  
HETATM    9  H   UNL     2      -9.870  17.965  69.997  1.00  0.00     0.000 HD 
HETATM   10  O   UNL     2     -10.748  17.657  69.803  1.00  0.00     0.190 OA 
BRANCH   8  11
HETATM   11  C   UNL     2      -9.706  16.562  67.912  1.00  0.00    -0.236 C  
HETATM   12  C   UNL     2      -9.935  15.773  66.647  1.00  0.00    -0.257 C  
HETATM   13  O   UNL     2      -8.501  15.924  68.349  1.00  0.00    -0.165 OA 
HETATM   14  O   UNL     2      -8.240  13.666  68.764  1.00  0.00    -0.097 OA 
HETATM   15  H   UNL     2     -10.056  13.395  65.258  1.00  0.00     0.000 HD 
HETATM   16  O   UNL     2     -10.249  16.402  65.600  1.00  0.00    -0.432 OA 
HETATM   17  C   UNL     2      -8.737  14.592  68.164  1.00  0.00    -0.168 C  
HETATM   18  C   UNL     2      -9.550  14.504  66.920  1.00  0.00    -0.250 C  
HETATM   19  O   UNL     2      -9.537  13.451  66.051  1.00  0.00    -0.249 OA 
ENDBRANCH   8  11
ENDBRANCH   3   8
BRANCH   7  20
HETATM   20  C   UNL     3      -6.732  19.983  65.397  1.00  0.00    -0.296 C  
HETATM   21  O   UNL     3      -6.094  20.916  64.528  1.00  0.00    -0.270 OA 
HETATM   22  H   UNL     3      -6.553  21.748  64.548  1.00  0.00     0.000 HD 
BRANCH  20  23
HETATM   23  C   UNL     3      -7.192  20.625  66.735  1.00  0.00    -0.256 C  
HETATM   24  O   UNL     3      -9.736  19.455  68.775  1.00  0.00    -0.406 OA 
HETATM   25  C   UNL     3      -7.372  19.809  68.883  1.00  0.00    -0.292 C  
HETATM   26  C   UNL     3      -6.528  20.443  68.059  1.00  0.00    -0.294 C  
HETATM   27  O   UNL     3      -7.155  19.511  70.209  1.00  0.00     0.091 OA 
HETATM   28  O   UNL     3      -8.582  20.380  67.007  1.00  0.00    -0.328 OA 
HETATM   29  C   UNL     3      -8.686  19.771  68.238  1.00  0.00    -0.275 C  
HETATM   30  O   UNL     3      -5.419  21.013  68.174  1.00  0.00    -0.271 OA 
HETATM   31  H   UNL     3      -6.302  19.536  70.627  1.00  0.00     0.000 HD 
ENDBRANCH  20  23
ENDBRANCH   7  20
TORSDOF 4
ENDMDL
MODEL      421
REMARK 921   NORMALIZED FREE ENERGY PREDICTED BY IDOCK:    3.64 KCAL/MOL
REMARK 922        TOTAL FREE ENERGY PREDICTED BY IDOCK:    2.57 KCAL/MOL
REMARK 923 INTER-LIGAND FREE ENERGY PREDICTED BY IDOCK:    1.19 KCAL/MOL
REMARK 924 INTRA-LIGAND FREE ENERGY PREDICTED BY IDOCK:    1.38 KCAL/MOL
REMARK 927      BINDING AFFINITY PREDICTED BY RF-SCORE:    0.00 PKD
ROOT
HETATM    1 CA   UNL     1      -8.956  17.057  66.938  1.00  0.00    -0.193 Ca 
HETATM    2  O   UNL     2      -5.709  21.299  62.417  1.00  0.00    -0.219 OA 
HETATM    3  C   UNL     2      -6.655  20.520  63.159  1.00  0.00     0.365 C  
HETATM    4  H   UNL     2      -6.194  21.778  61.755  1.00  0.00     0.000 HD 
HETATM    5  O   UNL     3      -6.874  20.911  70.178  1.00  0.00     0.435 OA 
HETATM    6  H   UNL     3      -6.153  21.517  70.304  1.00  0.00     0.000 HD 
HETATM    7  C   UNL     3      -6.387  19.601  70.585  1.00  0.00    -0.035 C  
ENDROOT
BRANCH   3   8
HETATM    8  C   UNL     2      -5.884  19.759  64.212  1.00  0.00    -0.264 C  
HETATM    9  H   UNL     2      -5.386  17.882  64.509  1.00  0.00     0.000 HD 
HETATM   10  O   UNL     2      -5.871  18.361  63.847  1.00  0.00     0.024 OA 
BRANCH   8  11
HETATM   11  C   UNL     2      -6.414  19.874  65.657  1.00  0.00    -0.242 C  
HETATM   12  C   UNL     2      -5.615  19.320  66.810  1.00  0.00    -0.159 C  
HETATM   13  O   UNL     2      -7.497  18.937  65.674  1.00  0.00    -0.479 OA 
HETATM   14  O   UNL     2      -7.302  16.643  65.475  1.00  0.00     0.698 OA 
HETATM   15  H   UNL     2      -4.480  17.221  68.190  1.00  0.00     0.000 HD 
HETATM   16  O   UNL     2      -5.158  20.129  67.663  1.00  0.00    -0.176 OA 
HETATM   17  C   UNL     2      -6.890  17.723  65.833  1.00  0.00    -0.255 C  
HETATM   18  C   UNL     2      -5.736  17.973  66.739  1.00  0.00    -0.146 C  
HETATM   19  O   UNL     2      -5.216  17.061  67.612  1.00  0.00    -0.110 OA 
ENDBRANCH   8  11
ENDBRANCH   3   8
BRANCH   7  20
HETATM   20  C   UNL     3      -7.551  18.623  70.383  1.00  0.00     2.108 C  
HETATM   21  O   UNL     3      -7.101  17.464  69.684  1.00  0.00    -0.045 OA 
HETATM   22  H   UNL     3      -7.822  16.858  69.558  1.00  0.00     0.000 HD 
BRANCH  20  23
HETATM   23  C   UNL     3      -8.948  19.108  69.905  1.00  0.00     0.943 C  
HETATM   24  O   UNL     3      -9.552  21.229  67.234  1.00  0.00    -0.240 OA 
HETATM   25  C   UNL     3     -10.042  18.978  67.881  1.00  0.00    -0.381 C  
HETATM   26  C   UNL     3      -9.888  18.332  69.044  1.00  0.00    -0.250 C  
HETATM   27  O   UNL     3     -10.876  18.618  66.847  1.00  0.00    -0.356 OA 
HETATM   28  O   UNL     3      -8.891  20.402  69.281  1.00  0.00     0.557 OA 
HETATM   29  C   UNL     3      -9.427  20.301  68.016  1.00  0.00    -0.213 C  
HETATM   30  O   UNL     3     -10.428  17.351  69.605  1.00  0.00    -0.176 OA 
HETATM   31  H   UNL     3     -11.275  17.760  66.761  1.00  0.00     0.000 HD 
ENDBRANCH  20  23
ENDBRANCH   7  20
TORSDOF 4
ENDMDL
MODEL      422
REMARK 921   NORMALIZED FREE ENERGY PREDICTED BY IDOCK:    5.38 KCAL/MOL
REMARK 922        TOTAL FREE ENERGY PREDICTED BY IDOCK:    4.72 KCAL/MOL
REMARK 923 INTER-LIGAND FREE ENERGY PREDICTED BY IDOCK:    4.94 KCAL/MOL
REMARK 924 INTRA-LIGAND FREE ENERGY PREDICTED BY IDOCK:   -0.23 KCAL/MOL
REMARK 927      BINDING AFFINITY PREDICTED BY RF-SCORE:    0.00 PKD
ROOT
HETATM    1 CA   UNL     1      -6.092  16.637  68.988  1.00  0.00    -0.125 Ca 
HETATM    2  O   UNL     2     -11.223  21.336  69.740  1.00  0.00     0.145 OA 
HETATM    3  C   UNL     2     -10.071  20.589  69.332  1.00  0.00     0.424 C  
HETATM    4  H   UNL     2     -11.294  22.086  69.160  1.00  0.00     0.000 HD 
HETATM    5  O   UNL     3     -10.574  13.701  67.999  1.00  0.00    -0.239 OA 
HETATM    6  H   UNL     3     -11.492  13.588  68.211  1.00  0.00     0.000 HD 
HETATM    7  C   UNL     3      -9.821  13.110  69.096  1.00  0.00     0.433 C  
ENDROOT
BRANCH   3   8
HETATM    8  C   UNL     2      -9.958  19.397  70.254  1.00  0.00     0.935 C  
HETATM    9  H   UNL     2      -9.573  19.125  72.161  1.00  0.00     0.000 HD 
HETATM   10  O   UNL     2      -9.644  19.874  71.581  1.00  0.00     1.896 OA 
BRANCH   8  11
HETATM   11  C   UNL     2      -8.909  18.335  69.864  1.00  0.00     1.562 C  
HETATM   12  C   UNL     2      -7.847  18.650  68.840  1.00  0.00    -0.233 C  
HETATM   13  O   UNL     2      -9.674  17.396  69.100  1.00  0.00    -0.216 OA 
HETATM   14  O   UNL     2     -10.651  17.803  67.046  1.00  0.00    -0.333 OA 
HETATM   15  H   UNL     2      -7.063  19.284  66.274  1.00  0.00     0.000 HD 
HETATM   16  O   UNL     2      -6.644  18.680  69.216  1.00  0.00    -0.266 OA 
HETATM   17  C   UNL     2      -9.775  17.969  67.865  1.00  0.00    -0.297 C  
HETATM   18  C   UNL     2      -8.473  18.654  67.639  1.00  0.00    -0.267 C  
HETATM   19  O   UNL     2      -7.893  18.847  66.418  1.00  0.00    -0.261 OA 
ENDBRANCH   8  11
ENDBRANCH   3   8
BRANCH   7  20
HETATM   20  C   UNL     3      -8.338  13.292  68.754  1.00  0.00     0.105 C  
HETATM   21  O   UNL     3      -7.696  14.077  69.757  1.00  0.00    -0.249 OA 
HETATM   22  H   UNL     3      -6.777  14.190  69.545  1.00  0.00     0.000 HD 
BRANCH  20  23
HETATM   23  C   UNL     3      -7.873  13.658  67.317  1.00  0.00    -0.093 C  
HETATM   24  O   UNL     3      -9.935  14.071  64.564  1.00  0.00    -0.237 OA 
HETATM   25  C   UNL     3      -8.424  15.376  65.883  1.00  0.00     0.727 C  
HETATM   26  C   UNL     3      -7.547  15.032  66.834  1.00  0.00     0.111 C  
HETATM   27  O   UNL     3      -8.423  16.540  65.148  1.00  0.00     1.036 OA 
HETATM   28  O   UNL     3      -8.756  13.136  66.310  1.00  0.00     0.099 OA 
HETATM   29  C   UNL     3      -9.193  14.182  65.527  1.00  0.00     0.563 C  
HETATM   30  O   UNL     3      -6.485  15.513  67.292  1.00  0.00    -0.274 OA 
HETATM   31  H   UNL     3      -7.924  17.314  65.379  1.00  0.00     0.000 HD 
ENDBRANCH  20  23
ENDBRANCH   7  20
TORSDOF 4
ENDMDL
MODEL      423
REMARK 921   NORMALIZED FREE ENERGY PREDICTED BY IDOCK:    7.24 KCAL/MOL
REMARK 922        TOTAL FREE ENERGY PREDICTED BY IDOCK:    7.01 KCAL/MOL
REMARK 923 INTER-LIGAND FREE ENERGY PREDICTED BY IDOCK:    2.71 KCAL/MOL
REMARK 924 INTRA-LIGAND FREE ENERGY PREDICTED BY IDOCK:    4.30 KCAL/MOL
REMARK 927      BINDING AFFINITY PREDICTED BY RF-SCORE:    0.00 PKD
ROOT
HETATM    1 CA   UNL     1      -9.583  16.469  66.960  1.00  0.00    -0.217 Ca 
HETATM    2  O   UNL     2      -5.211  21.050  63.980  1.00  0.00    -0.189 OA 
HETATM    3  C   UNL     2      -6.323  20.383  64.590  1.00  0.00    -0.296 C  
HETATM    4  H   UNL     2      -5.463  21.956  63.847  1.00  0.00     0.000 HD 
HETATM    5  O   UNL     3      -5.461  16.694  70.516  1.00  0.00    -0.199 OA 
HETATM    6  H   UNL     3      -4.524  16.811  70.614  1.00  0.00     0.000 HD 
HETATM    7  C   UNL     3      -5.660  15.323  70.068  1.00  0.00    -0.126 C  
ENDROOT
BRANCH   3   8
HETATM    8  C   UNL     2      -5.923  18.942  64.803  1.00  0.00    -0.266 C  
HETATM    9  H   UNL     2      -6.420  17.213  64.015  1.00  0.00     0.000 HD 
HETATM   10  O   UNL     2      -6.672  18.119  63.881  1.00  0.00     2.640 OA 
BRANCH   8  11
HETATM   11  C   UNL     2      -6.132  18.383  66.226  1.00  0.00    -0.172 C  
HETATM   12  C   UNL     2      -6.198  16.895  66.460  1.00  0.00    -0.092 C  
HETATM   13  O   UNL     2      -7.500  18.706  66.497  1.00  0.00    -0.225 OA 
HETATM   14  O   UNL     2      -9.338  17.815  65.417  1.00  0.00     0.054 OA 
HETATM   15  H   UNL     2      -7.402  14.437  66.126  1.00  0.00     0.000 HD 
HETATM   16  O   UNL     2      -5.286  16.356  67.144  1.00  0.00    -0.243 OA 
HETATM   17  C   UNL     2      -8.210  17.736  65.849  1.00  0.00     0.046 C  
HETATM   18  C   UNL     2      -7.403  16.493  65.990  1.00  0.00     0.465 C  
HETATM   19  O   UNL     2      -7.916  15.230  66.036  1.00  0.00     0.657 OA 
ENDBRANCH   8  11
ENDBRANCH   3   8
BRANCH   7  20
HETATM   20  C   UNL     3      -7.173  15.133  69.909  1.00  0.00    -0.090 C  
HETATM   21  O   UNL     3      -7.453  14.421  68.705  1.00  0.00    -0.113 OA 
HETATM   22  H   UNL     3      -8.391  14.304  68.606  1.00  0.00     0.000 HD 
BRANCH  20  23
HETATM   23  C   UNL     3      -8.171  16.296  70.165  1.00  0.00     1.457 C  
HETATM   24  O   UNL     3      -8.033  19.441  68.719  1.00  0.00    -0.353 OA 
HETATM   25  C   UNL     3      -9.503  17.553  68.767  1.00  0.00    -0.249 C  
HETATM   26  C   UNL     3      -9.510  16.449  69.523  1.00  0.00    -0.006 C  
HETATM   27  O   UNL     3     -10.566  18.072  68.063  1.00  0.00    -0.387 OA 
HETATM   28  O   UNL     3      -7.557  17.586  70.002  1.00  0.00     0.949 OA 
HETATM   29  C   UNL     3      -8.277  18.297  69.066  1.00  0.00    -0.050 C  
HETATM   30  O   UNL     3     -10.375  15.630  69.910  1.00  0.00    -0.289 OA 
HETATM   31  H   UNL     3     -11.361  17.589  67.869  1.00  0.00     0.000 HD 
ENDBRANCH  20  23
ENDBRANCH   7  20
TORSDOF 4
ENDMDL
MODEL      424
REMARK 921   NORMALIZED FREE ENERGY PREDICTED BY IDOCK:    9.72 KCAL/MOL
REMARK 922        TOTAL FREE ENERGY PREDICTED BY IDOCK:   10.07 KCAL/MOL
REMARK 923 INTER-LIGAND FREE ENERGY PREDICTED BY IDOCK:   10.93 KCAL/MOL
REMARK 924 INTRA-LIGAND FREE ENERGY PREDICTED BY IDOCK:   -0.86 KCAL/MOL
REMARK 927      BINDING AFFINITY PREDICTED BY RF-SCORE:    0.00 PKD
ROOT
HETATM    1 CA   UNL     1      -9.118  14.733  71.316  1.00  0.00     0.044 Ca 
HETATM    2  O   UNL     2     -10.238  17.118  64.833  1.00  0.00    -0.115 OA 
HETATM    3  C   UNL     2      -9.745  16.464  66.008  1.00  0.00    -0.326 C  
HETATM    4  H   UNL     2      -9.702  16.832  64.103  1.00  0.00     0.000 HD 
HETATM    5  O   UNL     3     -14.104  12.852  70.182  1.00  0.00     3.142 OA 
HETATM    6  H   UNL     3     -14.913  13.024  69.715  1.00  0.00     0.000 HD 
HETATM    7  C   UNL     3     -14.140  13.670  71.386  1.00  0.00     0.270 C  
ENDROOT
BRANCH   3   8
HETATM    8  C   UNL     2     -10.598  16.919  67.169  1.00  0.00    -0.249 C  
HETATM    9  H   UNL     2     -11.435  18.607  67.723  1.00  0.00     0.000 HD 
HETATM   10  O   UNL     2     -10.898  18.321  66.993  1.00  0.00    -0.329 OA 
BRANCH   8  11
HETATM   11  C   UNL     2      -9.987  16.730  68.574  1.00  0.00    -0.271 C  
HETATM   12  C   UNL     2      -8.661  16.033  68.743  1.00  0.00    -0.223 C  
HETATM   13  O   UNL     2     -10.832  15.732  69.157  1.00  0.00    -0.222 OA 
HETATM   14  O   UNL     2     -11.000  13.533  68.469  1.00  0.00    -0.248 OA 
HETATM   15  H   UNL     2      -7.052  13.800  68.563  1.00  0.00     0.000 HD 
HETATM   16  O   UNL     2      -7.685  16.702  69.179  1.00  0.00    -0.241 OA 
HETATM   17  C   UNL     2     -10.375  14.556  68.636  1.00  0.00    -0.242 C  
HETATM   18  C   UNL     2      -8.899  14.716  68.532  1.00  0.00    -0.182 C  
HETATM   19  O   UNL     2      -7.994  13.699  68.629  1.00  0.00    -0.138 OA 
ENDBRANCH   8  11
ENDBRANCH   3   8
BRANCH   7  20
HETATM   20  C   UNL     3     -12.834  13.392  72.139  1.00  0.00    -0.211 C  
HETATM   21  O   UNL     3     -12.826  12.052  72.627  1.00  0.00     0.052 OA 
HETATM   22  H   UNL     3     -12.016  11.879  73.094  1.00  0.00     0.000 HD 
BRANCH  20  23
HETATM   23  C   UNL     3     -12.253  14.407  73.162  1.00  0.00     0.015 C  
HETATM   24  O   UNL     3     -10.207  17.099  72.406  1.00  0.00     4.833 OA 
HETATM   25  C   UNL     3     -12.377  16.702  73.333  1.00  0.00    -0.235 C  
HETATM   26  C   UNL     3     -12.982  15.577  73.735  1.00  0.00    -0.441 C  
HETATM   27  O   UNL     3     -12.710  17.987  73.697  1.00  0.00     2.361 OA 
HETATM   28  O   UNL     3     -10.998  14.958  72.729  1.00  0.00     0.333 OA 
HETATM   29  C   UNL     3     -11.108  16.331  72.704  1.00  0.00     1.213 C  
HETATM   30  O   UNL     3     -13.887  15.286  74.549  1.00  0.00     2.337 OA 
HETATM   31  H   UNL     3     -13.534  18.227  74.106  1.00  0.00     0.000 HD 
ENDBRANCH  20  23
ENDBRANCH   7  20
TORSDOF 4
ENDMDL
MODEL      425
REMARK 921   NORMALIZED FREE ENERGY PREDICTED BY IDOCK:   16.91 KCAL/MOL
REMARK 922        TOTAL FREE ENERGY PREDICTED BY IDOCK:   18.94 KCAL/MOL
REMARK 923 INTER-LIGAND FREE ENERGY PREDICTED BY IDOCK:   13.65 KCAL/MOL
REMARK 924 INTRA-LIGAND FREE ENERGY PREDICTED BY IDOCK:    5.29 KCAL/MOL
REMARK 927      BINDING AFFINITY PREDICTED BY RF-SCORE:    0.00 PKD
ROOT
HETATM    1 CA   UNL     1      -9.117  17.194  68.482  1.00  0.00    -0.205 Ca 
HETATM    2  O   UNL     2      -5.204  19.099  63.002  1.00  0.00    -0.269 OA 
HETATM    3  C   UNL     2      -6.266  18.817  63.921  1.00  0.00     1.088 C  
HETATM    4  H   UNL     2      -5.594  19.495  62.232  1.00  0.00     0.000 HD 
HETATM    5  O   UNL     3      -5.930  21.089  70.569  1.00  0.00    -0.352 OA 
HETATM    6  H   UNL     3      -5.074  21.498  70.530  1.00  0.00     0.000 HD 
HETATM    7  C   UNL     3      -5.764  19.852  71.319  1.00  0.00    -0.310 C  
ENDROOT
BRANCH   3   8
HETATM    8  C   UNL     2      -5.645  18.187  65.146  1.00  0.00    -0.076 C  
HETATM    9  H   UNL     2      -5.547  16.376  65.901  1.00  0.00     0.000 HD 
HETATM   10  O   UNL     2      -5.937  16.772  65.130  1.00  0.00     1.853 OA 
BRANCH   8  11
HETATM   11  C   UNL     2      -6.101  18.757  66.506  1.00  0.00    -0.162 C  
HETATM   12  C   UNL     2      -7.183  18.067  67.299  1.00  0.00    -0.193 C  
HETATM   13  O   UNL     2      -6.825  19.934  66.132  1.00  0.00    -0.214 OA 
HETATM   14  O   UNL     2      -8.817  19.982  64.962  1.00  0.00     0.387 OA 
HETATM   15  H   UNL     2      -9.787  17.220  67.627  1.00  0.00     0.000 HD 
HETATM   16  O   UNL     2      -6.877  17.558  68.411  1.00  0.00    -0.183 OA 
HETATM   17  C   UNL     2      -8.049  19.469  65.745  1.00  0.00    -0.054 C  
HETATM   18  C   UNL     2      -8.346  18.330  66.657  1.00  0.00    -0.264 C  
HETATM   19  O   UNL     2      -9.597  17.946  67.045  1.00  0.00    -0.269 OA 
ENDBRANCH   8  11
ENDBRANCH   3   8
BRANCH   7  20
HETATM   20  C   UNL     3      -7.146  19.193  71.382  1.00  0.00     2.601 C  
HETATM   21  O   UNL     3      -7.074  17.856  70.889  1.00  0.00     2.566 OA 
HETATM   22  H   UNL     3      -7.931  17.447  70.927  1.00  0.00     0.000 HD 
BRANCH  20  23
HETATM   23  C   UNL     3      -8.426  19.938  70.912  1.00  0.00     2.104 C  
HETATM   24  O   UNL     3      -9.063  21.034  67.688  1.00  0.00    -0.135 OA 
HETATM   25  C   UNL     3      -9.983  19.494  69.272  1.00  0.00    -0.272 C  
HETATM   26  C   UNL     3      -9.730  19.295  70.571  1.00  0.00     1.533 C  
HETATM   27  O   UNL     3     -11.115  19.110  68.589  1.00  0.00     0.076 OA 
HETATM   28  O   UNL     3      -8.169  20.813  69.800  1.00  0.00     1.548 OA 
HETATM   29  C   UNL     3      -9.011  20.466  68.766  1.00  0.00     0.551 C  
HETATM   30  O   UNL     3     -10.363  18.839  71.550  1.00  0.00     2.301 OA 
HETATM   31  H   UNL     3     -11.745  18.480  68.917  1.00  0.00     0.000 HD 
ENDBRANCH  20  23
ENDBRANCH   7  20
TORSDOF 4
ENDMDL
MODEL      426
REMARK 921   NORMALIZED FREE ENERGY PREDICTED BY IDOCK:   21.35 KCAL/MOL
REMARK 922        TOTAL FREE ENERGY PREDICTED BY IDOCK:   24.42 KCAL/MOL
REMARK 923 INTER-LIGAND FREE ENERGY PREDICTED BY IDOCK:   25.81 KCAL/MOL
REMARK 924 INTRA-LIGAND FREE ENERGY PREDICTED BY IDOCK:   -1.39 KCAL/MOL
REMARK 927      BINDING AFFINITY PREDICTED BY RF-SCORE:    0.00 PKD
ROOT
HETATM    1 CA   UNL     1      -6.711  16.951  70.727  1.00  0.00     0.162 Ca 
HETATM    2  O   UNL     2     -12.102  20.850  68.556  1.00  0.00     3.078 OA 
HETATM    3  C   UNL     2     -10.836  20.203  68.733  1.00  0.00     0.685 C  
HETATM    4  H   UNL     2     -12.035  21.397  67.782  1.00  0.00     0.000 HD 
HETATM    5  O   UNL     3     -10.466  13.216  69.448  1.00  0.00    -0.421 OA 
HETATM    6  H   UNL     3     -11.396  13.026  69.417  1.00  0.00     0.000 HD 
HETATM    7  C   UNL     3     -10.059  13.060  70.837  1.00  0.00     6.402 C  
ENDROOT
BRANCH   3   8
HETATM    8  C   UNL     2     -10.944  19.333  69.963  1.00  0.00     2.631 C  
HETATM    9  H   UNL     2     -10.695  19.590  71.895  1.00  0.00     0.000 HD 
HETATM   10  O   UNL     2     -10.628  20.137  71.121  1.00  0.00     1.770 OA 
BRANCH   8  11
HETATM   11  C   UNL     2     -10.043  18.080  69.988  1.00  0.00     1.005 C  
HETATM   12  C   UNL     2      -9.647  17.398  68.702  1.00  0.00    -0.295 C  
HETATM   13  O   UNL     2     -10.915  17.070  70.508  1.00  0.00     0.074 OA 
HETATM   14  O   UNL     2     -12.787  16.226  69.449  1.00  0.00     0.430 OA 
HETATM   15  H   UNL     2     -10.261  15.993  66.411  1.00  0.00     0.000 HD 
HETATM   16  O   UNL     2      -8.429  17.402  68.374  1.00  0.00    -0.247 OA 
HETATM   17  C   UNL     2     -11.670  16.691  69.435  1.00  0.00     0.422 C  
HETATM   18  C   UNL     2     -10.752  16.749  68.265  1.00  0.00    -0.364 C  
HETATM   19  O   UNL     2     -10.846  15.956  67.158  1.00  0.00    -0.319 OA 
ENDBRANCH   8  11
ENDBRANCH   3   8
BRANCH   7  20
HETATM   20  C   UNL     3      -8.558  13.366  70.888  1.00  0.00     7.540 C  
HETATM   21  O   UNL     3      -8.347  14.718  71.289  1.00  0.00     1.938 OA 
HETATM   22  H   UNL     3      -7.417  14.908  71.321  1.00  0.00     0.000 HD 
BRANCH  20  23
HETATM   23  C   UNL     3      -7.598  12.920  69.751  1.00  0.00     1.201 C  
HETATM   24  O   UNL     3      -8.555  11.692  66.656  1.00  0.00    -0.176 OA 
HETATM   25  C   UNL     3      -7.370  13.568  67.551  1.00  0.00    -0.164 C  
HETATM   26  C   UNL     3      -6.917  13.830  68.783  1.00  0.00    -0.109 C  
HETATM   27  O   UNL     3      -6.943  14.151  66.379  1.00  0.00     0.877 OA 
HETATM   28  O   UNL     3      -8.175  11.899  68.920  1.00  0.00    -0.050 OA 
HETATM   29  C   UNL     3      -8.160  12.337  67.613  1.00  0.00    -0.165 C  
HETATM   30  O   UNL     3      -6.000  14.529  69.273  1.00  0.00    -0.098 OA 
HETATM   31  H   UNL     3      -6.430  14.950  66.338  1.00  0.00     0.000 HD 
ENDBRANCH  20  23
ENDBRANCH   7  20
TORSDOF 4
ENDMDL
MODEL      427
REMARK 921   NORMALIZED FREE ENERGY PREDICTED BY IDOCK:   42.83 KCAL/MOL
REMARK 922        TOTAL FREE ENERGY PREDICTED BY IDOCK:   50.92 KCAL/MOL
REMARK 923 INTER-LIGAND FREE ENERGY PREDICTED BY IDOCK:   51.48 KCAL/MOL
REMARK 924 INTRA-LIGAND FREE ENERGY PREDICTED BY IDOCK:   -0.56 KCAL/MOL
REMARK 927      BINDING AFFINITY PREDICTED BY RF-SCORE:    0.00 PKD
ROOT
HETATM    1 CA   UNL     1      -6.183  17.752  71.367  1.00  0.00     0.141 Ca 
HETATM    2  O   UNL     2     -12.108  21.164  69.873  1.00  0.00     2.185 OA 
HETATM    3  C   UNL     2     -10.794  20.593  69.872  1.00  0.00     1.468 C  
HETATM    4  H   UNL     2     -12.217  21.625  69.049  1.00  0.00     0.000 HD 
HETATM    5  O   UNL     3      -9.876  13.749  71.204  1.00  0.00     4.017 OA 
HETATM    6  H   UNL     3     -10.782  13.519  71.369  1.00  0.00     0.000 HD 
HETATM    7  C   UNL     3      -9.212  13.764  72.500  1.00  0.00    12.524 C  
ENDROOT
BRANCH   3   8
HETATM    8  C   UNL     2     -10.621  19.860  71.181  1.00  0.00     2.999 C  
HETATM    9  H   UNL     2     -10.051  20.342  72.998  1.00  0.00     0.000 HD 
HETATM   10  O   UNL     2     -10.161  20.803  72.175  1.00  0.00     2.823 OA 
BRANCH   8  11
HETATM   11  C   UNL     2      -9.645  18.664  71.165  1.00  0.00     4.516 C  
HETATM   12  C   UNL     2      -9.285  17.990  69.865  1.00  0.00     1.443 C  
HETATM   13  O   UNL     2     -10.423  17.611  71.746  1.00  0.00     2.701 OA 
HETATM   14  O   UNL     2     -12.299  16.642  70.809  1.00  0.00     0.590 OA 
HETATM   15  H   UNL     2      -9.947  16.519  67.628  1.00  0.00     0.000 HD 
HETATM   16  O   UNL     2      -8.091  18.063  69.464  1.00  0.00     0.290 OA 
HETATM   17  C   UNL     2     -11.215  17.173  70.724  1.00  0.00     1.033 C  
HETATM   18  C   UNL     2     -10.372  17.270  69.500  1.00  0.00    -0.068 C  
HETATM   19  O   UNL     2     -10.484  16.458  68.409  1.00  0.00    -0.268 OA 
ENDBRANCH   8  11
ENDBRANCH   3   8
BRANCH   7  20
HETATM   20  C   UNL     3      -7.748  14.134  72.234  1.00  0.00     6.348 C  
HETATM   21  O   UNL     3      -7.550  15.531  72.445  1.00  0.00     5.206 OA 
HETATM   22  H   UNL     3      -6.644  15.761  72.280  1.00  0.00     0.000 HD 
BRANCH  20  23
HETATM   23  C   UNL     3      -6.986  13.601  70.989  1.00  0.00     2.000 C  
HETATM   24  O   UNL     3      -5.157  10.663  70.839  1.00  0.00    -0.066 OA 
HETATM   25  C   UNL     3      -7.097  11.620  69.817  1.00  0.00     0.238 C  
HETATM   26  C   UNL     3      -7.600  12.860  69.848  1.00  0.00     1.496 C  
HETATM   27  O   UNL     3      -7.365  10.650  68.878  1.00  0.00    -0.083 OA 
HETATM   28  O   UNL     3      -5.847  12.802  71.349  1.00  0.00    -0.338 OA 
HETATM   29  C   UNL     3      -5.973  11.566  70.754  1.00  0.00     0.067 C  
HETATM   30  O   UNL     3      -8.324  13.555  69.098  1.00  0.00     0.223 OA 
HETATM   31  H   UNL     3      -8.094  10.685  68.269  1.00  0.00     0.000 HD 
ENDBRANCH  20  23
ENDBRANCH   7  20
TORSDOF 4
ENDMDL
