MODEL        1
REMARK 921   NORMALIZED FREE ENERGY PREDICTED BY IDOCK:   -7.91 KCAL/MOL
REMARK 922        TOTAL FREE ENERGY PREDICTED BY IDOCK:  -15.03 KCAL/MOL
REMARK 923 INTER-LIGAND FREE ENERGY PREDICTED BY IDOCK:  -12.53 KCAL/MOL
REMARK 924 INTRA-LIGAND FREE ENERGY PREDICTED BY IDOCK:   -2.50 KCAL/MOL
REMARK 927      BINDING AFFINITY PREDICTED BY RF-SCORE:    0.00 PKD
ROOT
HETATM    1 CA   UNL     1      -8.404  13.098  69.060  1.00  0.00    -0.220 Ca 
HETATM    2  O   UNL     2      -8.307  18.458  67.013  1.00  0.00    -0.241 OA 
HETATM    3  O   UNL     3     -12.594   8.776  70.881  1.00  0.00    -0.491 OA 
HETATM    4  H   UNL     2      -8.060  18.953  67.786  1.00  0.00     0.000 HD 
HETATM    5  C   UNL     2      -8.443  17.083  67.371  1.00  0.00    -0.196 C  
HETATM    6  C   UNL     3     -11.745   9.795  71.403  1.00  0.00    -0.398 C  
HETATM    7  H   UNL     3     -12.443   7.957  71.339  1.00  0.00     0.000 HD 
ENDROOT
BRANCH   5   8
HETATM    8  C   UNL     2      -8.845  16.278  66.117  1.00  0.00    -0.327 C  
HETATM    9  O   UNL     2      -8.673  14.895  66.407  1.00  0.00    -0.439 OA 
HETATM   10  H   UNL     2      -8.920  14.399  65.634  1.00  0.00     0.000 HD 
BRANCH   8  11
HETATM   11  C   UNL     2     -10.321  16.509  65.754  1.00  0.00    -0.341 C  
HETATM   12  H   UNL     2     -11.542  18.044  65.318  1.00  0.00     0.000 HD 
HETATM   13  O   UNL     2     -10.630  17.901  65.543  1.00  0.00    -0.638 OA 
BRANCH  11  14
HETATM   14  C   UNL     2     -10.969  15.676  64.621  1.00  0.00    -0.325 C  
HETATM   15  O   UNL     2     -11.653  16.531  63.719  1.00  0.00    -1.617 OA 
HETATM   16  H   UNL     2     -12.051  16.019  63.024  1.00  0.00     0.000 HD 
BRANCH  14  17
HETATM   17  C   UNL     2     -11.732  14.396  65.011  1.00  0.00    -0.389 C  
HETATM   18  H   UNL     2     -13.574  13.772  64.827  1.00  0.00     0.000 HD 
HETATM   19  O   UNL     2     -13.103  14.561  64.586  1.00  0.00    -0.451 OA 
BRANCH  17  20
HETATM   20  C   UNL     2     -11.137  13.082  64.508  1.00  0.00    -0.351 C  
HETATM   21  O   UNL     2      -9.769  13.252  64.075  1.00  0.00    -0.673 OA 
HETATM   22  C   UNL     2     -11.188  12.064  65.682  1.00  0.00    -0.327 C  
HETATM   23  H   UNL     2      -9.399  12.435  63.762  1.00  0.00     0.000 HD 
HETATM   24  O   UNL     2     -12.244  12.120  66.368  1.00  0.00    -0.592 OA 
HETATM   25  O   UNL     2     -10.149  11.358  65.778  1.00  0.00    -0.226 OA 
ENDBRANCH  17  20
ENDBRANCH  14  17
ENDBRANCH  11  14
ENDBRANCH   8  11
ENDBRANCH   5   8
BRANCH   6  26
HETATM   26  C   UNL     3     -11.989  11.117  70.662  1.00  0.00    -0.360 C  
HETATM   27  H   UNL     3     -12.192  11.616  68.820  1.00  0.00     0.000 HD 
HETATM   28  O   UNL     3     -12.040  10.798  69.278  1.00  0.00    -0.304 OA 
BRANCH  26  29
HETATM   29  C   UNL     3     -13.260  11.850  71.170  1.00  0.00     0.127 C  
HETATM   30  O   UNL     3     -13.702  11.223  72.453  1.00  0.00    -0.457 OA 
HETATM   31  H   UNL     3     -14.480  11.671  72.764  1.00  0.00     0.000 HD 
BRANCH  29  32
HETATM   32  C   UNL     3     -13.023  13.318  71.583  1.00  0.00    -0.349 C  
HETATM   33  H   UNL     3     -13.638  14.458  73.068  1.00  0.00     0.000 HD 
HETATM   34  O   UNL     3     -13.784  13.554  72.813  1.00  0.00    -0.710 OA 
BRANCH  32  35
HETATM   35  C   UNL     3     -12.978  14.512  70.617  1.00  0.00    -0.301 C  
HETATM   36  H   UNL     3     -14.080  16.076  70.333  1.00  0.00     0.000 HD 
HETATM   37  O   UNL     3     -14.107  15.338  70.931  1.00  0.00    -0.328 OA 
BRANCH  35  38
HETATM   38  C   UNL     3     -11.677  15.306  70.568  1.00  0.00    -0.318 C  
HETATM   39  C   UNL     3     -10.806  14.853  69.367  1.00  0.00    -0.264 C  
HETATM   40  O   UNL     3     -10.918  15.126  71.780  1.00  0.00    -0.539 OA 
HETATM   41  O   UNL     3     -11.326  13.988  68.594  1.00  0.00    -0.244 OA 
HETATM   42  O   UNL     3      -9.602  15.225  69.444  1.00  0.00    -0.241 OA 
HETATM   43  H   UNL     3     -10.107  15.621  71.749  1.00  0.00     0.000 HD 
ENDBRANCH  35  38
ENDBRANCH  32  35
ENDBRANCH  29  32
ENDBRANCH  26  29
ENDBRANCH   6  26
TORSDOF 10
ENDMDL
MODEL        2
REMARK 921   NORMALIZED FREE ENERGY PREDICTED BY IDOCK:   -7.29 KCAL/MOL
REMARK 922        TOTAL FREE ENERGY PREDICTED BY IDOCK:  -14.05 KCAL/MOL
REMARK 923 INTER-LIGAND FREE ENERGY PREDICTED BY IDOCK:  -10.67 KCAL/MOL
REMARK 924 INTRA-LIGAND FREE ENERGY PREDICTED BY IDOCK:   -3.38 KCAL/MOL
REMARK 927      BINDING AFFINITY PREDICTED BY RF-SCORE:    0.00 PKD
ROOT
HETATM    1 CA   UNL     1     -12.681  12.485  68.723  1.00  0.00    -0.172 Ca 
HETATM    2  O   UNL     2     -13.670   9.087  73.239  1.00  0.00    -1.072 OA 
HETATM    3  O   UNL     3      -8.607  16.918  66.906  1.00  0.00    -0.192 OA 
HETATM    4  H   UNL     2     -14.401   9.529  73.656  1.00  0.00     0.000 HD 
HETATM    5  C   UNL     2     -13.248   9.853  72.112  1.00  0.00    -0.415 C  
HETATM    6  C   UNL     3      -9.893  16.762  67.498  1.00  0.00    -0.255 C  
HETATM    7  H   UNL     3      -8.658  17.502  66.159  1.00  0.00     0.000 HD 
ENDROOT
BRANCH   5   8
HETATM    8  C   UNL     2     -12.062   9.134  71.435  1.00  0.00    -0.337 C  
HETATM    9  O   UNL     2     -12.528   7.884  70.939  1.00  0.00    -0.500 OA 
HETATM   10  H   UNL     2     -11.797   7.442  70.522  1.00  0.00     0.000 HD 
BRANCH   8  11
HETATM   11  C   UNL     2     -11.521   9.947  70.248  1.00  0.00    -0.281 C  
HETATM   12  H   UNL     2     -11.424  11.864  69.653  1.00  0.00     0.000 HD 
HETATM   13  O   UNL     2     -11.759  11.362  70.387  1.00  0.00    -0.324 OA 
BRANCH  11  14
HETATM   14  C   UNL     2     -10.062   9.730  69.775  1.00  0.00    -0.239 C  
HETATM   15  O   UNL     2      -9.453  10.979  69.489  1.00  0.00    -0.407 OA 
HETATM   16  H   UNL     2      -8.558  10.846  69.199  1.00  0.00     0.000 HD 
BRANCH  14  17
HETATM   17  C   UNL     2      -9.796   8.623  68.737  1.00  0.00    -0.172 C  
HETATM   18  H   UNL     2      -8.626   8.433  67.185  1.00  0.00     0.000 HD 
HETATM   19  O   UNL     2      -8.790   9.117  67.825  1.00  0.00    -0.124 OA 
BRANCH  17  20
HETATM   20  C   UNL     2      -9.426   7.252  69.301  1.00  0.00    -0.153 C  
HETATM   21  O   UNL     2      -9.202   7.309  70.727  1.00  0.00    -0.156 OA 
HETATM   22  C   UNL     2     -10.607   6.288  68.999  1.00  0.00    -0.267 C  
HETATM   23  H   UNL     2      -8.972   6.457  71.078  1.00  0.00     0.000 HD 
HETATM   24  O   UNL     2     -11.123   6.444  67.860  1.00  0.00    -0.322 OA 
HETATM   25  O   UNL     2     -10.880   5.515  69.956  1.00  0.00    -0.317 OA 
ENDBRANCH  17  20
ENDBRANCH  14  17
ENDBRANCH  11  14
ENDBRANCH   8  11
ENDBRANCH   5   8
BRANCH   6  26
HETATM   26  C   UNL     3      -9.810  15.817  68.705  1.00  0.00    -0.214 C  
HETATM   27  H   UNL     3     -10.707  15.706  70.398  1.00  0.00     0.000 HD 
HETATM   28  O   UNL     3     -10.759  16.291  69.651  1.00  0.00    -0.296 OA 
BRANCH  26  29
HETATM   29  C   UNL     3     -10.029  14.333  68.307  1.00  0.00    -0.239 C  
HETATM   30  O   UNL     3     -10.656  13.609  69.456  1.00  0.00    -0.436 OA 
HETATM   31  H   UNL     3     -10.790  12.701  69.212  1.00  0.00     0.000 HD 
BRANCH  29  32
HETATM   32  C   UNL     3     -11.065  14.125  67.180  1.00  0.00    -0.307 C  
HETATM   33  H   UNL     3     -12.998  14.452  66.996  1.00  0.00     0.000 HD 
HETATM   34  O   UNL     3     -12.361  14.580  67.689  1.00  0.00    -0.218 OA 
BRANCH  32  35
HETATM   35  C   UNL     3     -11.131  12.899  66.257  1.00  0.00    -0.288 C  
HETATM   36  H   UNL     3     -10.887  10.996  66.502  1.00  0.00     0.000 HD 
HETATM   37  O   UNL     3     -10.846  11.754  67.073  1.00  0.00    -0.237 OA 
BRANCH  35  38
HETATM   38  C   UNL     3     -12.407  12.724  65.441  1.00  0.00    -0.470 C  
HETATM   39  C   UNL     3     -12.095  12.056  64.076  1.00  0.00    -0.406 C  
HETATM   40  O   UNL     3     -13.041  13.995  65.197  1.00  0.00    -0.776 OA 
HETATM   41  O   UNL     3     -10.890  11.696  63.893  1.00  0.00    -0.343 OA 
HETATM   42  O   UNL     3     -13.026  12.169  63.231  1.00  0.00    -0.735 OA 
HETATM   43  H   UNL     3     -13.836  13.886  64.688  1.00  0.00     0.000 HD 
ENDBRANCH  35  38
ENDBRANCH  32  35
ENDBRANCH  29  32
ENDBRANCH  26  29
ENDBRANCH   6  26
TORSDOF 10
ENDMDL
MODEL        3
REMARK 921   NORMALIZED FREE ENERGY PREDICTED BY IDOCK:   -7.15 KCAL/MOL
REMARK 922        TOTAL FREE ENERGY PREDICTED BY IDOCK:  -13.83 KCAL/MOL
REMARK 923 INTER-LIGAND FREE ENERGY PREDICTED BY IDOCK:  -10.96 KCAL/MOL
REMARK 924 INTRA-LIGAND FREE ENERGY PREDICTED BY IDOCK:   -2.87 KCAL/MOL
REMARK 927      BINDING AFFINITY PREDICTED BY RF-SCORE:    0.00 PKD
ROOT
HETATM    1 CA   UNL     1     -10.371  10.863  69.437  1.00  0.00    -0.176 Ca 
HETATM    2  O   UNL     2     -13.298   6.756  72.173  1.00  0.00    -0.546 OA 
HETATM    3  O   UNL     3     -10.961  14.569  64.391  1.00  0.00    -0.605 OA 
HETATM    4  H   UNL     2     -12.836   5.974  71.895  1.00  0.00     0.000 HD 
HETATM    5  C   UNL     2     -12.727   7.887  71.517  1.00  0.00    -0.322 C  
HETATM    6  C   UNL     3     -10.375  13.339  64.808  1.00  0.00    -0.363 C  
HETATM    7  H   UNL     3     -10.307  15.121  63.978  1.00  0.00     0.000 HD 
ENDROOT
BRANCH   5   8
HETATM    8  C   UNL     2     -13.478   9.158  71.968  1.00  0.00    -0.448 C  
HETATM    9  O   UNL     2     -13.789   9.021  73.350  1.00  0.00    -1.173 OA 
HETATM   10  H   UNL     2     -14.251   9.803  73.628  1.00  0.00     0.000 HD 
BRANCH   8  11
HETATM   11  C   UNL     2     -12.606  10.412  71.797  1.00  0.00    -0.367 C  
HETATM   12  H   UNL     2     -10.669  10.875  71.530  1.00  0.00     0.000 HD 
HETATM   13  O   UNL     2     -11.208  10.100  71.635  1.00  0.00    -0.035 OA 
BRANCH  11  14
HETATM   14  C   UNL     2     -13.003  11.483  70.752  1.00  0.00    -0.017 C  
HETATM   15  O   UNL     2     -12.859  10.960  69.441  1.00  0.00    -0.507 OA 
HETATM   16  H   UNL     2     -13.103  11.618  68.800  1.00  0.00     0.000 HD 
BRANCH  14  17
HETATM   17  C   UNL     2     -12.466  12.915  70.945  1.00  0.00    -0.296 C  
HETATM   18  H   UNL     2     -11.798  14.314  69.757  1.00  0.00     0.000 HD 
HETATM   19  O   UNL     2     -12.129  13.431  69.638  1.00  0.00    -0.312 OA 
BRANCH  17  20
HETATM   20  C   UNL     2     -13.375  13.872  71.716  1.00  0.00    -0.381 C  
HETATM   21  O   UNL     2     -14.268  13.157  72.598  1.00  0.00    -0.700 OA 
HETATM   22  C   UNL     2     -12.461  14.812  72.551  1.00  0.00    -0.327 C  
HETATM   23  H   UNL     2     -14.833  13.752  73.077  1.00  0.00     0.000 HD 
HETATM   24  O   UNL     2     -11.421  15.190  71.950  1.00  0.00    -0.408 OA 
HETATM   25  O   UNL     2     -12.896  15.029  73.714  1.00  0.00    -0.509 OA 
ENDBRANCH  17  20
ENDBRANCH  14  17
ENDBRANCH  11  14
ENDBRANCH   8  11
ENDBRANCH   5   8
BRANCH   6  26
HETATM   26  C   UNL     3     -11.433  12.448  65.474  1.00  0.00    -0.361 C  
HETATM   27  H   UNL     3     -13.341  12.288  65.342  1.00  0.00     0.000 HD 
HETATM   28  O   UNL     3     -12.687  12.840  64.930  1.00  0.00    -0.629 OA 
BRANCH  26  29
HETATM   29  C   UNL     3     -11.129  10.937  65.289  1.00  0.00     0.152 C  
HETATM   30  O   UNL     3      -9.967  10.785  64.361  1.00  0.00    -0.284 OA 
HETATM   31  H   UNL     3      -9.782   9.860  64.249  1.00  0.00     0.000 HD 
BRANCH  29  32
HETATM   32  C   UNL     3     -10.629  10.230  66.567  1.00  0.00    -0.132 C  
HETATM   33  H   UNL     3      -9.444  10.734  68.058  1.00  0.00     0.000 HD 
HETATM   34  O   UNL     3      -9.751  11.169  67.271  1.00  0.00    -0.165 OA 
BRANCH  32  35
HETATM   35  C   UNL     3     -10.192   8.759  66.649  1.00  0.00    -0.270 C  
HETATM   36  H   UNL     3      -8.619   7.774  66.105  1.00  0.00     0.000 HD 
HETATM   37  O   UNL     3      -8.890   8.683  66.054  1.00  0.00    -0.156 OA 
BRANCH  35  38
HETATM   38  C   UNL     3     -10.237   8.107  68.026  1.00  0.00    -0.212 C  
HETATM   39  C   UNL     3     -10.766   6.652  67.925  1.00  0.00    -0.274 C  
HETATM   40  O   UNL     3     -11.095   8.845  68.918  1.00  0.00    -0.440 OA 
HETATM   41  O   UNL     3     -10.987   6.219  66.750  1.00  0.00    -0.347 OA 
HETATM   42  O   UNL     3     -11.130   6.165  69.031  1.00  0.00    -0.353 OA 
HETATM   43  H   UNL     3     -11.124   8.439  69.777  1.00  0.00     0.000 HD 
ENDBRANCH  35  38
ENDBRANCH  32  35
ENDBRANCH  29  32
ENDBRANCH  26  29
ENDBRANCH   6  26
TORSDOF 10
ENDMDL
MODEL        4
REMARK 921   NORMALIZED FREE ENERGY PREDICTED BY IDOCK:   -7.14 KCAL/MOL
REMARK 922        TOTAL FREE ENERGY PREDICTED BY IDOCK:  -13.81 KCAL/MOL
REMARK 923 INTER-LIGAND FREE ENERGY PREDICTED BY IDOCK:  -11.18 KCAL/MOL
REMARK 924 INTRA-LIGAND FREE ENERGY PREDICTED BY IDOCK:   -2.62 KCAL/MOL
REMARK 927      BINDING AFFINITY PREDICTED BY RF-SCORE:    0.00 PKD
ROOT
HETATM    1 CA   UNL     1     -10.667   7.054  65.959  1.00  0.00    -0.465 Ca 
HETATM    2  O   UNL     2      -9.034  11.531  62.764  1.00  0.00    -0.517 OA 
HETATM    3  O   UNL     3     -10.542   5.198  71.967  1.00  0.00    -0.218 OA 
HETATM    4  H   UNL     2      -8.248  11.194  62.349  1.00  0.00     0.000 HD 
HETATM    5  C   UNL     2      -9.540  10.546  63.663  1.00  0.00    -0.320 C  
HETATM    6  C   UNL     3      -9.824   5.063  70.744  1.00  0.00    -0.208 C  
HETATM    7  H   UNL     3     -10.737   4.342  72.329  1.00  0.00     0.000 HD 
ENDROOT
BRANCH   5   8
HETATM    8  C   UNL     2     -10.815  11.093  64.338  1.00  0.00    -0.270 C  
HETATM    9  O   UNL     2     -10.613  11.074  65.747  1.00  0.00    -0.247 OA 
HETATM   10  H   UNL     2     -11.398  11.411  66.162  1.00  0.00     0.000 HD 
BRANCH   8  11
HETATM   11  C   UNL     2     -11.091  12.545  63.916  1.00  0.00    -0.423 C  
HETATM   12  H   UNL     2     -12.648  13.677  63.340  1.00  0.00     0.000 HD 
HETATM   13  O   UNL     2     -12.478  12.780  63.601  1.00  0.00    -0.642 OA 
BRANCH  11  14
HETATM   14  C   UNL     2     -10.576  13.709  64.798  1.00  0.00    -0.422 C  
HETATM   15  O   UNL     2      -9.307  13.382  65.342  1.00  0.00    -0.419 OA 
HETATM   16  H   UNL     2      -8.991  14.096  65.883  1.00  0.00     0.000 HD 
BRANCH  14  17
HETATM   17  C   UNL     2     -11.562  14.356  65.789  1.00  0.00    -0.353 C  
HETATM   18  H   UNL     2     -12.558  13.739  67.353  1.00  0.00     0.000 HD 
HETATM   19  O   UNL     2     -11.949  13.340  66.742  1.00  0.00    -0.382 OA 
BRANCH  17  20
HETATM   20  C   UNL     2     -11.076  15.628  66.483  1.00  0.00    -0.135 C  
HETATM   21  O   UNL     2     -10.032  15.343  67.440  1.00  0.00    -0.227 OA 
HETATM   22  C   UNL     2     -10.528  16.580  65.384  1.00  0.00    -0.269 C  
HETATM   23  H   UNL     2      -9.731  16.133  67.872  1.00  0.00     0.000 HD 
HETATM   24  O   UNL     2     -11.212  16.595  64.326  1.00  0.00    -1.098 OA 
HETATM   25  O   UNL     2      -9.466  17.171  65.718  1.00  0.00    -0.525 OA 
ENDBRANCH  17  20
ENDBRANCH  14  17
ENDBRANCH  11  14
ENDBRANCH   8  11
ENDBRANCH   5   8
BRANCH   6  26
HETATM   26  C   UNL     3      -9.509   6.447  70.159  1.00  0.00    -0.160 C  
HETATM   27  H   UNL     3      -8.000   7.222  69.260  1.00  0.00     0.000 HD 
HETATM   28  O   UNL     3      -8.195   6.365  69.622  1.00  0.00    -0.121 OA 
BRANCH  26  29
HETATM   29  C   UNL     3     -10.568   6.902  69.121  1.00  0.00    -0.223 C  
HETATM   30  O   UNL     3     -11.921   6.860  69.756  1.00  0.00    -0.625 OA 
HETATM   31  H   UNL     3     -12.569   7.139  69.120  1.00  0.00     0.000 HD 
BRANCH  29  32
HETATM   32  C   UNL     3     -10.447   8.382  68.698  1.00  0.00    -0.166 C  
HETATM   33  H   UNL     3      -9.601   9.329  67.192  1.00  0.00     0.000 HD 
HETATM   34  O   UNL     3      -9.675   8.419  67.452  1.00  0.00    -0.152 OA 
BRANCH  32  35
HETATM   35  C   UNL     3     -10.180   9.555  69.653  1.00  0.00    -0.218 C  
HETATM   36  H   UNL     3      -8.882  10.988  69.721  1.00  0.00     0.000 HD 
HETATM   37  O   UNL     3      -9.047  10.262  69.130  1.00  0.00    -0.171 OA 
BRANCH  35  38
HETATM   38  C   UNL     3     -11.354  10.482  69.947  1.00  0.00    -0.309 C  
HETATM   39  C   UNL     3     -12.095  10.034  71.234  1.00  0.00    -0.394 C  
HETATM   40  O   UNL     3     -12.294  10.484  68.854  1.00  0.00    -0.779 OA 
HETATM   41  O   UNL     3     -11.578   9.059  71.865  1.00  0.00    -0.345 OA 
HETATM   42  O   UNL     3     -13.243  10.543  71.362  1.00  0.00    -0.376 OA 
HETATM   43  H   UNL     3     -13.026  11.061  69.036  1.00  0.00     0.000 HD 
ENDBRANCH  35  38
ENDBRANCH  32  35
ENDBRANCH  29  32
ENDBRANCH  26  29
ENDBRANCH   6  26
TORSDOF 10
ENDMDL
MODEL        5
REMARK 921   NORMALIZED FREE ENERGY PREDICTED BY IDOCK:   -7.05 KCAL/MOL
REMARK 922        TOTAL FREE ENERGY PREDICTED BY IDOCK:  -13.67 KCAL/MOL
REMARK 923 INTER-LIGAND FREE ENERGY PREDICTED BY IDOCK:  -11.28 KCAL/MOL
REMARK 924 INTRA-LIGAND FREE ENERGY PREDICTED BY IDOCK:   -2.39 KCAL/MOL
REMARK 927      BINDING AFFINITY PREDICTED BY RF-SCORE:    0.00 PKD
ROOT
HETATM    1 CA   UNL     1     -11.659   8.258  67.249  1.00  0.00    -0.483 Ca 
HETATM    2  O   UNL     2      -9.868  11.838  63.138  1.00  0.00    -0.409 OA 
HETATM    3  O   UNL     3     -11.367   7.670  73.503  1.00  0.00    -0.604 OA 
HETATM    4  H   UNL     2      -9.131  11.360  62.775  1.00  0.00     0.000 HD 
HETATM    5  C   UNL     2     -10.398  11.102  64.238  1.00  0.00    -0.351 C  
HETATM    6  C   UNL     3     -10.723   7.229  72.311  1.00  0.00    -0.231 C  
HETATM    7  H   UNL     3     -11.605   6.925  74.042  1.00  0.00     0.000 HD 
ENDROOT
BRANCH   5   8
HETATM    8  C   UNL     2     -11.596  11.878  64.827  1.00  0.00    -0.236 C  
HETATM    9  O   UNL     2     -11.531  11.779  66.246  1.00  0.00    -0.361 OA 
HETATM   10  H   UNL     2     -12.269  12.257  66.609  1.00  0.00     0.000 HD 
BRANCH   8  11
HETATM   11  C   UNL     2     -11.536  13.367  64.450  1.00  0.00    -0.384 C  
HETATM   12  H   UNL     2     -12.400  14.626  63.144  1.00  0.00     0.000 HD 
HETATM   13  O   UNL     2     -12.437  13.705  63.377  1.00  0.00    -0.784 OA 
BRANCH  11  14
HETATM   14  C   UNL     2     -11.654  14.442  65.559  1.00  0.00    -0.347 C  
HETATM   15  O   UNL     2     -13.018  14.669  65.873  1.00  0.00    -0.253 OA 
HETATM   16  H   UNL     2     -13.090  15.328  66.553  1.00  0.00     0.000 HD 
BRANCH  14  17
HETATM   17  C   UNL     2     -10.796  15.714  65.425  1.00  0.00    -0.381 C  
HETATM   18  H   UNL     2     -10.795  17.265  64.238  1.00  0.00     0.000 HD 
HETATM   19  O   UNL     2     -11.324  16.480  64.320  1.00  0.00    -1.020 OA 
BRANCH  17  20
HETATM   20  C   UNL     2     -10.657  16.563  66.688  1.00  0.00    -0.216 C  
HETATM   21  O   UNL     2     -11.158  15.868  67.851  1.00  0.00    -0.331 OA 
HETATM   22  C   UNL     2      -9.145  16.873  66.880  1.00  0.00    -0.230 C  
HETATM   23  H   UNL     2     -11.072  16.396  68.636  1.00  0.00     0.000 HD 
HETATM   24  O   UNL     2      -8.531  17.131  65.810  1.00  0.00    -0.522 OA 
HETATM   25  O   UNL     2      -8.766  16.793  68.078  1.00  0.00    -0.203 OA 
ENDBRANCH  17  20
ENDBRANCH  14  17
ENDBRANCH  11  14
ENDBRANCH   8  11
ENDBRANCH   5   8
BRANCH   6  26
HETATM   26  C   UNL     3     -10.338   8.434  71.441  1.00  0.00    -0.222 C  
HETATM   27  H   UNL     3      -8.974   8.775  70.134  1.00  0.00     0.000 HD 
HETATM   28  O   UNL     3      -9.212   8.029  70.673  1.00  0.00    -0.151 OA 
BRANCH  26  29
HETATM   29  C   UNL     3     -11.523   8.935  70.574  1.00  0.00    -0.200 C  
HETATM   30  O   UNL     3     -12.600   7.898  70.576  1.00  0.00    -0.416 OA 
HETATM   31  H   UNL     3     -13.326   8.205  70.045  1.00  0.00     0.000 HD 
BRANCH  29  32
HETATM   32  C   UNL     3     -12.251  10.170  71.147  1.00  0.00    -0.389 C  
HETATM   33  H   UNL     3     -14.007  10.480  71.984  1.00  0.00     0.000 HD 
HETATM   34  O   UNL     3     -13.559   9.721  71.631  1.00  0.00    -0.353 OA 
BRANCH  32  35
HETATM   35  C   UNL     3     -12.247  11.571  70.515  1.00  0.00    -0.377 C  
HETATM   36  H   UNL     3     -12.515  12.258  68.727  1.00  0.00     0.000 HD 
HETATM   37  O   UNL     3     -12.518  11.392  69.119  1.00  0.00    -0.325 OA 
BRANCH  35  38
HETATM   38  C   UNL     3     -13.159  12.613  71.153  1.00  0.00    -0.059 C  
HETATM   39  C   UNL     3     -12.578  14.038  70.962  1.00  0.00    -0.366 C  
HETATM   40  O   UNL     3     -13.316  12.366  72.564  1.00  0.00    -0.544 OA 
HETATM   41  O   UNL     3     -11.522  14.121  70.259  1.00  0.00    -0.230 OA 
HETATM   42  O   UNL     3     -13.095  14.903  71.722  1.00  0.00    -0.303 OA 
HETATM   43  H   UNL     3     -13.885  13.015  72.961  1.00  0.00     0.000 HD 
ENDBRANCH  35  38
ENDBRANCH  32  35
ENDBRANCH  29  32
ENDBRANCH  26  29
ENDBRANCH   6  26
TORSDOF 10
ENDMDL
MODEL        6
REMARK 921   NORMALIZED FREE ENERGY PREDICTED BY IDOCK:   -6.99 KCAL/MOL
REMARK 922        TOTAL FREE ENERGY PREDICTED BY IDOCK:  -13.58 KCAL/MOL
REMARK 923 INTER-LIGAND FREE ENERGY PREDICTED BY IDOCK:  -10.13 KCAL/MOL
REMARK 924 INTRA-LIGAND FREE ENERGY PREDICTED BY IDOCK:   -3.44 KCAL/MOL
REMARK 927      BINDING AFFINITY PREDICTED BY RF-SCORE:    0.00 PKD
ROOT
HETATM    1 CA   UNL     1      -9.379  11.386  69.726  1.00  0.00    -0.385 Ca 
HETATM    2  O   UNL     2     -11.879  16.248  71.467  1.00  0.00    -0.577 OA 
HETATM    3  O   UNL     3     -10.328   5.176  70.026  1.00  0.00    -0.277 OA 
HETATM    4  H   UNL     2     -11.337  16.486  72.211  1.00  0.00     0.000 HD 
HETATM    5  C   UNL     2     -11.424  15.000  70.947  1.00  0.00    -0.288 C  
HETATM    6  C   UNL     3      -9.621   6.228  70.676  1.00  0.00    -0.172 C  
HETATM    7  H   UNL     3      -9.733   4.472  69.798  1.00  0.00     0.000 HD 
ENDROOT
BRANCH   5   8
HETATM    8  C   UNL     2     -12.304  14.612  69.739  1.00  0.00    -0.262 C  
HETATM    9  O   UNL     2     -12.545  15.788  68.973  1.00  0.00    -0.500 OA 
HETATM   10  H   UNL     2     -13.086  15.549  68.229  1.00  0.00     0.000 HD 
BRANCH   8  11
HETATM   11  C   UNL     2     -11.593  13.592  68.835  1.00  0.00    -0.323 C  
HETATM   12  H   UNL     2     -11.243  11.614  68.782  1.00  0.00     0.000 HD 
HETATM   13  O   UNL     2     -11.682  12.245  69.341  1.00  0.00    -0.296 OA 
BRANCH  11  14
HETATM   14  C   UNL     2     -11.894  13.576  67.316  1.00  0.00    -0.385 C  
HETATM   15  O   UNL     2     -12.125  12.246  66.881  1.00  0.00    -0.583 OA 
HETATM   16  H   UNL     2     -12.309  12.236  65.948  1.00  0.00     0.000 HD 
BRANCH  14  17
HETATM   17  C   UNL     2     -10.992  14.416  66.393  1.00  0.00    -0.319 C  
HETATM   18  H   UNL     2      -9.077  14.479  66.010  1.00  0.00     0.000 HD 
HETATM   19  O   UNL     2      -9.634  13.960  66.580  1.00  0.00    -0.274 OA 
BRANCH  17  20
HETATM   20  C   UNL     2     -11.383  14.440  64.915  1.00  0.00    -0.380 C  
HETATM   21  O   UNL     2     -12.685  13.850  64.704  1.00  0.00    -0.648 OA 
HETATM   22  C   UNL     2     -11.406  15.927  64.461  1.00  0.00    -0.309 C  
HETATM   23  H   UNL     2     -12.928  13.864  63.785  1.00  0.00     0.000 HD 
HETATM   24  O   UNL     2     -10.471  16.625  64.934  1.00  0.00    -0.657 OA 
HETATM   25  O   UNL     2     -12.378  16.205  63.708  1.00  0.00    -0.864 OA 
ENDBRANCH  17  20
ENDBRANCH  14  17
ENDBRANCH  11  14
ENDBRANCH   8  11
ENDBRANCH   5   8
BRANCH   6  26
HETATM   26  C   UNL     3     -10.583   7.366  71.044  1.00  0.00    -0.224 C  
HETATM   27  H   UNL     3     -10.818   8.492  72.580  1.00  0.00     0.000 HD 
HETATM   28  O   UNL     3     -10.222   7.788  72.353  1.00  0.00    -0.210 OA 
BRANCH  26  29
HETATM   29  C   UNL     3     -10.562   8.515  70.002  1.00  0.00    -0.227 C  
HETATM   30  O   UNL     3     -10.367   9.815  70.715  1.00  0.00    -0.294 OA 
HETATM   31  H   UNL     3     -10.354  10.518  70.076  1.00  0.00     0.000 HD 
BRANCH  29  32
HETATM   32  C   UNL     3      -9.352   8.479  69.043  1.00  0.00    -0.146 C  
HETATM   33  H   UNL     3      -7.567   9.312  69.031  1.00  0.00     0.000 HD 
HETATM   34  O   UNL     3      -8.311   9.334  69.620  1.00  0.00    -0.120 OA 
BRANCH  32  35
HETATM   35  C   UNL     3      -9.439   8.520  67.509  1.00  0.00    -0.149 C  
HETATM   36  H   UNL     3     -10.208   7.369  66.158  1.00  0.00     0.000 HD 
HETATM   37  O   UNL     3     -10.154   7.344  67.107  1.00  0.00    -0.195 OA 
BRANCH  35  38
HETATM   38  C   UNL     3     -10.015   9.788  66.889  1.00  0.00    -0.211 C  
HETATM   39  C   UNL     3      -9.566   9.926  65.411  1.00  0.00    -0.285 C  
HETATM   40  O   UNL     3      -9.581  10.958  67.611  1.00  0.00    -0.161 OA 
HETATM   41  O   UNL     3      -8.889   8.958  64.940  1.00  0.00    -0.186 OA 
HETATM   42  O   UNL     3      -9.731  11.083  64.936  1.00  0.00    -0.222 OA 
HETATM   43  H   UNL     3      -9.940  11.748  67.225  1.00  0.00     0.000 HD 
ENDBRANCH  35  38
ENDBRANCH  32  35
ENDBRANCH  29  32
ENDBRANCH  26  29
ENDBRANCH   6  26
TORSDOF 10
ENDMDL
MODEL        7
REMARK 921   NORMALIZED FREE ENERGY PREDICTED BY IDOCK:   -6.99 KCAL/MOL
REMARK 922        TOTAL FREE ENERGY PREDICTED BY IDOCK:  -13.57 KCAL/MOL
REMARK 923 INTER-LIGAND FREE ENERGY PREDICTED BY IDOCK:  -10.69 KCAL/MOL
REMARK 924 INTRA-LIGAND FREE ENERGY PREDICTED BY IDOCK:   -2.88 KCAL/MOL
REMARK 927      BINDING AFFINITY PREDICTED BY RF-SCORE:    0.00 PKD
ROOT
HETATM    1 CA   UNL     1      -9.677  12.350  69.328  1.00  0.00    -0.367 Ca 
HETATM    2  O   UNL     2     -13.863  13.902  72.932  1.00  0.00    -0.662 OA 
HETATM    3  O   UNL     3      -8.933   8.980  64.070  1.00  0.00    -0.425 OA 
HETATM    4  H   UNL     2     -13.712  13.317  73.666  1.00  0.00     0.000 HD 
HETATM    5  C   UNL     2     -12.930  13.596  71.897  1.00  0.00    -0.341 C  
HETATM    6  C   UNL     3      -8.822   8.874  65.487  1.00  0.00    -0.197 C  
HETATM    7  H   UNL     3      -8.127   8.695  63.656  1.00  0.00     0.000 HD 
ENDROOT
BRANCH   5   8
HETATM    8  C   UNL     2     -13.176  14.547  70.706  1.00  0.00    -0.259 C  
HETATM    9  O   UNL     2     -14.340  15.316  70.988  1.00  0.00    -0.737 OA 
HETATM   10  H   UNL     2     -14.492  15.901  70.255  1.00  0.00     0.000 HD 
BRANCH   8  11
HETATM   11  C   UNL     2     -11.999  15.516  70.513  1.00  0.00    -0.371 C  
HETATM   12  H   UNL     2     -10.236  15.938  71.381  1.00  0.00     0.000 HD 
HETATM   13  O   UNL     2     -10.964  15.339  71.500  1.00  0.00    -0.305 OA 
BRANCH  11  14
HETATM   14  C   UNL     2     -11.341  15.652  69.118  1.00  0.00    -0.338 C  
HETATM   15  O   UNL     2     -11.127  14.368  68.555  1.00  0.00    -0.235 OA 
HETATM   16  H   UNL     2     -10.723  14.451  67.698  1.00  0.00     0.000 HD 
BRANCH  14  17
HETATM   17  C   UNL     2     -10.164  16.634  68.966  1.00  0.00    -0.301 C  
HETATM   18  H   UNL     2      -8.239  16.548  69.287  1.00  0.00     0.000 HD 
HETATM   19  O   UNL     2      -8.965  15.942  69.381  1.00  0.00    -0.248 OA 
BRANCH  17  20
HETATM   20  C   UNL     2     -10.000  17.275  67.589  1.00  0.00    -0.297 C  
HETATM   21  O   UNL     2     -10.969  16.762  66.648  1.00  0.00    -0.071 OA 
HETATM   22  C   UNL     2     -10.202  18.807  67.759  1.00  0.00    -0.394 C  
HETATM   23  H   UNL     2     -10.867  17.161  65.791  1.00  0.00     0.000 HD 
HETATM   24  O   UNL     2      -9.682  19.284  68.803  1.00  0.00    -0.402 OA 
HETATM   25  O   UNL     2     -10.880  19.329  66.834  1.00  0.00    -0.450 OA 
ENDBRANCH  17  20
ENDBRANCH  14  17
ENDBRANCH  11  14
ENDBRANCH   8  11
ENDBRANCH   5   8
BRANCH   6  26
HETATM   26  C   UNL     3     -10.124   9.335  66.156  1.00  0.00    -0.233 C  
HETATM   27  H   UNL     3     -11.421   8.504  67.301  1.00  0.00     0.000 HD 
HETATM   28  O   UNL     3     -10.615   8.219  66.887  1.00  0.00    -0.321 OA 
BRANCH  26  29
HETATM   29  C   UNL     3      -9.920  10.600  67.031  1.00  0.00    -0.202 C  
HETATM   30  O   UNL     3      -8.706  10.411  67.883  1.00  0.00    -0.118 OA 
HETATM   31  H   UNL     3      -8.581  11.186  68.419  1.00  0.00     0.000 HD 
BRANCH  29  32
HETATM   32  C   UNL     3      -9.570  11.874  66.233  1.00  0.00    -0.229 C  
HETATM   33  H   UNL     3      -8.837  13.643  66.695  1.00  0.00     0.000 HD 
HETATM   34  O   UNL     3      -9.053  12.859  67.187  1.00  0.00    -0.204 OA 
BRANCH  32  35
HETATM   35  C   UNL     3     -10.419  12.466  65.097  1.00  0.00    -0.292 C  
HETATM   36  H   UNL     3     -10.671  12.046  63.225  1.00  0.00     0.000 HD 
HETATM   37  O   UNL     3     -10.146  11.681  63.928  1.00  0.00    -0.296 OA 
BRANCH  35  38
HETATM   38  C   UNL     3     -11.914  12.610  65.361  1.00  0.00    -0.446 C  
HETATM   39  C   UNL     3     -12.399  14.037  64.995  1.00  0.00    -0.441 C  
HETATM   40  O   UNL     3     -12.217  12.363  66.748  1.00  0.00    -0.551 OA 
HETATM   41  O   UNL     3     -11.530  14.804  64.472  1.00  0.00    -0.377 OA 
HETATM   42  O   UNL     3     -13.528  14.328  65.476  1.00  0.00    -0.580 OA 
HETATM   43  H   UNL     3     -13.149  12.453  66.913  1.00  0.00     0.000 HD 
ENDBRANCH  35  38
ENDBRANCH  32  35
ENDBRANCH  29  32
ENDBRANCH  26  29
ENDBRANCH   6  26
TORSDOF 10
ENDMDL
MODEL        8
REMARK 921   NORMALIZED FREE ENERGY PREDICTED BY IDOCK:   -6.99 KCAL/MOL
REMARK 922        TOTAL FREE ENERGY PREDICTED BY IDOCK:  -13.57 KCAL/MOL
REMARK 923 INTER-LIGAND FREE ENERGY PREDICTED BY IDOCK:  -10.72 KCAL/MOL
REMARK 924 INTRA-LIGAND FREE ENERGY PREDICTED BY IDOCK:   -2.85 KCAL/MOL
REMARK 927      BINDING AFFINITY PREDICTED BY RF-SCORE:    0.00 PKD
ROOT
HETATM    1 CA   UNL     1      -8.223  13.375  69.099  1.00  0.00    -0.239 Ca 
HETATM    2  O   UNL     2     -11.130  17.948  67.213  1.00  0.00    -0.144 OA 
HETATM    3  O   UNL     3      -9.070   7.194  69.893  1.00  0.00    -0.142 OA 
HETATM    4  H   UNL     2     -11.370  18.372  68.029  1.00  0.00     0.000 HD 
HETATM    5  C   UNL     2     -10.444  16.733  67.510  1.00  0.00    -0.319 C  
HETATM    6  C   UNL     3      -9.131   8.428  70.604  1.00  0.00    -0.156 C  
HETATM    7  H   UNL     3      -8.522   6.574  70.359  1.00  0.00     0.000 HD 
ENDROOT
BRANCH   5   8
HETATM    8  C   UNL     2     -10.053  16.044  66.185  1.00  0.00    -0.327 C  
HETATM    9  O   UNL     2      -8.829  16.614  65.734  1.00  0.00    -0.493 OA 
HETATM   10  H   UNL     2      -8.589  16.189  64.919  1.00  0.00     0.000 HD 
BRANCH   8  11
HETATM   11  C   UNL     2      -9.832  14.536  66.384  1.00  0.00    -0.290 C  
HETATM   12  H   UNL     2      -8.468  13.309  67.204  1.00  0.00     0.000 HD 
HETATM   13  O   UNL     2      -8.605  14.241  67.081  1.00  0.00    -0.206 OA 
BRANCH  11  14
HETATM   14  C   UNL     2     -10.967  13.669  66.983  1.00  0.00    -0.289 C  
HETATM   15  O   UNL     2     -10.677  13.354  68.335  1.00  0.00    -0.242 OA 
HETATM   16  H   UNL     2     -11.374  12.822  68.702  1.00  0.00     0.000 HD 
BRANCH  14  17
HETATM   17  C   UNL     2     -11.499  12.493  66.140  1.00  0.00    -0.377 C  
HETATM   18  H   UNL     2     -12.209  10.717  66.535  1.00  0.00     0.000 HD 
HETATM   19  O   UNL     2     -11.881  11.442  67.055  1.00  0.00    -0.530 OA 
BRANCH  17  20
HETATM   20  C   UNL     2     -12.622  12.828  65.159  1.00  0.00    -0.444 C  
HETATM   21  O   UNL     2     -13.208  14.117  65.446  1.00  0.00    -0.741 OA 
HETATM   22  C   UNL     2     -12.008  12.841  63.732  1.00  0.00    -0.510 C  
HETATM   23  H   UNL     2     -13.907  14.324  64.836  1.00  0.00     0.000 HD 
HETATM   24  O   UNL     2     -11.165  11.928  63.523  1.00  0.00    -0.401 OA 
HETATM   25  O   UNL     2     -12.434  13.784  63.012  1.00  0.00    -0.712 OA 
ENDBRANCH  17  20
ENDBRANCH  14  17
ENDBRANCH  11  14
ENDBRANCH   8  11
ENDBRANCH   5   8
BRANCH   6  26
HETATM   26  C   UNL     3     -10.017   9.430  69.850  1.00  0.00    -0.212 C  
HETATM   27  H   UNL     3     -11.185   9.323  68.331  1.00  0.00     0.000 HD 
HETATM   28  O   UNL     3     -10.637   8.703  68.797  1.00  0.00    -0.211 OA 
BRANCH  26  29
HETATM   29  C   UNL     3     -11.031  10.138  70.787  1.00  0.00    -0.242 C  
HETATM   30  O   UNL     3     -11.331  11.497  70.239  1.00  0.00    -0.499 OA 
HETATM   31  H   UNL     3     -11.952  11.931  70.813  1.00  0.00     0.000 HD 
BRANCH  29  32
HETATM   32  C   UNL     3     -12.428   9.480  70.823  1.00  0.00    -0.124 C  
HETATM   33  H   UNL     3     -14.270  10.119  70.541  1.00  0.00     0.000 HD 
HETATM   34  O   UNL     3     -13.410  10.524  70.519  1.00  0.00    -0.206 OA 
BRANCH  32  35
HETATM   35  C   UNL     3     -12.890   8.445  71.860  1.00  0.00    -0.353 C  
HETATM   36  H   UNL     3     -14.576   8.030  72.711  1.00  0.00     0.000 HD 
HETATM   37  O   UNL     3     -14.290   8.670  72.070  1.00  0.00    -0.434 OA 
BRANCH  35  38
HETATM   38  C   UNL     3     -12.577   6.984  71.557  1.00  0.00    -0.385 C  
HETATM   39  C   UNL     3     -11.399   6.483  72.432  1.00  0.00    -0.279 C  
HETATM   40  O   UNL     3     -12.225   6.810  70.170  1.00  0.00    -0.634 OA 
HETATM   41  O   UNL     3     -10.953   7.307  73.291  1.00  0.00    -0.352 OA 
HETATM   42  O   UNL     3     -10.882   5.408  72.021  1.00  0.00    -0.231 OA 
HETATM   43  H   UNL     3     -12.031   5.899  69.980  1.00  0.00     0.000 HD 
ENDBRANCH  35  38
ENDBRANCH  32  35
ENDBRANCH  29  32
ENDBRANCH  26  29
ENDBRANCH   6  26
TORSDOF 10
ENDMDL
MODEL        9
REMARK 921   NORMALIZED FREE ENERGY PREDICTED BY IDOCK:   -6.99 KCAL/MOL
REMARK 922        TOTAL FREE ENERGY PREDICTED BY IDOCK:  -13.57 KCAL/MOL
REMARK 923 INTER-LIGAND FREE ENERGY PREDICTED BY IDOCK:   -9.82 KCAL/MOL
REMARK 924 INTRA-LIGAND FREE ENERGY PREDICTED BY IDOCK:   -3.75 KCAL/MOL
REMARK 927      BINDING AFFINITY PREDICTED BY RF-SCORE:    0.00 PKD
ROOT
HETATM    1 CA   UNL     1     -11.453   7.879  68.025  1.00  0.00    -0.441 Ca 
HETATM    2  O   UNL     2      -9.326  11.228  63.880  1.00  0.00    -0.319 OA 
HETATM    3  O   UNL     3      -9.398   4.212  72.703  1.00  0.00    -0.118 OA 
HETATM    4  H   UNL     2      -9.431  10.676  63.114  1.00  0.00     0.000 HD 
HETATM    5  C   UNL     2      -9.754  10.505  65.033  1.00  0.00    -0.292 C  
HETATM    6  C   UNL     3      -9.835   4.150  71.348  1.00  0.00    -0.184 C  
HETATM    7  H   UNL     3      -9.888   3.595  73.234  1.00  0.00     0.000 HD 
ENDROOT
BRANCH   5   8
HETATM    8  C   UNL     2      -9.584  11.403  66.277  1.00  0.00    -0.213 C  
HETATM    9  O   UNL     2      -9.113  12.674  65.844  1.00  0.00    -0.435 OA 
HETATM   10  H   UNL     2      -9.008  13.227  66.610  1.00  0.00     0.000 HD 
BRANCH   8  11
HETATM   11  C   UNL     2     -10.923  11.612  67.003  1.00  0.00    -0.288 C  
HETATM   12  H   UNL     2     -12.305  10.513  67.961  1.00  0.00     0.000 HD 
HETATM   13  O   UNL     2     -11.478  10.383  67.512  1.00  0.00    -0.386 OA 
BRANCH  11  14
HETATM   14  C   UNL     2     -11.038  12.703  68.096  1.00  0.00    -0.249 C  
HETATM   15  O   UNL     2     -11.129  12.101  69.376  1.00  0.00    -0.388 OA 
HETATM   16  H   UNL     2     -11.200  12.770  70.047  1.00  0.00     0.000 HD 
BRANCH  14  17
HETATM   17  C   UNL     2     -12.016  13.869  67.853  1.00  0.00    -0.358 C  
HETATM   18  H   UNL     2     -12.901  15.192  68.985  1.00  0.00     0.000 HD 
HETATM   19  O   UNL     2     -12.298  14.473  69.135  1.00  0.00    -0.244 OA 
BRANCH  17  20
HETATM   20  C   UNL     2     -11.578  14.907  66.821  1.00  0.00    -0.269 C  
HETATM   21  O   UNL     2     -10.147  15.108  66.848  1.00  0.00    -0.249 OA 
HETATM   22  C   UNL     2     -12.003  14.383  65.420  1.00  0.00    -0.369 C  
HETATM   23  H   UNL     2      -9.875  15.754  66.206  1.00  0.00     0.000 HD 
HETATM   24  O   UNL     2     -13.134  13.829  65.398  1.00  0.00    -0.727 OA 
HETATM   25  O   UNL     2     -11.132  14.573  64.529  1.00  0.00    -0.349 OA 
ENDBRANCH  17  20
ENDBRANCH  14  17
ENDBRANCH  11  14
ENDBRANCH   8  11
ENDBRANCH   5   8
BRANCH   6  26
HETATM   26  C   UNL     3      -9.044   5.147  70.490  1.00  0.00    -0.139 C  
HETATM   27  H   UNL     3      -8.601   5.269  68.627  1.00  0.00     0.000 HD 
HETATM   28  O   UNL     3      -9.091   4.653  69.158  1.00  0.00    -0.103 OA 
BRANCH  26  29
HETATM   29  C   UNL     3      -9.580   6.596  70.626  1.00  0.00    -0.169 C  
HETATM   30  O   UNL     3      -9.512   7.267  69.291  1.00  0.00    -0.154 OA 
HETATM   31  H   UNL     3      -9.840   8.154  69.375  1.00  0.00     0.000 HD 
BRANCH  29  32
HETATM   32  C   UNL     3     -11.083   6.688  70.967  1.00  0.00    -0.282 C  
HETATM   33  H   UNL     3     -12.752   6.523  69.934  1.00  0.00     0.000 HD 
HETATM   34  O   UNL     3     -11.827   6.467  69.724  1.00  0.00    -0.357 OA 
BRANCH  32  35
HETATM   35  C   UNL     3     -11.712   7.718  71.918  1.00  0.00    -0.292 C  
HETATM   36  H   UNL     3     -11.500   8.148  73.791  1.00  0.00     0.000 HD 
HETATM   37  O   UNL     3     -11.112   7.511  73.203  1.00  0.00    -0.383 OA 
BRANCH  35  38
HETATM   38  C   UNL     3     -11.656   9.177  71.481  1.00  0.00    -0.368 C  
HETATM   39  C   UNL     3     -12.963   9.915  71.870  1.00  0.00    -0.448 C  
HETATM   40  O   UNL     3     -11.477   9.282  70.054  1.00  0.00    -0.412 OA 
HETATM   41  O   UNL     3     -13.807   9.240  72.541  1.00  0.00    -0.468 OA 
HETATM   42  O   UNL     3     -13.124  11.015  71.272  1.00  0.00    -0.373 OA 
HETATM   43  H   UNL     3     -11.442  10.191  69.782  1.00  0.00     0.000 HD 
ENDBRANCH  35  38
ENDBRANCH  32  35
ENDBRANCH  29  32
ENDBRANCH  26  29
ENDBRANCH   6  26
TORSDOF 10
ENDMDL
MODEL       10
REMARK 921   NORMALIZED FREE ENERGY PREDICTED BY IDOCK:   -6.98 KCAL/MOL
REMARK 922        TOTAL FREE ENERGY PREDICTED BY IDOCK:  -13.57 KCAL/MOL
REMARK 923 INTER-LIGAND FREE ENERGY PREDICTED BY IDOCK:  -11.43 KCAL/MOL
REMARK 924 INTRA-LIGAND FREE ENERGY PREDICTED BY IDOCK:   -2.13 KCAL/MOL
REMARK 927      BINDING AFFINITY PREDICTED BY RF-SCORE:    0.00 PKD
ROOT
HETATM    1 CA   UNL     1      -8.355  12.277  66.749  1.00  0.00    -0.152 Ca 
HETATM    2  O   UNL     2     -11.101   7.471  68.259  1.00  0.00    -0.442 OA 
HETATM    3  O   UNL     3      -8.839  18.493  67.574  1.00  0.00    -0.263 OA 
HETATM    4  H   UNL     2     -11.566   7.256  67.458  1.00  0.00     0.000 HD 
HETATM    5  C   UNL     2     -10.406   8.702  68.072  1.00  0.00    -0.223 C  
HETATM    6  C   UNL     3      -9.174  17.462  66.649  1.00  0.00    -0.261 C  
HETATM    7  H   UNL     3      -8.369  19.190  67.133  1.00  0.00     0.000 HD 
ENDROOT
BRANCH   5   8
HETATM    8  C   UNL     2      -9.651   9.051  69.372  1.00  0.00    -0.160 C  
HETATM    9  O   UNL     2     -10.054  10.354  69.782  1.00  0.00    -0.335 OA 
HETATM   10  H   UNL     2      -9.590  10.569  70.582  1.00  0.00     0.000 HD 
BRANCH   8  11
HETATM   11  C   UNL     2      -9.998   8.068  70.501  1.00  0.00    -0.190 C  
HETATM   12  H   UNL     2      -9.045   6.954  71.875  1.00  0.00     0.000 HD 
HETATM   13  O   UNL     2      -8.830   7.562  71.178  1.00  0.00    -0.139 OA 
BRANCH  11  14
HETATM   14  C   UNL     2     -11.057   8.463  71.561  1.00  0.00    -0.266 C  
HETATM   15  O   UNL     2     -10.579   8.159  72.861  1.00  0.00    -0.346 OA 
HETATM   16  H   UNL     2     -11.229   8.401  73.511  1.00  0.00     0.000 HD 
BRANCH  14  17
HETATM   17  C   UNL     2     -12.523   8.073  71.297  1.00  0.00    -0.253 C  
HETATM   18  H   UNL     2     -13.617   6.489  71.632  1.00  0.00     0.000 HD 
HETATM   19  O   UNL     2     -12.712   6.730  71.795  1.00  0.00    -0.362 OA 
BRANCH  17  20
HETATM   20  C   UNL     2     -13.580   9.033  71.844  1.00  0.00    -0.431 C  
HETATM   21  O   UNL     2     -13.579   9.054  73.288  1.00  0.00    -0.992 OA 
HETATM   22  C   UNL     2     -13.247  10.452  71.302  1.00  0.00    -0.339 C  
HETATM   23  H   UNL     2     -14.235   9.651  73.627  1.00  0.00     0.000 HD 
HETATM   24  O   UNL     2     -12.859  10.469  70.103  1.00  0.00    -0.264 OA 
HETATM   25  O   UNL     2     -13.395  11.362  72.160  1.00  0.00    -0.469 OA 
ENDBRANCH  17  20
ENDBRANCH  14  17
ENDBRANCH  11  14
ENDBRANCH   8  11
ENDBRANCH   5   8
BRANCH   6  26
HETATM   26  C   UNL     3      -9.935  16.336  67.364  1.00  0.00    -0.249 C  
HETATM   27  H   UNL     3     -11.484  16.259  68.494  1.00  0.00     0.000 HD 
HETATM   28  O   UNL     3     -11.013  16.956  68.052  1.00  0.00    -0.354 OA 
BRANCH  26  29
HETATM   29  C   UNL     3     -10.391  15.222  66.385  1.00  0.00    -0.289 C  
HETATM   30  O   UNL     3      -9.193  14.677  65.676  1.00  0.00    -0.492 OA 
HETATM   31  H   UNL     3      -9.473  13.995  65.077  1.00  0.00     0.000 HD 
BRANCH  29  32
HETATM   32  C   UNL     3     -10.966  13.966  67.077  1.00  0.00    -0.295 C  
HETATM   33  H   UNL     3     -10.478  12.914  68.669  1.00  0.00     0.000 HD 
HETATM   34  O   UNL     3     -10.124  13.686  68.243  1.00  0.00    -0.229 OA 
BRANCH  32  35
HETATM   35  C   UNL     3     -11.490  12.719  66.349  1.00  0.00    -0.357 C  
HETATM   36  H   UNL     3     -12.217  11.018  66.914  1.00  0.00     0.000 HD 
HETATM   37  O   UNL     3     -11.892  11.789  67.364  1.00  0.00    -0.590 OA 
BRANCH  35  38
HETATM   38  C   UNL     3     -12.578  12.941  65.304  1.00  0.00    -0.439 C  
HETATM   39  C   UNL     3     -11.965  12.996  63.880  1.00  0.00    -0.485 C  
HETATM   40  O   UNL     3     -13.282  14.175  65.549  1.00  0.00    -0.688 OA 
HETATM   41  O   UNL     3     -10.716  12.771  63.801  1.00  0.00    -0.413 OA 
HETATM   42  O   UNL     3     -12.739  13.488  63.013  1.00  0.00    -0.668 OA 
HETATM   43  H   UNL     3     -13.960  14.313  64.898  1.00  0.00     0.000 HD 
ENDBRANCH  35  38
ENDBRANCH  32  35
ENDBRANCH  29  32
ENDBRANCH  26  29
ENDBRANCH   6  26
TORSDOF 10
ENDMDL
MODEL       11
REMARK 921   NORMALIZED FREE ENERGY PREDICTED BY IDOCK:   -6.98 KCAL/MOL
REMARK 922        TOTAL FREE ENERGY PREDICTED BY IDOCK:  -13.56 KCAL/MOL
REMARK 923 INTER-LIGAND FREE ENERGY PREDICTED BY IDOCK:  -10.50 KCAL/MOL
REMARK 924 INTRA-LIGAND FREE ENERGY PREDICTED BY IDOCK:   -3.06 KCAL/MOL
REMARK 927      BINDING AFFINITY PREDICTED BY RF-SCORE:    0.00 PKD
ROOT
HETATM    1 CA   UNL     1      -9.280  12.660  69.317  1.00  0.00    -0.370 Ca 
HETATM    2  O   UNL     2     -10.125   9.666  64.496  1.00  0.00    -0.347 OA 
HETATM    3  O   UNL     3     -12.546  16.229  73.336  1.00  0.00    -0.483 OA 
HETATM    4  H   UNL     2      -9.753  10.247  63.842  1.00  0.00     0.000 HD 
HETATM    5  C   UNL     2     -10.055  10.302  65.772  1.00  0.00    -0.255 C  
HETATM    6  C   UNL     3     -11.694  16.326  72.198  1.00  0.00    -0.441 C  
HETATM    7  H   UNL     3     -12.223  16.785  74.036  1.00  0.00     0.000 HD 
ENDROOT
BRANCH   5   8
HETATM    8  C   UNL     2     -10.659   9.360  66.834  1.00  0.00    -0.167 C  
HETATM    9  O   UNL     2     -10.507   8.021  66.374  1.00  0.00    -0.448 OA 
HETATM   10  H   UNL     2     -10.879   7.440  67.028  1.00  0.00     0.000 HD 
BRANCH   8  11
HETATM   11  C   UNL     2      -9.924   9.489  68.178  1.00  0.00    -0.165 C  
HETATM   12  H   UNL     2      -8.468  10.605  68.997  1.00  0.00     0.000 HD 
HETATM   13  O   UNL     2      -8.922  10.525  68.167  1.00  0.00    -0.132 OA 
BRANCH  11  14
HETATM   14  C   UNL     2     -10.741   9.598  69.489  1.00  0.00    -0.232 C  
HETATM   15  O   UNL     2     -10.859  10.957  69.876  1.00  0.00    -0.397 OA 
HETATM   16  H   UNL     2     -11.360  11.024  70.681  1.00  0.00     0.000 HD 
BRANCH  14  17
HETATM   17  C   UNL     2     -10.407   8.621  70.632  1.00  0.00    -0.202 C  
HETATM   18  H   UNL     2      -9.001   8.499  71.982  1.00  0.00     0.000 HD 
HETATM   19  O   UNL     2      -9.207   9.102  71.276  1.00  0.00    -0.246 OA 
BRANCH  17  20
HETATM   20  C   UNL     2     -11.527   8.362  71.640  1.00  0.00    -0.287 C  
HETATM   21  O   UNL     2     -12.299   9.557  71.891  1.00  0.00    -0.373 OA 
HETATM   22  C   UNL     2     -12.449   7.262  71.042  1.00  0.00    -0.285 C  
HETATM   23  H   UNL     2     -12.995   9.396  72.518  1.00  0.00     0.000 HD 
HETATM   24  O   UNL     2     -11.832   6.337  70.450  1.00  0.00    -0.329 OA 
HETATM   25  O   UNL     2     -13.676   7.485  71.224  1.00  0.00    -0.339 OA 
ENDBRANCH  17  20
ENDBRANCH  14  17
ENDBRANCH  11  14
ENDBRANCH   8  11
ENDBRANCH   5   8
BRANCH   6  26
HETATM   26  C   UNL     3     -12.216  15.428  71.068  1.00  0.00    -0.376 C  
HETATM   27  H   UNL     3     -13.952  15.031  70.351  1.00  0.00     0.000 HD 
HETATM   28  O   UNL     3     -13.629  15.587  71.051  1.00  0.00    -0.528 OA 
BRANCH  26  29
HETATM   29  C   UNL     3     -11.547  15.748  69.705  1.00  0.00    -0.355 C  
HETATM   30  O   UNL     3     -10.062  15.692  69.868  1.00  0.00    -0.283 OA 
HETATM   31  H   UNL     3      -9.652  15.888  69.033  1.00  0.00     0.000 HD 
BRANCH  29  32
HETATM   32  C   UNL     3     -11.801  14.690  68.609  1.00  0.00    -0.311 C  
HETATM   33  H   UNL     3     -12.059  12.737  68.600  1.00  0.00     0.000 HD 
HETATM   34  O   UNL     3     -11.902  13.388  69.274  1.00  0.00    -0.299 OA 
BRANCH  32  35
HETATM   35  C   UNL     3     -11.112  14.658  67.236  1.00  0.00    -0.328 C  
HETATM   36  H   UNL     3      -9.406  14.021  66.584  1.00  0.00     0.000 HD 
HETATM   37  O   UNL     3      -9.832  14.041  67.433  1.00  0.00    -0.233 OA 
BRANCH  35  38
HETATM   38  C   UNL     3     -11.892  14.019  66.093  1.00  0.00    -0.407 C  
HETATM   39  C   UNL     3     -11.793  14.887  64.811  1.00  0.00    -0.384 C  
HETATM   40  O   UNL     3     -13.284  13.870  66.439  1.00  0.00    -0.235 OA 
HETATM   41  O   UNL     3     -11.037  15.907  64.885  1.00  0.00    -0.428 OA 
HETATM   42  O   UNL     3     -12.655  14.601  63.936  1.00  0.00    -0.834 OA 
HETATM   43  H   UNL     3     -13.770  13.472  65.727  1.00  0.00     0.000 HD 
ENDBRANCH  35  38
ENDBRANCH  32  35
ENDBRANCH  29  32
ENDBRANCH  26  29
ENDBRANCH   6  26
TORSDOF 10
ENDMDL
MODEL       12
REMARK 921   NORMALIZED FREE ENERGY PREDICTED BY IDOCK:   -6.97 KCAL/MOL
REMARK 922        TOTAL FREE ENERGY PREDICTED BY IDOCK:  -13.55 KCAL/MOL
REMARK 923 INTER-LIGAND FREE ENERGY PREDICTED BY IDOCK:  -10.07 KCAL/MOL
REMARK 924 INTRA-LIGAND FREE ENERGY PREDICTED BY IDOCK:   -3.48 KCAL/MOL
REMARK 927      BINDING AFFINITY PREDICTED BY RF-SCORE:    0.00 PKD
ROOT
HETATM    1 CA   UNL     1     -12.797  14.098  68.455  1.00  0.00    -0.532 Ca 
HETATM    2  O   UNL     2     -11.361   9.461  71.515  1.00  0.00    -0.354 OA 
HETATM    3  O   UNL     3     -10.018  18.966  65.605  1.00  0.00    -0.425 OA 
HETATM    4  H   UNL     2     -11.579   9.739  72.398  1.00  0.00     0.000 HD 
HETATM    5  C   UNL     2     -11.600  10.545  70.618  1.00  0.00    -0.352 C  
HETATM    6  C   UNL     3     -10.659  18.607  66.826  1.00  0.00    -0.371 C  
HETATM    7  H   UNL     3     -10.415  19.750  65.244  1.00  0.00     0.000 HD 
ENDROOT
BRANCH   5   8
HETATM    8  C   UNL     2     -11.246  10.094  69.185  1.00  0.00    -0.183 C  
HETATM    9  O   UNL     2     -12.273  10.551  68.312  1.00  0.00    -0.744 OA 
HETATM   10  H   UNL     2     -12.055  10.274  67.429  1.00  0.00     0.000 HD 
BRANCH   8  11
HETATM   11  C   UNL     2      -9.916  10.709  68.720  1.00  0.00    -0.193 C  
HETATM   12  H   UNL     2      -7.971  10.645  69.219  1.00  0.00     0.000 HD 
HETATM   13  O   UNL     2      -8.793  10.266  69.507  1.00  0.00    -0.187 OA 
BRANCH  11  14
HETATM   14  C   UNL     2      -9.530  10.651  67.221  1.00  0.00    -0.158 C  
HETATM   15  O   UNL     2     -10.488  11.351  66.445  1.00  0.00    -0.237 OA 
HETATM   16  H   UNL     2     -10.251  11.315  65.525  1.00  0.00     0.000 HD 
BRANCH  14  17
HETATM   17  C   UNL     2      -9.087   9.294  66.642  1.00  0.00    -0.143 C  
HETATM   18  H   UNL     2      -9.996   7.640  66.139  1.00  0.00     0.000 HD 
HETATM   19  O   UNL     2     -10.270   8.477  66.496  1.00  0.00    -0.289 OA 
BRANCH  17  20
HETATM   20  C   UNL     2      -8.275   9.351  65.348  1.00  0.00    -0.125 C  
HETATM   21  O   UNL     2      -8.789  10.356  64.445  1.00  0.00    -0.184 OA 
HETATM   22  C   UNL     2      -6.809   9.697  65.730  1.00  0.00    -0.093 C  
HETATM   23  H   UNL     2      -8.285  10.392  63.641  1.00  0.00     0.000 HD 
HETATM   24  O   UNL     2      -6.397   9.121  66.772  1.00  0.00    -0.064 OA 
HETATM   25  O   UNL     2      -6.269  10.524  64.947  1.00  0.00    -0.121 OA 
ENDBRANCH  17  20
ENDBRANCH  14  17
ENDBRANCH  11  14
ENDBRANCH   8  11
ENDBRANCH   5   8
BRANCH   6  26
HETATM   26  C   UNL     3     -10.016  17.341  67.410  1.00  0.00    -0.278 C  
HETATM   27  H   UNL     3     -10.447  16.151  68.853  1.00  0.00     0.000 HD 
HETATM   28  O   UNL     3     -10.844  16.935  68.492  1.00  0.00    -0.353 OA 
BRANCH  26  29
HETATM   29  C   UNL     3      -9.819  16.235  66.340  1.00  0.00    -0.291 C  
HETATM   30  O   UNL     3      -8.766  15.284  66.812  1.00  0.00    -0.233 OA 
HETATM   31  H   UNL     3      -8.645  14.607  66.157  1.00  0.00     0.000 HD 
BRANCH  29  32
HETATM   32  C   UNL     3     -11.040  15.309  66.151  1.00  0.00    -0.280 C  
HETATM   33  H   UNL     3     -11.575  13.555  66.870  1.00  0.00     0.000 HD 
HETATM   34  O   UNL     3     -10.823  14.124  66.985  1.00  0.00    -0.289 OA 
BRANCH  32  35
HETATM   35  C   UNL     3     -11.740  15.032  64.812  1.00  0.00    -0.370 C  
HETATM   36  H   UNL     3     -12.122  16.081  63.233  1.00  0.00     0.000 HD 
HETATM   37  O   UNL     3     -11.690  16.253  64.061  1.00  0.00    -0.930 OA 
BRANCH  35  38
HETATM   38  C   UNL     3     -11.236  13.838  64.009  1.00  0.00    -0.091 C  
HETATM   39  C   UNL     3     -12.207  12.637  64.148  1.00  0.00    -0.450 C  
HETATM   40  O   UNL     3      -9.930  13.428  64.462  1.00  0.00    -0.630 OA 
HETATM   41  O   UNL     3     -13.271  12.852  64.810  1.00  0.00    -0.764 OA 
HETATM   42  O   UNL     3     -11.708  11.536  63.785  1.00  0.00    -0.357 OA 
HETATM   43  H   UNL     3      -9.616  12.683  63.961  1.00  0.00     0.000 HD 
ENDBRANCH  35  38
ENDBRANCH  32  35
ENDBRANCH  29  32
ENDBRANCH  26  29
ENDBRANCH   6  26
TORSDOF 10
ENDMDL
MODEL       13
REMARK 921   NORMALIZED FREE ENERGY PREDICTED BY IDOCK:   -6.93 KCAL/MOL
REMARK 922        TOTAL FREE ENERGY PREDICTED BY IDOCK:  -13.49 KCAL/MOL
REMARK 923 INTER-LIGAND FREE ENERGY PREDICTED BY IDOCK:   -9.86 KCAL/MOL
REMARK 924 INTRA-LIGAND FREE ENERGY PREDICTED BY IDOCK:   -3.63 KCAL/MOL
REMARK 927      BINDING AFFINITY PREDICTED BY RF-SCORE:    0.00 PKD
ROOT
HETATM    1 CA   UNL     1      -8.560  13.126  69.385  1.00  0.00    -0.341 Ca 
HETATM    2  O   UNL     2     -12.151  16.444  72.388  1.00  0.00    -0.509 OA 
HETATM    3  O   UNL     3      -7.561   7.025  68.231  1.00  0.00    -0.106 OA 
HETATM    4  H   UNL     2     -11.614  16.681  73.135  1.00  0.00     0.000 HD 
HETATM    5  C   UNL     2     -11.416  15.547  71.557  1.00  0.00    -0.421 C  
HETATM    6  C   UNL     3      -7.122   8.086  69.075  1.00  0.00    -0.066 C  
HETATM    7  H   UNL     3      -6.817   6.614  67.807  1.00  0.00     0.000 HD 
ENDROOT
BRANCH   5   8
HETATM    8  C   UNL     2     -12.289  15.162  70.343  1.00  0.00    -0.363 C  
HETATM    9  O   UNL     2     -13.577  15.742  70.523  1.00  0.00    -0.766 OA 
HETATM   10  H   UNL     2     -14.114  15.504  69.776  1.00  0.00     0.000 HD 
BRANCH   8  11
HETATM   11  C   UNL     2     -11.698  15.711  69.034  1.00  0.00    -0.395 C  
HETATM   12  H   UNL     2     -10.171  16.875  68.442  1.00  0.00     0.000 HD 
HETATM   13  O   UNL     2     -10.536  16.536  69.251  1.00  0.00    -0.285 OA 
BRANCH  11  14
HETATM   14  C   UNL     2     -11.412  14.744  67.859  1.00  0.00    -0.342 C  
HETATM   15  O   UNL     2     -10.819  13.551  68.346  1.00  0.00    -0.250 OA 
HETATM   16  H   UNL     2     -10.644  12.957  67.625  1.00  0.00     0.000 HD 
BRANCH  14  17
HETATM   17  C   UNL     2     -10.763  15.323  66.588  1.00  0.00    -0.309 C  
HETATM   18  H   UNL     2      -8.931  15.657  65.998  1.00  0.00     0.000 HD 
HETATM   19  O   UNL     2      -9.332  15.300  66.782  1.00  0.00    -0.215 OA 
BRANCH  17  20
HETATM   20  C   UNL     2     -11.167  14.663  65.270  1.00  0.00    -0.358 C  
HETATM   21  O   UNL     2     -12.158  13.632  65.476  1.00  0.00    -0.363 OA 
HETATM   22  C   UNL     2     -11.753  15.772  64.352  1.00  0.00    -0.201 C  
HETATM   23  H   UNL     2     -12.409  13.222  64.657  1.00  0.00     0.000 HD 
HETATM   24  O   UNL     2     -11.136  16.868  64.408  1.00  0.00    -1.128 OA 
HETATM   25  O   UNL     2     -12.774  15.403  63.711  1.00  0.00    -0.628 OA 
ENDBRANCH  17  20
ENDBRANCH  14  17
ENDBRANCH  11  14
ENDBRANCH   8  11
ENDBRANCH   5   8
BRANCH   6  26
HETATM   26  C   UNL     3      -8.324   8.750  69.761  1.00  0.00    -0.127 C  
HETATM   27  H   UNL     3      -8.541   9.943  71.248  1.00  0.00     0.000 HD 
HETATM   28  O   UNL     3      -7.797   9.532  70.824  1.00  0.00    -0.242 OA 
BRANCH  26  29
HETATM   29  C   UNL     3      -9.190   9.569  68.767  1.00  0.00    -0.140 C  
HETATM   30  O   UNL     3      -9.650  10.822  69.442  1.00  0.00    -0.378 OA 
HETATM   31  H   UNL     3     -10.180  11.323  68.833  1.00  0.00     0.000 HD 
BRANCH  29  32
HETATM   32  C   UNL     3      -8.413  10.114  67.549  1.00  0.00    -0.118 C  
HETATM   33  H   UNL     3      -7.554  11.830  67.107  1.00  0.00     0.000 HD 
HETATM   34  O   UNL     3      -8.032  11.495  67.857  1.00  0.00    -0.115 OA 
BRANCH  32  35
HETATM   35  C   UNL     3      -8.786   9.863  66.080  1.00  0.00    -0.137 C  
HETATM   36  H   UNL     3      -8.789   8.313  64.922  1.00  0.00     0.000 HD 
HETATM   37  O   UNL     3      -8.558   8.469  65.830  1.00  0.00    -0.144 OA 
BRANCH  35  38
HETATM   38  C   UNL     3     -10.175  10.311  65.638  1.00  0.00    -0.231 C  
HETATM   39  C   UNL     3     -10.151  10.791  64.164  1.00  0.00    -0.353 C  
HETATM   40  O   UNL     3     -10.655  11.389  66.465  1.00  0.00    -0.243 OA 
HETATM   41  O   UNL     3      -9.044  10.662  63.552  1.00  0.00    -0.200 OA 
HETATM   42  O   UNL     3     -11.166  11.464  63.833  1.00  0.00    -0.386 OA 
HETATM   43  H   UNL     3     -11.521  11.668  66.190  1.00  0.00     0.000 HD 
ENDBRANCH  35  38
ENDBRANCH  32  35
ENDBRANCH  29  32
ENDBRANCH  26  29
ENDBRANCH   6  26
TORSDOF 10
ENDMDL
MODEL       14
REMARK 921   NORMALIZED FREE ENERGY PREDICTED BY IDOCK:   -6.93 KCAL/MOL
REMARK 922        TOTAL FREE ENERGY PREDICTED BY IDOCK:  -13.49 KCAL/MOL
REMARK 923 INTER-LIGAND FREE ENERGY PREDICTED BY IDOCK:  -12.25 KCAL/MOL
REMARK 924 INTRA-LIGAND FREE ENERGY PREDICTED BY IDOCK:   -1.24 KCAL/MOL
REMARK 927      BINDING AFFINITY PREDICTED BY RF-SCORE:    0.00 PKD
ROOT
HETATM    1 CA   UNL     1      -8.288  13.411  68.717  1.00  0.00    -0.140 Ca 
HETATM    2  O   UNL     2      -9.622  18.696  66.926  1.00  0.00    -0.290 OA 
HETATM    3  O   UNL     3     -11.096   7.872  69.706  1.00  0.00    -0.399 OA 
HETATM    4  H   UNL     2      -9.648  19.176  67.746  1.00  0.00     0.000 HD 
HETATM    5  C   UNL     2      -9.363  17.321  67.203  1.00  0.00    -0.243 C  
HETATM    6  C   UNL     3     -10.691   9.053  70.390  1.00  0.00    -0.227 C  
HETATM    7  H   UNL     3     -10.756   7.103  70.148  1.00  0.00     0.000 HD 
ENDROOT
BRANCH   5   8
HETATM    8  C   UNL     2      -9.320  16.542  65.871  1.00  0.00    -0.191 C  
HETATM    9  O   UNL     2      -8.715  15.277  66.118  1.00  0.00    -0.446 OA 
HETATM   10  H   UNL     2      -8.689  14.798  65.298  1.00  0.00     0.000 HD 
BRANCH   8  11
HETATM   11  C   UNL     2     -10.735  16.295  65.323  1.00  0.00    -0.332 C  
HETATM   12  H   UNL     2     -12.071  17.211  64.135  1.00  0.00     0.000 HD 
HETATM   13  O   UNL     2     -11.197  17.364  64.473  1.00  0.00    -1.018 OA 
BRANCH  11  14
HETATM   14  C   UNL     2     -11.068  14.941  64.649  1.00  0.00    -0.323 C  
HETATM   15  O   UNL     2     -12.126  15.109  63.719  1.00  0.00    -0.939 OA 
HETATM   16  H   UNL     2     -12.331  14.278  63.306  1.00  0.00     0.000 HD 
BRANCH  14  17
HETATM   17  C   UNL     2     -11.182  13.695  65.548  1.00  0.00    -0.293 C  
HETATM   18  H   UNL     2     -11.200  13.374  67.474  1.00  0.00     0.000 HD 
HETATM   19  O   UNL     2     -11.130  14.144  66.920  1.00  0.00    -0.296 OA 
BRANCH  17  20
HETATM   20  C   UNL     2     -12.388  12.792  65.291  1.00  0.00    -0.488 C  
HETATM   21  O   UNL     2     -13.620  13.546  65.280  1.00  0.00    -0.296 OA 
HETATM   22  C   UNL     2     -12.180  12.116  63.907  1.00  0.00    -0.489 C  
HETATM   23  H   UNL     2     -14.370  12.985  65.121  1.00  0.00     0.000 HD 
HETATM   24  O   UNL     2     -10.994  11.756  63.681  1.00  0.00    -0.378 OA 
HETATM   25  O   UNL     2     -13.232  12.057  63.215  1.00  0.00    -0.628 OA 
ENDBRANCH  17  20
ENDBRANCH  14  17
ENDBRANCH  11  14
ENDBRANCH   8  11
ENDBRANCH   5   8
BRANCH   6  26
HETATM   26  C   UNL     3     -11.241  10.295  69.675  1.00  0.00    -0.269 C  
HETATM   27  H   UNL     3     -11.476  10.803  67.839  1.00  0.00     0.000 HD 
HETATM   28  O   UNL     3     -11.136  10.034  68.282  1.00  0.00    -0.247 OA 
BRANCH  26  29
HETATM   29  C   UNL     3     -12.684  10.643  70.127  1.00  0.00    -0.159 C  
HETATM   30  O   UNL     3     -13.358   9.396  70.603  1.00  0.00    -0.549 OA 
HETATM   31  H   UNL     3     -14.242   9.610  70.879  1.00  0.00     0.000 HD 
BRANCH  29  32
HETATM   32  C   UNL     3     -12.757  11.555  71.371  1.00  0.00    -0.364 C  
HETATM   33  H   UNL     3     -13.398  11.329  73.220  1.00  0.00     0.000 HD 
HETATM   34  O   UNL     3     -13.353  10.769  72.454  1.00  0.00    -0.269 OA 
BRANCH  32  35
HETATM   35  C   UNL     3     -13.159  13.038  71.357  1.00  0.00    -0.248 C  
HETATM   36  H   UNL     3     -14.151  14.190  72.552  1.00  0.00     0.000 HD 
HETATM   37  O   UNL     3     -13.903  13.273  72.560  1.00  0.00    -0.668 OA 
BRANCH  35  38
HETATM   38  C   UNL     3     -12.037  14.051  71.163  1.00  0.00    -0.274 C  
HETATM   39  C   UNL     3     -12.615  15.475  70.955  1.00  0.00    -0.456 C  
HETATM   40  O   UNL     3     -11.229  13.711  70.018  1.00  0.00    -0.478 OA 
HETATM   41  O   UNL     3     -13.877  15.586  71.060  1.00  0.00    -0.545 OA 
HETATM   42  O   UNL     3     -11.784  16.296  70.477  1.00  0.00    -0.303 OA 
HETATM   43  H   UNL     3     -10.529  14.343  69.897  1.00  0.00     0.000 HD 
ENDBRANCH  35  38
ENDBRANCH  32  35
ENDBRANCH  29  32
ENDBRANCH  26  29
ENDBRANCH   6  26
TORSDOF 10
ENDMDL
MODEL       15
REMARK 921   NORMALIZED FREE ENERGY PREDICTED BY IDOCK:   -6.92 KCAL/MOL
REMARK 922        TOTAL FREE ENERGY PREDICTED BY IDOCK:  -13.46 KCAL/MOL
REMARK 923 INTER-LIGAND FREE ENERGY PREDICTED BY IDOCK:  -10.13 KCAL/MOL
REMARK 924 INTRA-LIGAND FREE ENERGY PREDICTED BY IDOCK:   -3.33 KCAL/MOL
REMARK 927      BINDING AFFINITY PREDICTED BY RF-SCORE:    0.00 PKD
ROOT
HETATM    1 CA   UNL     1      -8.744  12.445  69.175  1.00  0.00    -0.308 Ca 
HETATM    2  O   UNL     2      -9.162   8.823  64.745  1.00  0.00    -0.428 OA 
HETATM    3  O   UNL     3     -12.409  14.968  73.620  1.00  0.00    -0.488 OA 
HETATM    4  H   UNL     2      -9.161   9.422  64.007  1.00  0.00     0.000 HD 
HETATM    5  C   UNL     2      -9.129   9.580  65.953  1.00  0.00    -0.184 C  
HETATM    6  C   UNL     3     -11.868  15.245  72.332  1.00  0.00    -0.434 C  
HETATM    7  H   UNL     3     -12.214  15.679  74.218  1.00  0.00     0.000 HD 
ENDROOT
BRANCH   5   8
HETATM    8  C   UNL     2      -9.131   8.608  67.152  1.00  0.00    -0.133 C  
HETATM    9  O   UNL     2      -8.210   9.099  68.120  1.00  0.00    -0.114 OA 
HETATM   10  H   UNL     2      -8.211   8.500  68.858  1.00  0.00     0.000 HD 
BRANCH   8  11
HETATM   11  C   UNL     2     -10.519   8.533  67.808  1.00  0.00    -0.223 C  
HETATM   12  H   UNL     2     -11.848   7.132  68.365  1.00  0.00     0.000 HD 
HETATM   13  O   UNL     2     -10.990   7.179  67.959  1.00  0.00    -0.154 OA 
BRANCH  11  14
HETATM   14  C   UNL     2     -10.784   9.303  69.125  1.00  0.00    -0.183 C  
HETATM   15  O   UNL     2     -10.036  10.508  69.143  1.00  0.00    -0.205 OA 
HETATM   16  H   UNL     2     -10.199  10.981  69.951  1.00  0.00     0.000 HD 
BRANCH  14  17
HETATM   17  C   UNL     2     -10.769   8.507  70.444  1.00  0.00    -0.228 C  
HETATM   18  H   UNL     2      -9.379   7.735  71.579  1.00  0.00     0.000 HD 
HETATM   19  O   UNL     2      -9.388   8.226  70.765  1.00  0.00    -0.154 OA 
BRANCH  17  20
HETATM   20  C   UNL     2     -11.506   9.146  71.620  1.00  0.00    -0.381 C  
HETATM   21  O   UNL     2     -11.926  10.494  71.313  1.00  0.00    -0.345 OA 
HETATM   22  C   UNL     2     -12.753   8.269  71.923  1.00  0.00    -0.342 C  
HETATM   23  H   UNL     2     -12.384  10.891  72.044  1.00  0.00     0.000 HD 
HETATM   24  O   UNL     2     -12.546   7.029  71.836  1.00  0.00    -0.331 OA 
HETATM   25  O   UNL     2     -13.786   8.941  72.185  1.00  0.00    -0.421 OA 
ENDBRANCH  17  20
ENDBRANCH  14  17
ENDBRANCH  11  14
ENDBRANCH   8  11
ENDBRANCH   5   8
BRANCH   6  26
HETATM   26  C   UNL     3     -12.183  14.095  71.365  1.00  0.00    -0.301 C  
HETATM   27  H   UNL     3     -13.402  12.613  71.383  1.00  0.00     0.000 HD 
HETATM   28  O   UNL     3     -13.207  13.325  71.981  1.00  0.00    -0.418 OA 
BRANCH  26  29
HETATM   29  C   UNL     3     -12.565  14.603  69.950  1.00  0.00    -0.180 C  
HETATM   30  O   UNL     3     -11.842  15.885  69.683  1.00  0.00    -0.333 OA 
HETATM   31  H   UNL     3     -12.076  16.196  68.816  1.00  0.00     0.000 HD 
BRANCH  29  32
HETATM   32  C   UNL     3     -12.074  13.700  68.798  1.00  0.00    -0.297 C  
HETATM   33  H   UNL     3     -10.763  12.237  68.644  1.00  0.00     0.000 HD 
HETATM   34  O   UNL     3     -11.065  12.793  69.353  1.00  0.00    -0.179 OA 
BRANCH  32  35
HETATM   35  C   UNL     3     -11.793  14.173  67.363  1.00  0.00    -0.413 C  
HETATM   36  H   UNL     3     -10.450  15.293  66.537  1.00  0.00     0.000 HD 
HETATM   37  O   UNL     3     -10.624  15.001  67.425  1.00  0.00    -0.262 OA 
BRANCH  35  38
HETATM   38  C   UNL     3     -11.680  13.091  66.295  1.00  0.00    -0.387 C  
HETATM   39  C   UNL     3     -12.773  13.277  65.211  1.00  0.00    -0.412 C  
HETATM   40  O   UNL     3     -11.825  11.778  66.873  1.00  0.00    -0.591 OA 
HETATM   41  O   UNL     3     -13.508  14.308  65.329  1.00  0.00    -0.564 OA 
HETATM   42  O   UNL     3     -12.946  12.259  64.484  1.00  0.00    -0.738 OA 
HETATM   43  H   UNL     3     -11.754  11.104  66.207  1.00  0.00     0.000 HD 
ENDBRANCH  35  38
ENDBRANCH  32  35
ENDBRANCH  29  32
ENDBRANCH  26  29
ENDBRANCH   6  26
TORSDOF 10
ENDMDL
MODEL       16
REMARK 921   NORMALIZED FREE ENERGY PREDICTED BY IDOCK:   -6.91 KCAL/MOL
REMARK 922        TOTAL FREE ENERGY PREDICTED BY IDOCK:  -13.45 KCAL/MOL
REMARK 923 INTER-LIGAND FREE ENERGY PREDICTED BY IDOCK:  -12.05 KCAL/MOL
REMARK 924 INTRA-LIGAND FREE ENERGY PREDICTED BY IDOCK:   -1.40 KCAL/MOL
REMARK 927      BINDING AFFINITY PREDICTED BY RF-SCORE:    0.00 PKD
ROOT
HETATM    1 CA   UNL     1      -7.301  13.000  67.504  1.00  0.00    -0.085 Ca 
HETATM    2  O   UNL     2      -9.735  18.081  68.594  1.00  0.00    -0.326 OA 
HETATM    3  O   UNL     3      -8.911   7.322  65.333  1.00  0.00    -0.378 OA 
HETATM    4  H   UNL     2      -9.818  18.054  69.540  1.00  0.00     0.000 HD 
HETATM    5  C   UNL     2      -9.196  16.839  68.143  1.00  0.00    -0.224 C  
HETATM    6  C   UNL     3      -8.716   8.035  66.551  1.00  0.00    -0.146 C  
HETATM    7  H   UNL     3      -8.406   6.517  65.339  1.00  0.00     0.000 HD 
ENDROOT
BRANCH   5   8
HETATM    8  C   UNL     2      -9.061  16.881  66.607  1.00  0.00    -0.255 C  
HETATM    9  O   UNL     2      -8.449  15.668  66.183  1.00  0.00    -0.374 OA 
HETATM   10  H   UNL     2      -8.366  15.694  65.237  1.00  0.00     0.000 HD 
BRANCH   8  11
HETATM   11  C   UNL     2     -10.437  16.984  65.928  1.00  0.00    -0.274 C  
HETATM   12  H   UNL     2     -11.553  18.365  64.986  1.00  0.00     0.000 HD 
HETATM   13  O   UNL     2     -10.703  18.301  65.406  1.00  0.00    -0.610 OA 
BRANCH  11  14
HETATM   14  C   UNL     2     -10.845  15.934  64.865  1.00  0.00    -0.400 C  
HETATM   15  O   UNL     2     -11.566  16.559  63.816  1.00  0.00    -1.617 OA 
HETATM   16  H   UNL     2     -11.817  15.915  63.164  1.00  0.00     0.000 HD 
BRANCH  14  17
HETATM   17  C   UNL     2     -11.438  14.600  65.358  1.00  0.00    -0.352 C  
HETATM   18  H   UNL     2     -12.279  13.985  67.011  1.00  0.00     0.000 HD 
HETATM   19  O   UNL     2     -11.914  14.809  66.707  1.00  0.00    -0.327 OA 
BRANCH  17  20
HETATM   20  C   UNL     2     -12.512  13.976  64.469  1.00  0.00    -0.308 C  
HETATM   21  O   UNL     2     -12.394  14.426  63.101  1.00  0.00    -1.014 OA 
HETATM   22  C   UNL     2     -12.329  12.433  64.526  1.00  0.00    -0.438 C  
HETATM   23  H   UNL     2     -13.062  14.038  62.548  1.00  0.00     0.000 HD 
HETATM   24  O   UNL     2     -12.044  11.989  65.670  1.00  0.00    -0.508 OA 
HETATM   25  O   UNL     2     -12.471  11.870  63.408  1.00  0.00    -0.578 OA 
ENDBRANCH  17  20
ENDBRANCH  14  17
ENDBRANCH  11  14
ENDBRANCH   8  11
ENDBRANCH   5   8
BRANCH   6  26
HETATM   26  C   UNL     3      -9.533   9.335  66.540  1.00  0.00    -0.202 C  
HETATM   27  H   UNL     3     -10.293  10.440  65.168  1.00  0.00     0.000 HD 
HETATM   28  O   UNL     3      -9.787   9.636  65.174  1.00  0.00    -0.295 OA 
BRANCH  26  29
HETATM   29  C   UNL     3     -10.824   9.225  67.394  1.00  0.00    -0.095 C  
HETATM   30  O   UNL     3     -11.141   7.781  67.613  1.00  0.00    -0.508 OA 
HETATM   31  H   UNL     3     -11.931   7.714  68.136  1.00  0.00     0.000 HD 
BRANCH  29  32
HETATM   32  C   UNL     3     -10.676   9.754  68.837  1.00  0.00    -0.217 C  
HETATM   33  H   UNL     3      -9.638  11.197  69.687  1.00  0.00     0.000 HD 
HETATM   34  O   UNL     3      -9.728  10.871  68.799  1.00  0.00    -0.179 OA 
BRANCH  32  35
HETATM   35  C   UNL     3     -10.582   8.876  70.095  1.00  0.00    -0.222 C  
HETATM   36  H   UNL     3      -9.316   8.708  71.547  1.00  0.00     0.000 HD 
HETATM   37  O   UNL     3      -9.374   9.251  70.769  1.00  0.00    -0.241 OA 
BRANCH  35  38
HETATM   38  C   UNL     3     -11.790   8.881  71.026  1.00  0.00    -0.276 C  
HETATM   39  C   UNL     3     -12.421   7.466  71.109  1.00  0.00    -0.308 C  
HETATM   40  O   UNL     3     -12.793   9.806  70.563  1.00  0.00    -0.534 OA 
HETATM   41  O   UNL     3     -11.810   6.544  70.483  1.00  0.00    -0.392 OA 
HETATM   42  O   UNL     3     -13.587   7.459  71.592  1.00  0.00    -0.370 OA 
HETATM   43  H   UNL     3     -13.546   9.809  71.143  1.00  0.00     0.000 HD 
ENDBRANCH  35  38
ENDBRANCH  32  35
ENDBRANCH  29  32
ENDBRANCH  26  29
ENDBRANCH   6  26
TORSDOF 10
ENDMDL
MODEL       17
REMARK 921   NORMALIZED FREE ENERGY PREDICTED BY IDOCK:   -6.91 KCAL/MOL
REMARK 922        TOTAL FREE ENERGY PREDICTED BY IDOCK:  -13.45 KCAL/MOL
REMARK 923 INTER-LIGAND FREE ENERGY PREDICTED BY IDOCK:  -10.39 KCAL/MOL
REMARK 924 INTRA-LIGAND FREE ENERGY PREDICTED BY IDOCK:   -3.07 KCAL/MOL
REMARK 927      BINDING AFFINITY PREDICTED BY RF-SCORE:    0.00 PKD
ROOT
HETATM    1 CA   UNL     1     -13.157  10.116  68.979  1.00  0.00    -0.435 Ca 
HETATM    2  O   UNL     2     -11.087   7.558  73.679  1.00  0.00    -0.573 OA 
HETATM    3  O   UNL     3     -11.339  11.489  63.117  1.00  0.00    -0.790 OA 
HETATM    4  H   UNL     2     -10.868   8.305  74.224  1.00  0.00     0.000 HD 
HETATM    5  C   UNL     2     -11.563   8.029  72.419  1.00  0.00    -0.390 C  
HETATM    6  C   UNL     3     -11.427  12.061  64.419  1.00  0.00    -0.343 C  
HETATM    7  H   UNL     3     -11.760  12.056  62.481  1.00  0.00     0.000 HD 
ENDROOT
BRANCH   5   8
HETATM    8  C   UNL     2     -11.917   6.815  71.534  1.00  0.00    -0.350 C  
HETATM    9  O   UNL     2     -12.794   7.260  70.505  1.00  0.00    -0.590 OA 
HETATM   10  H   UNL     2     -13.012   6.512  69.960  1.00  0.00     0.000 HD 
BRANCH   8  11
HETATM   11  C   UNL     2     -10.664   6.223  70.870  1.00  0.00    -0.259 C  
HETATM   12  H   UNL     2      -9.665   4.480  70.820  1.00  0.00     0.000 HD 
HETATM   13  O   UNL     2     -10.440   4.846  71.231  1.00  0.00    -0.185 OA 
BRANCH  11  14
HETATM   14  C   UNL     2     -10.463   6.378  69.342  1.00  0.00    -0.228 C  
HETATM   15  O   UNL     2     -10.467   5.103  68.720  1.00  0.00    -0.148 OA 
HETATM   16  H   UNL     2     -10.343   5.198  67.782  1.00  0.00     0.000 HD 
BRANCH  14  17
HETATM   17  C   UNL     2      -9.364   7.339  68.851  1.00  0.00    -0.144 C  
HETATM   18  H   UNL     2      -8.058   7.323  67.398  1.00  0.00     0.000 HD 
HETATM   19  O   UNL     2      -8.737   6.730  67.700  1.00  0.00    -0.120 OA 
BRANCH  17  20
HETATM   20  C   UNL     2      -9.808   8.772  68.562  1.00  0.00    -0.168 C  
HETATM   21  O   UNL     2     -11.149   8.813  68.026  1.00  0.00    -0.477 OA 
HETATM   22  C   UNL     2      -9.760   9.556  69.904  1.00  0.00    -0.224 C  
HETATM   23  H   UNL     2     -11.425   9.704  67.846  1.00  0.00     0.000 HD 
HETATM   24  O   UNL     2      -8.768   9.279  70.629  1.00  0.00    -0.211 OA 
HETATM   25  O   UNL     2     -10.741  10.331  70.066  1.00  0.00    -0.272 OA 
ENDBRANCH  17  20
ENDBRANCH  14  17
ENDBRANCH  11  14
ENDBRANCH   8  11
ENDBRANCH   5   8
BRANCH   6  26
HETATM   26  C   UNL     3     -10.746  11.145  65.446  1.00  0.00    -0.192 C  
HETATM   27  H   UNL     3      -9.449   9.734  65.347  1.00  0.00     0.000 HD 
HETATM   28  O   UNL     3      -9.870  10.301  64.711  1.00  0.00    -0.307 OA 
BRANCH  26  29
HETATM   29  C   UNL     3     -10.031  11.946  66.566  1.00  0.00    -0.202 C  
HETATM   30  O   UNL     3      -9.480  13.209  65.984  1.00  0.00    -0.431 OA 
HETATM   31  H   UNL     3      -9.042  13.699  66.670  1.00  0.00     0.000 HD 
BRANCH  29  32
HETATM   32  C   UNL     3     -10.972  12.473  67.670  1.00  0.00    -0.242 C  
HETATM   33  H   UNL     3     -12.737  11.935  68.361  1.00  0.00     0.000 HD 
HETATM   34  O   UNL     3     -12.158  11.611  67.681  1.00  0.00    -0.615 OA 
BRANCH  32  35
HETATM   35  C   UNL     3     -11.254  13.956  67.958  1.00  0.00    -0.271 C  
HETATM   36  H   UNL     3     -12.108  15.393  66.985  1.00  0.00     0.000 HD 
HETATM   37  O   UNL     3     -11.934  14.476  66.808  1.00  0.00    -0.397 OA 
BRANCH  35  38
HETATM   38  C   UNL     3     -11.986  14.275  69.256  1.00  0.00    -0.335 C  
HETATM   39  C   UNL     3     -11.555  15.663  69.800  1.00  0.00    -0.352 C  
HETATM   40  O   UNL     3     -11.708  13.281  70.263  1.00  0.00    -0.502 OA 
HETATM   41  O   UNL     3     -10.758  16.327  69.065  1.00  0.00    -0.258 OA 
HETATM   42  O   UNL     3     -11.866  15.853  71.008  1.00  0.00    -0.374 OA 
HETATM   43  H   UNL     3     -12.164  13.480  71.072  1.00  0.00     0.000 HD 
ENDBRANCH  35  38
ENDBRANCH  32  35
ENDBRANCH  29  32
ENDBRANCH  26  29
ENDBRANCH   6  26
TORSDOF 10
ENDMDL
MODEL       18
REMARK 921   NORMALIZED FREE ENERGY PREDICTED BY IDOCK:   -6.91 KCAL/MOL
REMARK 922        TOTAL FREE ENERGY PREDICTED BY IDOCK:  -13.45 KCAL/MOL
REMARK 923 INTER-LIGAND FREE ENERGY PREDICTED BY IDOCK:  -10.84 KCAL/MOL
REMARK 924 INTRA-LIGAND FREE ENERGY PREDICTED BY IDOCK:   -2.60 KCAL/MOL
REMARK 927      BINDING AFFINITY PREDICTED BY RF-SCORE:    0.00 PKD
ROOT
HETATM    1 CA   UNL     1      -9.251  12.083  69.383  1.00  0.00    -0.376 Ca 
HETATM    2  O   UNL     2      -8.398  17.362  67.304  1.00  0.00    -0.201 OA 
HETATM    3  O   UNL     3     -14.013   8.389  71.180  1.00  0.00    -0.590 OA 
HETATM    4  H   UNL     2      -8.094  17.826  68.076  1.00  0.00     0.000 HD 
HETATM    5  C   UNL     2      -8.725  16.023  67.669  1.00  0.00    -0.173 C  
HETATM    6  C   UNL     3     -13.039   9.287  71.705  1.00  0.00    -0.400 C  
HETATM    7  H   UNL     3     -13.981   7.562  71.645  1.00  0.00     0.000 HD 
ENDROOT
BRANCH   5   8
HETATM    8  C   UNL     2      -9.219  15.270  66.415  1.00  0.00    -0.307 C  
HETATM    9  O   UNL     2      -9.484  13.921  66.785  1.00  0.00    -0.260 OA 
HETATM   10  H   UNL     2      -9.788  13.458  66.013  1.00  0.00     0.000 HD 
BRANCH   8  11
HETATM   11  C   UNL     2     -10.522  15.880  65.874  1.00  0.00    -0.359 C  
HETATM   12  H   UNL     2     -11.176  17.637  65.149  1.00  0.00     0.000 HD 
HETATM   13  O   UNL     2     -10.370  17.259  65.483  1.00  0.00    -0.614 OA 
BRANCH  11  14
HETATM   14  C   UNL     2     -11.318  15.134  64.775  1.00  0.00    -0.395 C  
HETATM   15  O   UNL     2     -11.796  16.057  63.810  1.00  0.00    -1.334 OA 
HETATM   16  H   UNL     2     -12.284  15.599  63.135  1.00  0.00     0.000 HD 
BRANCH  14  17
HETATM   17  C   UNL     2     -12.338  14.069  65.219  1.00  0.00    -0.465 C  
HETATM   18  H   UNL     2     -14.273  14.030  65.483  1.00  0.00     0.000 HD 
HETATM   19  O   UNL     2     -13.644  14.687  65.209  1.00  0.00    -0.110 OA 
BRANCH  17  20
HETATM   20  C   UNL     2     -12.325  12.760  64.430  1.00  0.00    -0.424 C  
HETATM   21  O   UNL     2     -11.700  12.926  63.139  1.00  0.00    -0.801 OA 
HETATM   22  C   UNL     2     -11.527  11.719  65.265  1.00  0.00    -0.186 C  
HETATM   23  H   UNL     2     -11.692  12.113  62.649  1.00  0.00     0.000 HD 
HETATM   24  O   UNL     2     -11.748  11.770  66.504  1.00  0.00    -0.530 OA 
HETATM   25  O   UNL     2     -10.760  11.001  64.568  1.00  0.00    -0.341 OA 
ENDBRANCH  17  20
ENDBRANCH  14  17
ENDBRANCH  11  14
ENDBRANCH   8  11
ENDBRANCH   5   8
BRANCH   6  26
HETATM   26  C   UNL     3     -13.092  10.625  70.954  1.00  0.00    -0.256 C  
HETATM   27  H   UNL     3     -12.880  12.465  71.456  1.00  0.00     0.000 HD 
HETATM   28  O   UNL     3     -12.847  11.637  71.922  1.00  0.00    -0.364 OA 
BRANCH  26  29
HETATM   29  C   UNL     3     -12.103  10.667  69.759  1.00  0.00    -0.272 C  
HETATM   30  O   UNL     3     -11.372  11.972  69.779  1.00  0.00    -0.447 OA 
HETATM   31  H   UNL     3     -10.767  11.998  69.047  1.00  0.00     0.000 HD 
BRANCH  29  32
HETATM   32  C   UNL     3     -10.952   9.642  69.851  1.00  0.00    -0.252 C  
HETATM   33  H   UNL     3      -9.245   9.556  70.829  1.00  0.00     0.000 HD 
HETATM   34  O   UNL     3      -9.953  10.188  70.772  1.00  0.00     0.072 OA 
BRANCH  32  35
HETATM   35  C   UNL     3     -10.371   8.858  68.664  1.00  0.00    -0.204 C  
HETATM   36  H   UNL     3      -8.959   9.179  67.381  1.00  0.00     0.000 HD 
HETATM   37  O   UNL     3      -9.319   9.664  68.115  1.00  0.00    -0.133 OA 
BRANCH  35  38
HETATM   38  C   UNL     3      -9.920   7.428  68.941  1.00  0.00    -0.169 C  
HETATM   39  C   UNL     3     -10.435   6.468  67.837  1.00  0.00    -0.222 C  
HETATM   40  O   UNL     3     -10.414   6.971  70.216  1.00  0.00    -0.201 OA 
HETATM   41  O   UNL     3     -11.053   7.012  66.869  1.00  0.00    -0.359 OA 
HETATM   42  O   UNL     3     -10.379   5.249  68.158  1.00  0.00    -0.169 OA 
HETATM   43  H   UNL     3     -10.133   6.079  70.389  1.00  0.00     0.000 HD 
ENDBRANCH  35  38
ENDBRANCH  32  35
ENDBRANCH  29  32
ENDBRANCH  26  29
ENDBRANCH   6  26
TORSDOF 10
ENDMDL
MODEL       19
REMARK 921   NORMALIZED FREE ENERGY PREDICTED BY IDOCK:   -6.91 KCAL/MOL
REMARK 922        TOTAL FREE ENERGY PREDICTED BY IDOCK:  -13.45 KCAL/MOL
REMARK 923 INTER-LIGAND FREE ENERGY PREDICTED BY IDOCK:   -9.70 KCAL/MOL
REMARK 924 INTRA-LIGAND FREE ENERGY PREDICTED BY IDOCK:   -3.74 KCAL/MOL
REMARK 927      BINDING AFFINITY PREDICTED BY RF-SCORE:    0.00 PKD
ROOT
HETATM    1 CA   UNL     1      -9.114  12.638  69.553  1.00  0.00    -0.331 Ca 
HETATM    2  O   UNL     2     -13.750  15.909  70.406  1.00  0.00    -0.565 OA 
HETATM    3  O   UNL     3      -6.815   8.674  65.245  1.00  0.00    -0.070 OA 
HETATM    4  H   UNL     2     -14.238  15.390  71.034  1.00  0.00     0.000 HD 
HETATM    5  C   UNL     2     -12.575  15.193  70.029  1.00  0.00    -0.225 C  
HETATM    6  C   UNL     3      -7.545   8.689  66.469  1.00  0.00    -0.088 C  
HETATM    7  H   UNL     3      -6.071   8.087  65.314  1.00  0.00     0.000 HD 
ENDROOT
BRANCH   5   8
HETATM    8  C   UNL     2     -11.782  16.036  69.008  1.00  0.00    -0.318 C  
HETATM    9  O   UNL     2     -10.970  16.955  69.730  1.00  0.00    -0.400 OA 
HETATM   10  H   UNL     2     -10.482  17.474  69.102  1.00  0.00     0.000 HD 
BRANCH   8  11
HETATM   11  C   UNL     2     -10.859  15.154  68.152  1.00  0.00    -0.266 C  
HETATM   12  H   UNL     2      -9.509  13.689  68.413  1.00  0.00     0.000 HD 
HETATM   13  O   UNL     2     -10.080  14.234  68.942  1.00  0.00    -0.226 OA 
BRANCH  11  14
HETATM   14  C   UNL     2     -11.440  14.397  66.932  1.00  0.00    -0.366 C  
HETATM   15  O   UNL     2     -11.989  13.157  67.346  1.00  0.00    -0.365 OA 
HETATM   16  H   UNL     2     -12.345  12.693  66.597  1.00  0.00     0.000 HD 
BRANCH  14  17
HETATM   17  C   UNL     2     -10.591  14.338  65.648  1.00  0.00    -0.319 C  
HETATM   18  H   UNL     2      -8.680  14.228  65.255  1.00  0.00     0.000 HD 
HETATM   19  O   UNL     2      -9.204  14.265  66.047  1.00  0.00    -0.167 OA 
BRANCH  17  20
HETATM   20  C   UNL     2     -10.954  13.233  64.656  1.00  0.00    -0.370 C  
HETATM   21  O   UNL     2     -10.827  11.924  65.253  1.00  0.00    -0.282 OA 
HETATM   22  C   UNL     2     -12.427  13.464  64.217  1.00  0.00    -0.257 C  
HETATM   23  H   UNL     2     -11.052  11.237  64.636  1.00  0.00     0.000 HD 
HETATM   24  O   UNL     2     -12.728  14.674  64.036  1.00  0.00    -0.772 OA 
HETATM   25  O   UNL     2     -13.098  12.401  64.136  1.00  0.00    -0.762 OA 
ENDBRANCH  17  20
ENDBRANCH  14  17
ENDBRANCH  11  14
ENDBRANCH   8  11
ENDBRANCH   5   8
BRANCH   6  26
HETATM   26  C   UNL     3      -8.747   9.638  66.357  1.00  0.00    -0.134 C  
HETATM   27  H   UNL     3     -10.514   9.498  65.621  1.00  0.00     0.000 HD 
HETATM   28  O   UNL     3      -9.770   8.911  65.690  1.00  0.00    -0.210 OA 
BRANCH  26  29
HETATM   29  C   UNL     3      -9.188  10.193  67.737  1.00  0.00    -0.137 C  
HETATM   30  O   UNL     3      -9.420  11.666  67.617  1.00  0.00    -0.172 OA 
HETATM   31  H   UNL     3      -9.690  12.005  68.462  1.00  0.00     0.000 HD 
BRANCH  29  32
HETATM   32  C   UNL     3     -10.563   9.679  68.217  1.00  0.00    -0.225 C  
HETATM   33  H   UNL     3     -12.433  10.199  67.880  1.00  0.00     0.000 HD 
HETATM   34  O   UNL     3     -11.587  10.515  67.585  1.00  0.00    -0.447 OA 
BRANCH  32  35
HETATM   35  C   UNL     3     -10.889   9.240  69.653  1.00  0.00    -0.212 C  
HETATM   36  H   UNL     3      -9.997   8.151  70.979  1.00  0.00     0.000 HD 
HETATM   37  O   UNL     3      -9.796   8.423  70.091  1.00  0.00    -0.178 OA 
BRANCH  35  38
HETATM   38  C   UNL     3     -11.222  10.345  70.649  1.00  0.00    -0.275 C  
HETATM   39  C   UNL     3     -12.521  10.007  71.426  1.00  0.00    -0.411 C  
HETATM   40  O   UNL     3     -11.405  11.607  69.976  1.00  0.00    -0.466 OA 
HETATM   41  O   UNL     3     -13.037   8.871  71.185  1.00  0.00    -0.236 OA 
HETATM   42  O   UNL     3     -13.027  10.997  72.024  1.00  0.00    -0.452 OA 
HETATM   43  H   UNL     3     -11.612  12.296  70.597  1.00  0.00     0.000 HD 
ENDBRANCH  35  38
ENDBRANCH  32  35
ENDBRANCH  29  32
ENDBRANCH  26  29
ENDBRANCH   6  26
TORSDOF 10
ENDMDL
MODEL       20
REMARK 921   NORMALIZED FREE ENERGY PREDICTED BY IDOCK:   -6.91 KCAL/MOL
REMARK 922        TOTAL FREE ENERGY PREDICTED BY IDOCK:  -13.45 KCAL/MOL
REMARK 923 INTER-LIGAND FREE ENERGY PREDICTED BY IDOCK:  -10.57 KCAL/MOL
REMARK 924 INTRA-LIGAND FREE ENERGY PREDICTED BY IDOCK:   -2.88 KCAL/MOL
REMARK 927      BINDING AFFINITY PREDICTED BY RF-SCORE:    0.00 PKD
ROOT
HETATM    1 CA   UNL     1      -8.079  11.480  68.182  1.00  0.00    -0.104 Ca 
HETATM    2  O   UNL     2      -7.214   7.227  71.934  1.00  0.00    -0.073 OA 
HETATM    3  O   UNL     3     -11.500  12.666  63.039  1.00  0.00    -0.763 OA 
HETATM    4  H   UNL     2      -6.378   6.881  71.643  1.00  0.00     0.000 HD 
HETATM    5  C   UNL     2      -7.615   8.271  71.049  1.00  0.00    -0.081 C  
HETATM    6  C   UNL     3     -10.204  12.230  63.440  1.00  0.00    -0.323 C  
HETATM    7  H   UNL     3     -11.429  13.393  62.432  1.00  0.00     0.000 HD 
ENDROOT
BRANCH   5   8
HETATM    8  C   UNL     2      -8.973   8.832  71.522  1.00  0.00    -0.236 C  
HETATM    9  O   UNL     2      -9.382   9.836  70.598  1.00  0.00    -0.325 OA 
HETATM   10  H   UNL     2     -10.218  10.181  70.890  1.00  0.00     0.000 HD 
BRANCH   8  11
HETATM   11  C   UNL     2     -10.052   7.738  71.545  1.00  0.00    -0.178 C  
HETATM   12  H   UNL     2     -10.197   5.773  71.943  1.00  0.00     0.000 HD 
HETATM   13  O   UNL     2      -9.530   6.450  71.929  1.00  0.00    -0.153 OA 
BRANCH  11  14
HETATM   14  C   UNL     2     -11.377   7.987  72.306  1.00  0.00    -0.353 C  
HETATM   15  O   UNL     2     -11.387   7.252  73.519  1.00  0.00    -0.564 OA 
HETATM   16  H   UNL     2     -12.200   7.405  73.986  1.00  0.00     0.000 HD 
BRANCH  14  17
HETATM   17  C   UNL     2     -12.692   7.936  71.504  1.00  0.00    -0.322 C  
HETATM   18  H   UNL     2     -14.070   6.589  71.187  1.00  0.00     0.000 HD 
HETATM   19  O   UNL     2     -13.259   6.619  71.682  1.00  0.00    -0.245 OA 
BRANCH  17  20
HETATM   20  C   UNL     2     -13.707   9.037  71.813  1.00  0.00    -0.419 C  
HETATM   21  O   UNL     2     -14.021   9.087  73.222  1.00  0.00    -1.205 OA 
HETATM   22  C   UNL     2     -13.079  10.389  71.372  1.00  0.00    -0.413 C  
HETATM   23  H   UNL     2     -14.652   9.771  73.414  1.00  0.00     0.000 HD 
HETATM   24  O   UNL     2     -12.438  10.332  70.289  1.00  0.00    -0.252 OA 
HETATM   25  O   UNL     2     -13.291  11.328  72.185  1.00  0.00    -0.457 OA 
ENDBRANCH  17  20
ENDBRANCH  14  17
ENDBRANCH  11  14
ENDBRANCH   8  11
ENDBRANCH   5   8
BRANCH   6  26
HETATM   26  C   UNL     3     -10.320  11.055  64.420  1.00  0.00    -0.358 C  
HETATM   27  H   UNL     3      -9.689   9.242  64.436  1.00  0.00     0.000 HD 
HETATM   28  O   UNL     3      -9.617   9.969  63.829  1.00  0.00    -0.280 OA 
BRANCH  26  29
HETATM   29  C   UNL     3      -9.805  11.419  65.838  1.00  0.00    -0.226 C  
HETATM   30  O   UNL     3      -8.311  11.354  65.844  1.00  0.00    -0.341 OA 
HETATM   31  H   UNL     3      -7.996  11.577  66.712  1.00  0.00     0.000 HD 
BRANCH  29  32
HETATM   32  C   UNL     3     -10.075  12.881  66.255  1.00  0.00    -0.276 C  
HETATM   33  H   UNL     3      -9.000  14.307  67.087  1.00  0.00     0.000 HD 
HETATM   34  O   UNL     3      -8.834  13.407  66.830  1.00  0.00    -0.220 OA 
BRANCH  32  35
HETATM   35  C   UNL     3     -11.360  13.383  66.931  1.00  0.00    -0.323 C  
HETATM   36  H   UNL     3     -13.247  13.273  66.521  1.00  0.00     0.000 HD 
HETATM   37  O   UNL     3     -12.452  12.962  66.103  1.00  0.00    -0.485 OA 
BRANCH  35  38
HETATM   38  C   UNL     3     -11.560  13.000  68.393  1.00  0.00    -0.335 C  
HETATM   39  C   UNL     3     -11.696  14.267  69.277  1.00  0.00    -0.321 C  
HETATM   40  O   UNL     3     -10.451  12.218  68.877  1.00  0.00    -0.351 OA 
HETATM   41  O   UNL     3     -11.705  15.379  68.661  1.00  0.00    -0.353 OA 
HETATM   42  O   UNL     3     -11.545  14.044  70.510  1.00  0.00    -0.230 OA 
HETATM   43  H   UNL     3     -10.576  11.979  69.788  1.00  0.00     0.000 HD 
ENDBRANCH  35  38
ENDBRANCH  32  35
ENDBRANCH  29  32
ENDBRANCH  26  29
ENDBRANCH   6  26
TORSDOF 10
ENDMDL
MODEL       21
REMARK 921   NORMALIZED FREE ENERGY PREDICTED BY IDOCK:   -6.89 KCAL/MOL
REMARK 922        TOTAL FREE ENERGY PREDICTED BY IDOCK:  -13.41 KCAL/MOL
REMARK 923 INTER-LIGAND FREE ENERGY PREDICTED BY IDOCK:  -10.39 KCAL/MOL
REMARK 924 INTRA-LIGAND FREE ENERGY PREDICTED BY IDOCK:   -3.02 KCAL/MOL
REMARK 927      BINDING AFFINITY PREDICTED BY RF-SCORE:    0.00 PKD
ROOT
HETATM    1 CA   UNL     1     -11.805  11.177  68.443  1.00  0.00    -0.221 Ca 
HETATM    2  O   UNL     2     -14.199   8.892  73.130  1.00  0.00    -1.144 OA 
HETATM    3  O   UNL     3      -7.175  15.152  66.921  1.00  0.00    -0.285 OA 
HETATM    4  H   UNL     2     -14.996   9.404  73.207  1.00  0.00     0.000 HD 
HETATM    5  C   UNL     2     -13.438   9.387  72.029  1.00  0.00    -0.449 C  
HETATM    6  C   UNL     3      -8.582  15.111  67.137  1.00  0.00    -0.223 C  
HETATM    7  H   UNL     3      -6.983  15.547  66.079  1.00  0.00     0.000 HD 
ENDROOT
BRANCH   5   8
HETATM    8  C   UNL     2     -12.143   8.555  71.904  1.00  0.00    -0.349 C  
HETATM    9  O   UNL     2     -12.506   7.180  71.841  1.00  0.00    -0.331 OA 
HETATM   10  H   UNL     2     -11.709   6.668  71.764  1.00  0.00     0.000 HD 
BRANCH   8  11
HETATM   11  C   UNL     2     -11.378   8.905  70.618  1.00  0.00    -0.259 C  
HETATM   12  H   UNL     2     -10.524  10.510  69.762  1.00  0.00     0.000 HD 
HETATM   13  O   UNL     2     -10.997  10.294  70.557  1.00  0.00    -0.307 OA 
BRANCH  11  14
HETATM   14  C   UNL     2     -10.169   8.037  70.187  1.00  0.00    -0.203 C  
HETATM   15  O   UNL     2      -8.996   8.833  70.128  1.00  0.00    -0.150 OA 
HETATM   16  H   UNL     2      -8.255   8.300  69.864  1.00  0.00     0.000 HD 
BRANCH  14  17
HETATM   17  C   UNL     2     -10.360   7.069  69.005  1.00  0.00    -0.200 C  
HETATM   18  H   UNL     2     -11.551   5.569  68.621  1.00  0.00     0.000 HD 
HETATM   19  O   UNL     2     -11.434   6.166  69.351  1.00  0.00    -0.423 OA 
BRANCH  17  20
HETATM   20  C   UNL     2     -10.582   7.716  67.638  1.00  0.00    -0.224 C  
HETATM   21  O   UNL     2     -10.853   9.130  67.761  1.00  0.00    -0.446 OA 
HETATM   22  C   UNL     2      -9.288   7.505  66.804  1.00  0.00    -0.165 C  
HETATM   23  H   UNL     2     -10.992   9.532  66.911  1.00  0.00     0.000 HD 
HETATM   24  O   UNL     2      -8.761   6.369  66.947  1.00  0.00    -0.112 OA 
HETATM   25  O   UNL     2      -8.954   8.518  66.133  1.00  0.00    -0.157 OA 
ENDBRANCH  17  20
ENDBRANCH  14  17
ENDBRANCH  11  14
ENDBRANCH   8  11
ENDBRANCH   5   8
BRANCH   6  26
HETATM   26  C   UNL     3      -8.891  14.472  68.498  1.00  0.00    -0.182 C  
HETATM   27  H   UNL     3      -9.500  15.133  70.194  1.00  0.00     0.000 HD 
HETATM   28  O   UNL     3      -9.309  15.529  69.352  1.00  0.00    -0.254 OA 
BRANCH  26  29
HETATM   29  C   UNL     3      -9.931  13.326  68.388  1.00  0.00    -0.226 C  
HETATM   30  O   UNL     3     -10.783  13.322  69.617  1.00  0.00    -0.430 OA 
HETATM   31  H   UNL     3     -11.420  12.620  69.549  1.00  0.00     0.000 HD 
BRANCH  29  32
HETATM   32  C   UNL     3     -10.972  13.520  67.264  1.00  0.00    -0.280 C  
HETATM   33  H   UNL     3     -12.915  13.841  67.213  1.00  0.00     0.000 HD 
HETATM   34  O   UNL     3     -12.274  13.721  67.904  1.00  0.00    -0.327 OA 
BRANCH  32  35
HETATM   35  C   UNL     3     -11.018  12.717  65.954  1.00  0.00    -0.278 C  
HETATM   36  H   UNL     3     -10.513  10.922  65.439  1.00  0.00     0.000 HD 
HETATM   37  O   UNL     3     -10.484  11.419  66.249  1.00  0.00    -0.239 OA 
BRANCH  35  38
HETATM   38  C   UNL     3     -12.365  12.641  65.244  1.00  0.00    -0.466 C  
HETATM   39  C   UNL     3     -12.189  12.128  63.791  1.00  0.00    -0.531 C  
HETATM   40  O   UNL     3     -12.998  13.935  65.201  1.00  0.00    -0.744 OA 
HETATM   41  O   UNL     3     -11.011  11.783  63.460  1.00  0.00    -0.396 OA 
HETATM   42  O   UNL     3     -13.190  12.339  63.053  1.00  0.00    -0.392 OA 
HETATM   43  H   UNL     3     -13.838  13.888  64.758  1.00  0.00     0.000 HD 
ENDBRANCH  35  38
ENDBRANCH  32  35
ENDBRANCH  29  32
ENDBRANCH  26  29
ENDBRANCH   6  26
TORSDOF 10
ENDMDL
MODEL       22
REMARK 921   NORMALIZED FREE ENERGY PREDICTED BY IDOCK:   -6.88 KCAL/MOL
REMARK 922        TOTAL FREE ENERGY PREDICTED BY IDOCK:  -13.40 KCAL/MOL
REMARK 923 INTER-LIGAND FREE ENERGY PREDICTED BY IDOCK:  -10.14 KCAL/MOL
REMARK 924 INTRA-LIGAND FREE ENERGY PREDICTED BY IDOCK:   -3.26 KCAL/MOL
REMARK 927      BINDING AFFINITY PREDICTED BY RF-SCORE:    0.00 PKD
ROOT
HETATM    1 CA   UNL     1     -13.179  14.334  68.648  1.00  0.00    -0.483 Ca 
HETATM    2  O   UNL     2     -13.106  10.031  72.443  1.00  0.00    -0.497 OA 
HETATM    3  O   UNL     3      -9.195  18.435  66.028  1.00  0.00    -0.505 OA 
HETATM    4  H   UNL     2     -13.473  10.449  73.214  1.00  0.00     0.000 HD 
HETATM    5  C   UNL     2     -12.990  11.001  71.404  1.00  0.00    -0.414 C  
HETATM    6  C   UNL     3     -10.134  18.318  67.094  1.00  0.00    -0.356 C  
HETATM    7  H   UNL     3      -9.391  19.200  65.500  1.00  0.00     0.000 HD 
ENDROOT
BRANCH   5   8
HETATM    8  C   UNL     2     -12.393  10.323  70.152  1.00  0.00    -0.142 C  
HETATM    9  O   UNL     2     -12.659  11.156  69.029  1.00  0.00    -0.518 OA 
HETATM   10  H   UNL     2     -12.292  10.739  68.258  1.00  0.00     0.000 HD 
BRANCH   8  11
HETATM   11  C   UNL     2     -10.869  10.164  70.277  1.00  0.00    -0.310 C  
HETATM   12  H   UNL     2      -9.547   8.839  71.008  1.00  0.00     0.000 HD 
HETATM   13  O   UNL     2     -10.489   8.937  70.931  1.00  0.00    -0.205 OA 
BRANCH  11  14
HETATM   14  C   UNL     2      -9.975  10.361  69.028  1.00  0.00    -0.214 C  
HETATM   15  O   UNL     2      -9.865  11.741  68.721  1.00  0.00    -0.327 OA 
HETATM   16  H   UNL     2      -9.316  11.862  67.954  1.00  0.00     0.000 HD 
BRANCH  14  17
HETATM   17  C   UNL     2     -10.215   9.441  67.815  1.00  0.00    -0.222 C  
HETATM   18  H   UNL     2     -10.312   9.697  65.881  1.00  0.00     0.000 HD 
HETATM   19  O   UNL     2     -10.164  10.265  66.629  1.00  0.00    -0.220 OA 
BRANCH  17  20
HETATM   20  C   UNL     2      -9.292   8.228  67.703  1.00  0.00    -0.137 C  
HETATM   21  O   UNL     2      -8.424   8.115  68.851  1.00  0.00    -0.127 OA 
HETATM   22  C   UNL     2     -10.192   6.964  67.604  1.00  0.00    -0.185 C  
HETATM   23  H   UNL     2      -7.850   7.361  68.781  1.00  0.00     0.000 HD 
HETATM   24  O   UNL     2     -11.217   7.114  66.888  1.00  0.00    -0.243 OA 
HETATM   25  O   UNL     2      -9.764   5.991  68.281  1.00  0.00    -0.119 OA 
ENDBRANCH  17  20
ENDBRANCH  14  17
ENDBRANCH  11  14
ENDBRANCH   8  11
ENDBRANCH   5   8
BRANCH   6  26
HETATM   26  C   UNL     3      -9.816  17.081  67.946  1.00  0.00    -0.269 C  
HETATM   27  H   UNL     3     -10.703  16.168  69.382  1.00  0.00     0.000 HD 
HETATM   28  O   UNL     3     -10.899  16.933  68.855  1.00  0.00    -0.321 OA 
BRANCH  26  29
HETATM   29  C   UNL     3      -9.566  15.819  67.080  1.00  0.00    -0.226 C  
HETATM   30  O   UNL     3      -8.903  14.775  67.922  1.00  0.00    -0.160 OA 
HETATM   31  H   UNL     3      -8.750  14.002  67.391  1.00  0.00     0.000 HD 
BRANCH  29  32
HETATM   32  C   UNL     3     -10.852  15.102  66.615  1.00  0.00    -0.318 C  
HETATM   33  H   UNL     3     -11.885  13.552  67.256  1.00  0.00     0.000 HD 
HETATM   34  O   UNL     3     -11.093  13.993  67.542  1.00  0.00    -0.285 OA 
BRANCH  32  35
HETATM   35  C   UNL     3     -11.221  14.809  65.153  1.00  0.00    -0.382 C  
HETATM   36  H   UNL     3     -11.327  15.867  63.537  1.00  0.00     0.000 HD 
HETATM   37  O   UNL     3     -11.099  16.048  64.442  1.00  0.00    -0.560 OA 
BRANCH  35  38
HETATM   38  C   UNL     3     -10.466  13.673  64.470  1.00  0.00    -0.390 C  
HETATM   39  C   UNL     3     -11.452  12.719  63.747  1.00  0.00    -0.470 C  
HETATM   40  O   UNL     3      -9.708  12.909  65.429  1.00  0.00    -0.455 OA 
HETATM   41  O   UNL     3     -12.675  13.065  63.761  1.00  0.00    -0.686 OA 
HETATM   42  O   UNL     3     -10.946  11.605  63.438  1.00  0.00    -0.397 OA 
HETATM   43  H   UNL     3      -9.237  12.202  65.003  1.00  0.00     0.000 HD 
ENDBRANCH  35  38
ENDBRANCH  32  35
ENDBRANCH  29  32
ENDBRANCH  26  29
ENDBRANCH   6  26
TORSDOF 10
ENDMDL
MODEL       23
REMARK 921   NORMALIZED FREE ENERGY PREDICTED BY IDOCK:   -6.87 KCAL/MOL
REMARK 922        TOTAL FREE ENERGY PREDICTED BY IDOCK:  -13.39 KCAL/MOL
REMARK 923 INTER-LIGAND FREE ENERGY PREDICTED BY IDOCK:  -10.29 KCAL/MOL
REMARK 924 INTRA-LIGAND FREE ENERGY PREDICTED BY IDOCK:   -3.10 KCAL/MOL
REMARK 927      BINDING AFFINITY PREDICTED BY RF-SCORE:    0.00 PKD
ROOT
HETATM    1 CA   UNL     1     -12.716  12.061  68.772  1.00  0.00    -0.219 Ca 
HETATM    2  O   UNL     2     -14.059   8.756  73.266  1.00  0.00    -1.180 OA 
HETATM    3  O   UNL     3      -8.046  15.808  66.849  1.00  0.00    -0.212 OA 
HETATM    4  H   UNL     2     -14.688   9.302  73.725  1.00  0.00     0.000 HD 
HETATM    5  C   UNL     2     -13.565   9.471  72.135  1.00  0.00    -0.424 C  
HETATM    6  C   UNL     3      -9.313  15.850  67.498  1.00  0.00    -0.217 C  
HETATM    7  H   UNL     3      -8.031  16.412  66.117  1.00  0.00     0.000 HD 
ENDROOT
BRANCH   5   8
HETATM    8  C   UNL     2     -12.544   8.585  71.391  1.00  0.00    -0.283 C  
HETATM    9  O   UNL     2     -13.258   7.535  70.746  1.00  0.00    -0.580 OA 
HETATM   10  H   UNL     2     -12.629   6.989  70.288  1.00  0.00     0.000 HD 
BRANCH   8  11
HETATM   11  C   UNL     2     -11.794   9.383  70.312  1.00  0.00    -0.018 C  
HETATM   12  H   UNL     2     -10.943  11.190  70.094  1.00  0.00     0.000 HD 
HETATM   13  O   UNL     2     -11.407  10.697  70.761  1.00  0.00    -0.301 OA 
BRANCH  11  14
HETATM   14  C   UNL     2     -10.596   8.734  69.575  1.00  0.00    -0.219 C  
HETATM   15  O   UNL     2     -10.954   8.436  68.235  1.00  0.00    -0.447 OA 
HETATM   16  H   UNL     2     -10.219   8.037  67.783  1.00  0.00     0.000 HD 
BRANCH  14  17
HETATM   17  C   UNL     2      -9.815   7.623  70.304  1.00  0.00    -0.180 C  
HETATM   18  H   UNL     2      -8.741   6.091  69.745  1.00  0.00     0.000 HD 
HETATM   19  O   UNL     2      -9.223   6.776  69.295  1.00  0.00    -0.142 OA 
BRANCH  17  20
HETATM   20  C   UNL     2      -8.782   8.093  71.328  1.00  0.00    -0.145 C  
HETATM   21  O   UNL     2      -8.581   9.522  71.259  1.00  0.00    -0.307 OA 
HETATM   22  C   UNL     2      -9.314   7.710  72.738  1.00  0.00    -0.182 C  
HETATM   23  H   UNL     2      -7.938   9.813  71.895  1.00  0.00     0.000 HD 
HETATM   24  O   UNL     2      -9.867   6.580  72.792  1.00  0.00    -0.167 OA 
HETATM   25  O   UNL     2      -9.128   8.607  73.603  1.00  0.00    -0.102 OA 
ENDBRANCH  17  20
ENDBRANCH  14  17
ENDBRANCH  11  14
ENDBRANCH   8  11
ENDBRANCH   5   8
BRANCH   6  26
HETATM   26  C   UNL     3      -9.336  14.874  68.682  1.00  0.00    -0.194 C  
HETATM   27  H   UNL     3     -10.046  14.928  70.464  1.00  0.00     0.000 HD 
HETATM   28  O   UNL     3     -10.032  15.533  69.732  1.00  0.00    -0.274 OA 
BRANCH  26  29
HETATM   29  C   UNL     3      -9.954  13.502  68.302  1.00  0.00    -0.237 C  
HETATM   30  O   UNL     3     -10.745  12.987  69.462  1.00  0.00    -0.435 OA 
HETATM   31  H   UNL     3     -11.123  12.148  69.229  1.00  0.00     0.000 HD 
BRANCH  29  32
HETATM   32  C   UNL     3     -11.016  13.574  67.183  1.00  0.00    -0.291 C  
HETATM   33  H   UNL     3     -12.846  14.291  67.051  1.00  0.00     0.000 HD 
HETATM   34  O   UNL     3     -12.193  14.246  67.740  1.00  0.00    -0.325 OA 
BRANCH  32  35
HETATM   35  C   UNL     3     -11.332  12.443  66.192  1.00  0.00    -0.352 C  
HETATM   36  H   UNL     3     -11.634  10.539  66.350  1.00  0.00     0.000 HD 
HETATM   37  O   UNL     3     -11.439  11.239  66.962  1.00  0.00    -0.455 OA 
BRANCH  35  38
HETATM   38  C   UNL     3     -12.532  12.651  65.275  1.00  0.00    -0.416 C  
HETATM   39  C   UNL     3     -12.261  12.043  63.874  1.00  0.00    -0.453 C  
HETATM   40  O   UNL     3     -12.823  14.054  65.118  1.00  0.00    -0.696 OA 
HETATM   41  O   UNL     3     -11.163  11.417  63.740  1.00  0.00    -0.399 OA 
HETATM   42  O   UNL     3     -13.057  12.448  62.982  1.00  0.00    -0.442 OA 
HETATM   43  H   UNL     3     -13.571  14.184  64.546  1.00  0.00     0.000 HD 
ENDBRANCH  35  38
ENDBRANCH  32  35
ENDBRANCH  29  32
ENDBRANCH  26  29
ENDBRANCH   6  26
TORSDOF 10
ENDMDL
MODEL       24
REMARK 921   NORMALIZED FREE ENERGY PREDICTED BY IDOCK:   -6.87 KCAL/MOL
REMARK 922        TOTAL FREE ENERGY PREDICTED BY IDOCK:  -13.39 KCAL/MOL
REMARK 923 INTER-LIGAND FREE ENERGY PREDICTED BY IDOCK:  -10.89 KCAL/MOL
REMARK 924 INTRA-LIGAND FREE ENERGY PREDICTED BY IDOCK:   -2.50 KCAL/MOL
REMARK 927      BINDING AFFINITY PREDICTED BY RF-SCORE:    0.00 PKD
ROOT
HETATM    1 CA   UNL     1      -9.596  11.409  70.189  1.00  0.00    -0.297 Ca 
HETATM    2  O   UNL     2      -9.775   8.294  65.373  1.00  0.00    -0.241 OA 
HETATM    3  O   UNL     3     -13.291  15.285  73.487  1.00  0.00    -0.562 OA 
HETATM    4  H   UNL     2      -9.263   8.830  64.779  1.00  0.00     0.000 HD 
HETATM    5  C   UNL     2      -9.887   8.970  66.624  1.00  0.00    -0.248 C  
HETATM    6  C   UNL     3     -12.253  15.296  72.512  1.00  0.00    -0.390 C  
HETATM    7  H   UNL     3     -13.061  15.847  74.218  1.00  0.00     0.000 HD 
ENDROOT
BRANCH   5   8
HETATM    8  C   UNL     2     -10.718   8.099  67.590  1.00  0.00    -0.133 C  
HETATM    9  O   UNL     2     -10.852   6.804  67.013  1.00  0.00    -0.340 OA 
HETATM   10  H   UNL     2     -11.364   6.268  67.608  1.00  0.00     0.000 HD 
BRANCH   8  11
HETATM   11  C   UNL     2     -10.015   7.945  68.949  1.00  0.00    -0.190 C  
HETATM   12  H   UNL     2      -8.821   9.018  70.157  1.00  0.00     0.000 HD 
HETATM   13  O   UNL     2      -9.256   9.113  69.317  1.00  0.00    -0.141 OA 
BRANCH  11  14
HETATM   14  C   UNL     2     -10.825   7.467  70.179  1.00  0.00    -0.249 C  
HETATM   15  O   UNL     2     -11.900   6.640  69.762  1.00  0.00    -0.640 OA 
HETATM   16  H   UNL     2     -12.397   6.347  70.517  1.00  0.00     0.000 HD 
BRANCH  14  17
HETATM   17  C   UNL     2     -11.185   8.508  71.256  1.00  0.00    -0.265 C  
HETATM   18  H   UNL     2     -12.354  10.071  71.337  1.00  0.00     0.000 HD 
HETATM   19  O   UNL     2     -12.132   9.428  70.672  1.00  0.00    -0.239 OA 
BRANCH  17  20
HETATM   20  C   UNL     2     -11.685   7.948  72.587  1.00  0.00    -0.341 C  
HETATM   21  O   UNL     2     -12.685   6.924  72.388  1.00  0.00    -0.510 OA 
HETATM   22  C   UNL     2     -10.461   7.343  73.330  1.00  0.00    -0.368 C  
HETATM   23  H   UNL     2     -12.996   6.576  73.215  1.00  0.00     0.000 HD 
HETATM   24  O   UNL     2      -9.406   8.023  73.227  1.00  0.00    -0.268 OA 
HETATM   25  O   UNL     2     -10.714   6.248  73.901  1.00  0.00    -0.249 OA 
ENDBRANCH  17  20
ENDBRANCH  14  17
ENDBRANCH  11  14
ENDBRANCH   8  11
ENDBRANCH   5   8
BRANCH   6  26
HETATM   26  C   UNL     3     -12.624  14.387  71.332  1.00  0.00    -0.354 C  
HETATM   27  H   UNL     3     -14.269  13.691  70.630  1.00  0.00     0.000 HD 
HETATM   28  O   UNL     3     -14.039  14.253  71.360  1.00  0.00    -0.339 OA 
BRANCH  26  29
HETATM   29  C   UNL     3     -12.087  14.928  69.980  1.00  0.00    -0.338 C  
HETATM   30  O   UNL     3     -10.672  15.377  70.164  1.00  0.00    -0.286 OA 
HETATM   31  H   UNL     3     -10.344  15.708  69.337  1.00  0.00     0.000 HD 
BRANCH  29  32
HETATM   32  C   UNL     3     -11.954  13.857  68.876  1.00  0.00    -0.358 C  
HETATM   33  H   UNL     3     -11.038  12.119  68.733  1.00  0.00     0.000 HD 
HETATM   34  O   UNL     3     -11.119  12.779  69.412  1.00  0.00    -0.179 OA 
BRANCH  32  35
HETATM   35  C   UNL     3     -11.743  14.150  67.382  1.00  0.00    -0.391 C  
HETATM   36  H   UNL     3     -10.400  15.088  66.355  1.00  0.00     0.000 HD 
HETATM   37  O   UNL     3     -10.530  14.907  67.279  1.00  0.00    -0.257 OA 
BRANCH  35  38
HETATM   38  C   UNL     3     -11.760  12.951  66.440  1.00  0.00    -0.395 C  
HETATM   39  C   UNL     3     -12.785  13.169  65.297  1.00  0.00    -0.394 C  
HETATM   40  O   UNL     3     -12.110  11.745  67.147  1.00  0.00    -0.592 OA 
HETATM   41  O   UNL     3     -13.364  14.300  65.274  1.00  0.00    -0.660 OA 
HETATM   42  O   UNL     3     -13.084  12.112  64.675  1.00  0.00    -0.673 OA 
HETATM   43  H   UNL     3     -12.121  10.998  66.560  1.00  0.00     0.000 HD 
ENDBRANCH  35  38
ENDBRANCH  32  35
ENDBRANCH  29  32
ENDBRANCH  26  29
ENDBRANCH   6  26
TORSDOF 10
ENDMDL
MODEL       25
REMARK 921   NORMALIZED FREE ENERGY PREDICTED BY IDOCK:   -6.86 KCAL/MOL
REMARK 922        TOTAL FREE ENERGY PREDICTED BY IDOCK:  -13.37 KCAL/MOL
REMARK 923 INTER-LIGAND FREE ENERGY PREDICTED BY IDOCK:  -10.76 KCAL/MOL
REMARK 924 INTRA-LIGAND FREE ENERGY PREDICTED BY IDOCK:   -2.60 KCAL/MOL
REMARK 927      BINDING AFFINITY PREDICTED BY RF-SCORE:    0.00 PKD
ROOT
HETATM    1 CA   UNL     1      -8.027  11.116  70.036  1.00  0.00    -0.336 Ca 
HETATM    2  O   UNL     2      -8.888   5.444  70.147  1.00  0.00    -0.122 OA 
HETATM    3  O   UNL     3     -11.358  16.441  70.354  1.00  0.00    -0.458 OA 
HETATM    4  H   UNL     2      -8.803   5.219  69.227  1.00  0.00     0.000 HD 
HETATM    5  C   UNL     2      -8.764   6.858  70.289  1.00  0.00    -0.144 C  
HETATM    6  C   UNL     3     -10.777  15.545  69.411  1.00  0.00    -0.251 C  
HETATM    7  H   UNL     3     -11.075  17.331  70.179  1.00  0.00     0.000 HD 
ENDROOT
BRANCH   5   8
HETATM    8  C   UNL     2      -8.902   7.224  71.783  1.00  0.00    -0.116 C  
HETATM    9  O   UNL     2      -7.609   7.558  72.276  1.00  0.00    -0.080 OA 
HETATM   10  H   UNL     2      -7.693   7.783  73.196  1.00  0.00     0.000 HD 
BRANCH   8  11
HETATM   11  C   UNL     2      -9.817   8.444  71.977  1.00  0.00    -0.284 C  
HETATM   12  H   UNL     2     -10.417  10.057  70.941  1.00  0.00     0.000 HD 
HETATM   13  O   UNL     2      -9.852   9.303  70.821  1.00  0.00    -0.243 OA 
BRANCH  11  14
HETATM   14  C   UNL     2     -11.263   8.240  72.492  1.00  0.00    -0.376 C  
HETATM   15  O   UNL     2     -11.325   7.095  73.326  1.00  0.00    -0.557 OA 
HETATM   16  H   UNL     2     -12.213   6.970  73.642  1.00  0.00     0.000 HD 
BRANCH  14  17
HETATM   17  C   UNL     2     -12.416   8.372  71.479  1.00  0.00    -0.312 C  
HETATM   18  H   UNL     2     -13.539   7.119  70.488  1.00  0.00     0.000 HD 
HETATM   19  O   UNL     2     -12.827   7.037  71.113  1.00  0.00    -0.374 OA 
BRANCH  17  20
HETATM   20  C   UNL     2     -13.601   9.229  71.923  1.00  0.00    -0.427 C  
HETATM   21  O   UNL     2     -13.928   9.003  73.311  1.00  0.00    -1.205 OA 
HETATM   22  C   UNL     2     -13.204  10.718  71.717  1.00  0.00    -0.418 C  
HETATM   23  H   UNL     2     -14.665   9.536  73.587  1.00  0.00     0.000 HD 
HETATM   24  O   UNL     2     -12.557  10.939  70.660  1.00  0.00    -0.331 OA 
HETATM   25  O   UNL     2     -13.574  11.469  72.659  1.00  0.00     0.138 OA 
ENDBRANCH  17  20
ENDBRANCH  14  17
ENDBRANCH  11  14
ENDBRANCH   8  11
ENDBRANCH   5   8
BRANCH   6  26
HETATM   26  C   UNL     3     -11.234  14.107  69.695  1.00  0.00    -0.191 C  
HETATM   27  H   UNL     3     -12.935  13.260  69.964  1.00  0.00     0.000 HD 
HETATM   28  O   UNL     3     -12.652  14.149  69.789  1.00  0.00    -0.294 OA 
BRANCH  26  29
HETATM   29  C   UNL     3     -10.719  13.105  68.629  1.00  0.00    -0.250 C  
HETATM   30  O   UNL     3     -10.341  11.826  69.306  1.00  0.00    -0.421 OA 
HETATM   31  H   UNL     3     -10.026  11.213  68.652  1.00  0.00     0.000 HD 
BRANCH  29  32
HETATM   32  C   UNL     3     -11.795  12.641  67.623  1.00  0.00    -0.329 C  
HETATM   33  H   UNL     3     -12.573  10.900  67.129  1.00  0.00     0.000 HD 
HETATM   34  O   UNL     3     -11.911  11.185  67.747  1.00  0.00    -0.630 OA 
BRANCH  32  35
HETATM   35  C   UNL     3     -11.957  13.177  66.192  1.00  0.00    -0.422 C  
HETATM   36  H   UNL     3     -12.318  14.915  65.422  1.00  0.00     0.000 HD 
HETATM   37  O   UNL     3     -12.218  14.582  66.307  1.00  0.00    -0.359 OA 
BRANCH  35  38
HETATM   38  C   UNL     3     -10.825  12.878  65.216  1.00  0.00    -0.292 C  
HETATM   39  C   UNL     3     -11.390  12.516  63.817  1.00  0.00    -0.466 C  
HETATM   40  O   UNL     3     -10.019  11.778  65.683  1.00  0.00    -0.227 OA 
HETATM   41  O   UNL     3     -12.651  12.606  63.685  1.00  0.00    -0.678 OA 
HETATM   42  O   UNL     3     -10.551  11.954  63.060  1.00  0.00    -0.309 OA 
HETATM   43  H   UNL     3      -9.313  11.591  65.075  1.00  0.00     0.000 HD 
ENDBRANCH  35  38
ENDBRANCH  32  35
ENDBRANCH  29  32
ENDBRANCH  26  29
ENDBRANCH   6  26
TORSDOF 10
ENDMDL
MODEL       26
REMARK 921   NORMALIZED FREE ENERGY PREDICTED BY IDOCK:   -6.85 KCAL/MOL
REMARK 922        TOTAL FREE ENERGY PREDICTED BY IDOCK:  -13.35 KCAL/MOL
REMARK 923 INTER-LIGAND FREE ENERGY PREDICTED BY IDOCK:  -11.27 KCAL/MOL
REMARK 924 INTRA-LIGAND FREE ENERGY PREDICTED BY IDOCK:   -2.09 KCAL/MOL
REMARK 927      BINDING AFFINITY PREDICTED BY RF-SCORE:    0.00 PKD
ROOT
HETATM    1 CA   UNL     1      -7.703  13.285  69.489  1.00  0.00    -0.292 Ca 
HETATM    2  O   UNL     2     -10.550  17.973  67.803  1.00  0.00    -0.401 OA 
HETATM    3  O   UNL     3      -8.823   7.216  70.698  1.00  0.00    -0.147 OA 
HETATM    4  H   UNL     2     -10.644  18.445  68.622  1.00  0.00     0.000 HD 
HETATM    5  C   UNL     2      -9.908  16.725  68.061  1.00  0.00    -0.265 C  
HETATM    6  C   UNL     3      -8.703   8.478  71.348  1.00  0.00    -0.185 C  
HETATM    7  H   UNL     3      -8.255   6.577  71.113  1.00  0.00     0.000 HD 
ENDROOT
BRANCH   5   8
HETATM    8  C   UNL     2      -9.755  15.958  66.730  1.00  0.00    -0.238 C  
HETATM    9  O   UNL     2      -9.848  14.565  67.010  1.00  0.00    -0.240 OA 
HETATM   10  H   UNL     2      -9.754  14.093  66.191  1.00  0.00     0.000 HD 
BRANCH   8  11
HETATM   11  C   UNL     2     -10.877  16.321  65.744  1.00  0.00    -0.169 C  
HETATM   12  H   UNL     2     -11.373  17.834  64.518  1.00  0.00     0.000 HD 
HETATM   13  O   UNL     2     -10.680  17.609  65.128  1.00  0.00    -0.658 OA 
BRANCH  11  14
HETATM   14  C   UNL     2     -11.296  15.305  64.654  1.00  0.00    -0.358 C  
HETATM   15  O   UNL     2     -11.963  15.974  63.596  1.00  0.00    -1.344 OA 
HETATM   16  H   UNL     2     -12.220  15.350  62.927  1.00  0.00     0.000 HD 
BRANCH  14  17
HETATM   17  C   UNL     2     -11.952  13.987  65.108  1.00  0.00    -0.387 C  
HETATM   18  H   UNL     2     -13.687  13.490  65.855  1.00  0.00     0.000 HD 
HETATM   19  O   UNL     2     -13.282  14.303  65.575  1.00  0.00    -0.641 OA 
BRANCH  17  20
HETATM   20  C   UNL     2     -11.966  12.857  64.079  1.00  0.00    -0.451 C  
HETATM   21  O   UNL     2     -12.347  13.336  62.771  1.00  0.00    -0.724 OA 
HETATM   22  C   UNL     2     -10.530  12.263  64.018  1.00  0.00    -0.399 C  
HETATM   23  H   UNL     2     -12.356  12.633  62.132  1.00  0.00     0.000 HD 
HETATM   24  O   UNL     2      -9.964  12.163  65.139  1.00  0.00    -0.257 OA 
HETATM   25  O   UNL     2     -10.148  11.998  62.847  1.00  0.00    -0.231 OA 
ENDBRANCH  17  20
ENDBRANCH  14  17
ENDBRANCH  11  14
ENDBRANCH   8  11
ENDBRANCH   5   8
BRANCH   6  26
HETATM   26  C   UNL     3      -9.621   9.509  70.677  1.00  0.00    -0.227 C  
HETATM   27  H   UNL     3      -9.767  10.237  68.907  1.00  0.00     0.000 HD 
HETATM   28  O   UNL     3      -9.199   9.599  69.322  1.00  0.00    -0.163 OA 
BRANCH  26  29
HETATM   29  C   UNL     3     -11.122   9.147  70.828  1.00  0.00    -0.275 C  
HETATM   30  O   UNL     3     -11.302   8.326  72.065  1.00  0.00    -0.280 OA 
HETATM   31  H   UNL     3     -12.221   8.104  72.158  1.00  0.00     0.000 HD 
BRANCH  29  32
HETATM   32  C   UNL     3     -12.042  10.357  71.098  1.00  0.00    -0.386 C  
HETATM   33  H   UNL     3     -13.922  10.575  71.644  1.00  0.00     0.000 HD 
HETATM   34  O   UNL     3     -13.356   9.831  71.478  1.00  0.00    -0.378 OA 
BRANCH  32  35
HETATM   35  C   UNL     3     -12.084  11.640  70.254  1.00  0.00    -0.358 C  
HETATM   36  H   UNL     3     -12.436  12.036  68.394  1.00  0.00     0.000 HD 
HETATM   37  O   UNL     3     -12.409  11.242  68.916  1.00  0.00    -0.485 OA 
BRANCH  35  38
HETATM   38  C   UNL     3     -12.984  12.763  70.758  1.00  0.00     0.084 C  
HETATM   39  C   UNL     3     -12.353  14.147  70.456  1.00  0.00    -0.364 C  
HETATM   40  O   UNL     3     -13.195  12.655  72.180  1.00  0.00    -0.478 OA 
HETATM   41  O   UNL     3     -11.272  14.134  69.787  1.00  0.00    -0.232 OA 
HETATM   42  O   UNL     3     -12.868  15.094  71.113  1.00  0.00    -0.337 OA 
HETATM   43  H   UNL     3     -13.756  13.355  72.495  1.00  0.00     0.000 HD 
ENDBRANCH  35  38
ENDBRANCH  32  35
ENDBRANCH  29  32
ENDBRANCH  26  29
ENDBRANCH   6  26
TORSDOF 10
ENDMDL
MODEL       27
REMARK 921   NORMALIZED FREE ENERGY PREDICTED BY IDOCK:   -6.84 KCAL/MOL
REMARK 922        TOTAL FREE ENERGY PREDICTED BY IDOCK:  -13.34 KCAL/MOL
REMARK 923 INTER-LIGAND FREE ENERGY PREDICTED BY IDOCK:  -10.84 KCAL/MOL
REMARK 924 INTRA-LIGAND FREE ENERGY PREDICTED BY IDOCK:   -2.50 KCAL/MOL
REMARK 927      BINDING AFFINITY PREDICTED BY RF-SCORE:    0.00 PKD
ROOT
HETATM    1 CA   UNL     1      -8.594  13.804  66.550  1.00  0.00    -0.205 Ca 
HETATM    2  O   UNL     2      -9.621  19.270  67.963  1.00  0.00    -0.311 OA 
HETATM    3  O   UNL     3     -10.939   8.078  67.675  1.00  0.00    -0.504 OA 
HETATM    4  H   UNL     2      -8.946  19.430  68.613  1.00  0.00     0.000 HD 
HETATM    5  C   UNL     2      -9.547  17.907  67.548  1.00  0.00    -0.269 C  
HETATM    6  C   UNL     3      -9.924   8.974  68.119  1.00  0.00    -0.175 C  
HETATM    7  H   UNL     3     -10.563   7.231  67.470  1.00  0.00     0.000 HD 
ENDROOT
BRANCH   5   8
HETATM    8  C   UNL     2     -10.644  17.646  66.493  1.00  0.00    -0.207 C  
HETATM    9  O   UNL     2     -10.615  18.714  65.553  1.00  0.00    -0.608 OA 
HETATM   10  H   UNL     2     -11.290  18.554  64.903  1.00  0.00     0.000 HD 
BRANCH   8  11
HETATM   11  C   UNL     2     -10.388  16.335  65.734  1.00  0.00    -0.374 C  
HETATM   12  H   UNL     2      -8.859  15.087  65.355  1.00  0.00     0.000 HD 
HETATM   13  O   UNL     2      -9.017  15.898  65.825  1.00  0.00    -0.283 OA 
BRANCH  11  14
HETATM   14  C   UNL     2     -11.317  15.119  65.973  1.00  0.00    -0.221 C  
HETATM   15  O   UNL     2     -10.708  14.213  66.879  1.00  0.00    -0.282 OA 
HETATM   16  H   UNL     2     -11.278  13.467  67.026  1.00  0.00     0.000 HD 
BRANCH  14  17
HETATM   17  C   UNL     2     -11.981  14.465  64.746  1.00  0.00    -0.447 C  
HETATM   18  H   UNL     2     -12.874  15.125  63.139  1.00  0.00     0.000 HD 
HETATM   19  O   UNL     2     -12.464  15.529  63.896  1.00  0.00    -0.656 OA 
BRANCH  17  20
HETATM   20  C   UNL     2     -11.121  13.467  63.972  1.00  0.00    -0.253 C  
HETATM   21  O   UNL     2      -9.804  13.340  64.553  1.00  0.00    -0.619 OA 
HETATM   22  C   UNL     2     -11.844  12.091  64.019  1.00  0.00    -0.408 C  
HETATM   23  H   UNL     2      -9.270  12.720  64.071  1.00  0.00     0.000 HD 
HETATM   24  O   UNL     2     -13.096  12.161  63.892  1.00  0.00    -0.749 OA 
HETATM   25  O   UNL     2     -11.062  11.121  64.203  1.00  0.00    -0.317 OA 
ENDBRANCH  17  20
ENDBRANCH  14  17
ENDBRANCH  11  14
ENDBRANCH   8  11
ENDBRANCH   5   8
BRANCH   6  26
HETATM   26  C   UNL     3     -10.533  10.343  68.450  1.00  0.00    -0.189 C  
HETATM   27  H   UNL     3     -12.063  11.325  67.835  1.00  0.00     0.000 HD 
HETATM   28  O   UNL     3     -11.686  10.477  67.630  1.00  0.00    -0.401 OA 
BRANCH  26  29
HETATM   29  C   UNL     3     -10.835  10.502  69.964  1.00  0.00    -0.259 C  
HETATM   30  O   UNL     3     -11.397  11.866  70.207  1.00  0.00    -0.501 OA 
HETATM   31  H   UNL     3     -11.582  11.963  71.134  1.00  0.00     0.000 HD 
BRANCH  29  32
HETATM   32  C   UNL     3     -11.960   9.582  70.486  1.00  0.00    -0.134 C  
HETATM   33  H   UNL     3     -13.869   9.826  70.904  1.00  0.00     0.000 HD 
HETATM   34  O   UNL     3     -13.177  10.392  70.583  1.00  0.00    -0.350 OA 
BRANCH  32  35
HETATM   35  C   UNL     3     -11.798   8.531  71.595  1.00  0.00    -0.311 C  
HETATM   36  H   UNL     3     -12.831   8.022  73.150  1.00  0.00     0.000 HD 
HETATM   37  O   UNL     3     -12.930   8.672  72.464  1.00  0.00    -0.371 OA 
BRANCH  35  38
HETATM   38  C   UNL     3     -11.589   7.089  71.148  1.00  0.00    -0.312 C  
HETATM   39  C   UNL     3     -10.077   6.777  70.998  1.00  0.00    -0.189 C  
HETATM   40  O   UNL     3     -12.236   6.843  69.884  1.00  0.00    -0.626 OA 
HETATM   41  O   UNL     3      -9.279   7.706  71.340  1.00  0.00    -0.136 OA 
HETATM   42  O   UNL     3      -9.837   5.730  70.336  1.00  0.00    -0.172 OA 
HETATM   43  H   UNL     3     -12.105   5.944  69.605  1.00  0.00     0.000 HD 
ENDBRANCH  35  38
ENDBRANCH  32  35
ENDBRANCH  29  32
ENDBRANCH  26  29
ENDBRANCH   6  26
TORSDOF 10
ENDMDL
MODEL       28
REMARK 921   NORMALIZED FREE ENERGY PREDICTED BY IDOCK:   -6.83 KCAL/MOL
REMARK 922        TOTAL FREE ENERGY PREDICTED BY IDOCK:  -13.32 KCAL/MOL
REMARK 923 INTER-LIGAND FREE ENERGY PREDICTED BY IDOCK:  -10.16 KCAL/MOL
REMARK 924 INTRA-LIGAND FREE ENERGY PREDICTED BY IDOCK:   -3.16 KCAL/MOL
REMARK 927      BINDING AFFINITY PREDICTED BY RF-SCORE:    0.00 PKD
ROOT
HETATM    1 CA   UNL     1      -8.500  12.965  68.120  1.00  0.00    -0.124 Ca 
HETATM    2  O   UNL     2     -12.775  16.154  70.236  1.00  0.00    -0.523 OA 
HETATM    3  O   UNL     3      -7.390   9.104  63.281  1.00  0.00    -0.095 OA 
HETATM    4  H   UNL     2     -13.073  15.618  70.962  1.00  0.00     0.000 HD 
HETATM    5  C   UNL     2     -11.736  15.461  69.547  1.00  0.00    -0.346 C  
HETATM    6  C   UNL     3      -7.769   9.089  64.655  1.00  0.00    -0.115 C  
HETATM    7  H   UNL     3      -6.649   8.527  63.139  1.00  0.00     0.000 HD 
ENDROOT
BRANCH   5   8
HETATM    8  C   UNL     2     -11.251  16.332  68.369  1.00  0.00    -0.349 C  
HETATM    9  O   UNL     2     -10.597  17.477  68.905  1.00  0.00    -0.316 OA 
HETATM   10  H   UNL     2     -10.298  18.014  68.180  1.00  0.00     0.000 HD 
BRANCH   8  11
HETATM   11  C   UNL     2     -10.241  15.574  67.492  1.00  0.00    -0.254 C  
HETATM   12  H   UNL     2      -9.744  13.674  67.066  1.00  0.00     0.000 HD 
HETATM   13  O   UNL     2     -10.369  14.143  67.607  1.00  0.00    -0.239 OA 
BRANCH  11  14
HETATM   14  C   UNL     2     -10.098  15.944  65.995  1.00  0.00    -0.337 C  
HETATM   15  O   UNL     2      -9.588  17.261  65.867  1.00  0.00    -0.500 OA 
HETATM   16  H   UNL     2      -9.500  17.488  64.948  1.00  0.00     0.000 HD 
BRANCH  14  17
HETATM   17  C   UNL     2     -11.267  15.603  65.052  1.00  0.00    -0.329 C  
HETATM   18  H   UNL     2     -12.062  16.437  63.474  1.00  0.00     0.000 HD 
HETATM   19  O   UNL     2     -11.340  16.647  64.056  1.00  0.00    -1.120 OA 
BRANCH  17  20
HETATM   20  C   UNL     2     -11.231  14.214  64.416  1.00  0.00    -0.278 C  
HETATM   21  O   UNL     2      -9.948  13.578  64.605  1.00  0.00    -0.621 OA 
HETATM   22  C   UNL     2     -12.340  13.360  65.093  1.00  0.00    -0.456 C  
HETATM   23  H   UNL     2      -9.925  12.715  64.210  1.00  0.00     0.000 HD 
HETATM   24  O   UNL     2     -13.411  13.985  65.314  1.00  0.00    -0.741 OA 
HETATM   25  O   UNL     2     -11.980  12.177  65.339  1.00  0.00    -0.410 OA 
ENDBRANCH  17  20
ENDBRANCH  14  17
ENDBRANCH  11  14
ENDBRANCH   8  11
ENDBRANCH   5   8
BRANCH   6  26
HETATM   26  C   UNL     3      -8.966  10.022  64.884  1.00  0.00    -0.205 C  
HETATM   27  H   UNL     3     -10.288  10.825  63.749  1.00  0.00     0.000 HD 
HETATM   28  O   UNL     3      -9.547  10.248  63.607  1.00  0.00    -0.292 OA 
BRANCH  26  29
HETATM   29  C   UNL     3      -9.968   9.449  65.921  1.00  0.00    -0.256 C  
HETATM   30  O   UNL     3      -9.598   8.032  66.224  1.00  0.00    -0.314 OA 
HETATM   31  H   UNL     3     -10.211   7.681  66.858  1.00  0.00     0.000 HD 
BRANCH  29  32
HETATM   32  C   UNL     3      -9.892  10.115  67.312  1.00  0.00    -0.183 C  
HETATM   33  H   UNL     3      -8.428  10.717  68.484  1.00  0.00     0.000 HD 
HETATM   34  O   UNL     3      -8.474  10.306  67.628  1.00  0.00    -0.118 OA 
BRANCH  32  35
HETATM   35  C   UNL     3     -10.775   9.750  68.515  1.00  0.00    -0.215 C  
HETATM   36  H   UNL     3     -10.955   8.193  69.649  1.00  0.00     0.000 HD 
HETATM   37  O   UNL     3     -10.409   8.419  68.905  1.00  0.00    -0.214 OA 
BRANCH  35  38
HETATM   38  C   UNL     3     -10.766  10.720  69.692  1.00  0.00    -0.211 C  
HETATM   39  C   UNL     3     -12.202  10.932  70.237  1.00  0.00    -0.348 C  
HETATM   40  O   UNL     3     -10.229  11.999  69.300  1.00  0.00    -0.418 OA 
HETATM   41  O   UNL     3     -13.113  10.229  69.697  1.00  0.00     0.123 OA 
HETATM   42  O   UNL     3     -12.318  11.944  70.983  1.00  0.00    -0.352 OA 
HETATM   43  H   UNL     3     -10.223  12.604  70.033  1.00  0.00     0.000 HD 
ENDBRANCH  35  38
ENDBRANCH  32  35
ENDBRANCH  29  32
ENDBRANCH  26  29
ENDBRANCH   6  26
TORSDOF 10
ENDMDL
MODEL       29
REMARK 921   NORMALIZED FREE ENERGY PREDICTED BY IDOCK:   -6.80 KCAL/MOL
REMARK 922        TOTAL FREE ENERGY PREDICTED BY IDOCK:  -13.27 KCAL/MOL
REMARK 923 INTER-LIGAND FREE ENERGY PREDICTED BY IDOCK:  -10.39 KCAL/MOL
REMARK 924 INTRA-LIGAND FREE ENERGY PREDICTED BY IDOCK:   -2.88 KCAL/MOL
REMARK 927      BINDING AFFINITY PREDICTED BY RF-SCORE:    0.00 PKD
ROOT
HETATM    1 CA   UNL     1      -7.822  11.286  70.102  1.00  0.00    -0.355 Ca 
HETATM    2  O   UNL     2     -10.985   6.578  69.235  1.00  0.00    -0.274 OA 
HETATM    3  O   UNL     3      -7.919  17.411  68.680  1.00  0.00    -0.263 OA 
HETATM    4  H   UNL     2     -10.491   6.138  68.552  1.00  0.00     0.000 HD 
HETATM    5  C   UNL     2     -10.357   7.825  69.527  1.00  0.00    -0.219 C  
HETATM    6  C   UNL     3      -7.370  16.173  68.238  1.00  0.00    -0.140 C  
HETATM    7  H   UNL     3      -7.230  18.057  68.784  1.00  0.00     0.000 HD 
ENDROOT
BRANCH   5   8
HETATM    8  C   UNL     2     -11.160   8.539  70.636  1.00  0.00    -0.252 C  
HETATM    9  O   UNL     2     -10.556   8.229  71.887  1.00  0.00    -0.241 OA 
HETATM   10  H   UNL     2     -11.050   8.669  72.570  1.00  0.00     0.000 HD 
BRANCH   8  11
HETATM   11  C   UNL     2     -11.125  10.066  70.455  1.00  0.00    -0.327 C  
HETATM   12  H   UNL     2      -9.990  11.449  69.540  1.00  0.00     0.000 HD 
HETATM   13  O   UNL     2     -10.011  10.505  69.652  1.00  0.00    -0.202 OA 
BRANCH  11  14
HETATM   14  C   UNL     2     -12.401  10.810  69.989  1.00  0.00    -0.298 C  
HETATM   15  O   UNL     2     -12.330  11.071  68.597  1.00  0.00    -0.753 OA 
HETATM   16  H   UNL     2     -13.113  11.528  68.312  1.00  0.00     0.000 HD 
BRANCH  14  17
HETATM   17  C   UNL     2     -12.906  11.984  70.848  1.00  0.00    -0.115 C  
HETATM   18  H   UNL     2     -13.408  12.214  72.722  1.00  0.00     0.000 HD 
HETATM   19  O   UNL     2     -13.096  11.489  72.192  1.00  0.00    -0.466 OA 
BRANCH  17  20
HETATM   20  C   UNL     2     -12.047  13.248  70.826  1.00  0.00    -0.226 C  
HETATM   21  O   UNL     2     -11.224  13.308  69.640  1.00  0.00    -0.444 OA 
HETATM   22  C   UNL     2     -13.009  14.469  70.853  1.00  0.00    -0.361 C  
HETATM   23  H   UNL     2     -10.690  14.093  69.626  1.00  0.00     0.000 HD 
HETATM   24  O   UNL     2     -14.001  14.328  71.618  1.00  0.00    -0.393 OA 
HETATM   25  O   UNL     2     -12.657  15.401  70.083  1.00  0.00    -0.364 OA 
ENDBRANCH  17  20
ENDBRANCH  14  17
ENDBRANCH  11  14
ENDBRANCH   8  11
ENDBRANCH   5   8
BRANCH   6  26
HETATM   26  C   UNL     3      -8.484  15.130  68.069  1.00  0.00    -0.148 C  
HETATM   27  H   UNL     3     -10.236  14.893  68.816  1.00  0.00     0.000 HD 
HETATM   28  O   UNL     3      -9.547  15.538  68.921  1.00  0.00    -0.195 OA 
BRANCH  26  29
HETATM   29  C   UNL     3      -8.915  14.963  66.588  1.00  0.00    -0.270 C  
HETATM   30  O   UNL     3      -9.322  13.543  66.357  1.00  0.00    -0.364 OA 
HETATM   31  H   UNL     3      -9.585  13.441  65.450  1.00  0.00     0.000 HD 
BRANCH  29  32
HETATM   32  C   UNL     3     -10.194  15.740  66.207  1.00  0.00    -0.303 C  
HETATM   33  H   UNL     3     -11.941  15.246  65.443  1.00  0.00     0.000 HD 
HETATM   34  O   UNL     3     -11.153  14.768  65.677  1.00  0.00    -0.324 OA 
BRANCH  32  35
HETATM   35  C   UNL     3     -10.221  17.112  65.517  1.00  0.00    -0.051 C  
HETATM   36  H   UNL     3     -11.190  17.865  64.022  1.00  0.00     0.000 HD 
HETATM   37  O   UNL     3     -11.172  17.016  64.449  1.00  0.00    -1.167 OA 
BRANCH  35  38
HETATM   38  C   UNL     3     -10.472  18.323  66.409  1.00  0.00    -0.366 C  
HETATM   39  C   UNL     3      -9.204  19.212  66.493  1.00  0.00    -0.345 C  
HETATM   40  O   UNL     3     -10.836  17.914  67.742  1.00  0.00    -0.374 OA 
HETATM   41  O   UNL     3      -8.223  18.855  65.768  1.00  0.00    -0.458 OA 
HETATM   42  O   UNL     3      -9.227  20.040  67.445  1.00  0.00    -0.333 OA 
HETATM   43  H   UNL     3     -10.993  18.669  68.298  1.00  0.00     0.000 HD 
ENDBRANCH  35  38
ENDBRANCH  32  35
ENDBRANCH  29  32
ENDBRANCH  26  29
ENDBRANCH   6  26
TORSDOF 10
ENDMDL
MODEL       30
REMARK 921   NORMALIZED FREE ENERGY PREDICTED BY IDOCK:   -6.79 KCAL/MOL
REMARK 922        TOTAL FREE ENERGY PREDICTED BY IDOCK:  -13.26 KCAL/MOL
REMARK 923 INTER-LIGAND FREE ENERGY PREDICTED BY IDOCK:  -10.31 KCAL/MOL
REMARK 924 INTRA-LIGAND FREE ENERGY PREDICTED BY IDOCK:   -2.95 KCAL/MOL
REMARK 927      BINDING AFFINITY PREDICTED BY RF-SCORE:    0.00 PKD
ROOT
HETATM    1 CA   UNL     1     -12.139   9.720  68.186  1.00  0.00    -0.529 Ca 
HETATM    2  O   UNL     2     -12.546  13.641  64.017  1.00  0.00    -0.672 OA 
HETATM    3  O   UNL     3      -7.944   5.636  70.483  1.00  0.00    -0.099 OA 
HETATM    4  H   UNL     2     -13.064  13.178  63.368  1.00  0.00     0.000 HD 
HETATM    5  C   UNL     2     -12.292  12.766  65.114  1.00  0.00    -0.496 C  
HETATM    6  C   UNL     3      -9.051   5.713  69.589  1.00  0.00    -0.130 C  
HETATM    7  H   UNL     3      -8.078   4.937  71.112  1.00  0.00     0.000 HD 
ENDROOT
BRANCH   5   8
HETATM    8  C   UNL     2     -11.451  13.518  66.168  1.00  0.00    -0.325 C  
HETATM    9  O   UNL     2     -11.684  14.913  66.005  1.00  0.00    -0.295 OA 
HETATM   10  H   UNL     2     -11.166  15.376  66.654  1.00  0.00     0.000 HD 
BRANCH   8  11
HETATM   11  C   UNL     2     -11.867  13.128  67.595  1.00  0.00    -0.359 C  
HETATM   12  H   UNL     2     -12.491  11.498  68.591  1.00  0.00     0.000 HD 
HETATM   13  O   UNL     2     -12.234  11.739  67.708  1.00  0.00    -0.536 OA 
BRANCH  11  14
HETATM   14  C   UNL     2     -10.951  13.501  68.787  1.00  0.00    -0.261 C  
HETATM   15  O   UNL     2     -10.573  12.331  69.495  1.00  0.00    -0.425 OA 
HETATM   16  H   UNL     2     -10.011  12.560  70.226  1.00  0.00     0.000 HD 
BRANCH  14  17
HETATM   17  C   UNL     2     -11.365  14.692  69.672  1.00  0.00    -0.280 C  
HETATM   18  H   UNL     2     -11.797  16.570  69.352  1.00  0.00     0.000 HD 
HETATM   19  O   UNL     2     -11.542  15.835  68.806  1.00  0.00    -0.363 OA 
BRANCH  17  20
HETATM   20  C   UNL     2     -12.582  14.467  70.570  1.00  0.00    -0.351 C  
HETATM   21  O   UNL     2     -12.792  13.063  70.834  1.00  0.00    -0.249 OA 
HETATM   22  C   UNL     2     -12.320  15.215  71.908  1.00  0.00    -0.352 C  
HETATM   23  H   UNL     2     -13.548  12.924  71.392  1.00  0.00     0.000 HD 
HETATM   24  O   UNL     2     -11.766  16.338  71.772  1.00  0.00    -0.486 OA 
HETATM   25  O   UNL     2     -12.682  14.564  72.924  1.00  0.00    -0.397 OA 
ENDBRANCH  17  20
ENDBRANCH  14  17
ENDBRANCH  11  14
ENDBRANCH   8  11
ENDBRANCH   5   8
BRANCH   6  26
HETATM   26  C   UNL     3      -8.834   6.843  68.573  1.00  0.00    -0.124 C  
HETATM   27  H   UNL     3      -8.322   6.918  66.725  1.00  0.00     0.000 HD 
HETATM   28  O   UNL     3      -8.455   6.218  67.354  1.00  0.00    -0.109 OA 
BRANCH  26  29
HETATM   29  C   UNL     3     -10.082   7.755  68.433  1.00  0.00    -0.192 C  
HETATM   30  O   UNL     3     -11.311   6.937  68.667  1.00  0.00    -0.515 OA 
HETATM   31  H   UNL     3     -12.075   7.495  68.581  1.00  0.00     0.000 HD 
BRANCH  29  32
HETATM   32  C   UNL     3     -10.197   8.845  69.521  1.00  0.00    -0.204 C  
HETATM   33  H   UNL     3      -9.082  10.369  70.082  1.00  0.00     0.000 HD 
HETATM   34  O   UNL     3      -9.011   9.698  69.413  1.00  0.00    -0.156 OA 
BRANCH  32  35
HETATM   35  C   UNL     3     -10.689   8.609  70.958  1.00  0.00    -0.228 C  
HETATM   36  H   UNL     3      -9.942   8.901  72.718  1.00  0.00     0.000 HD 
HETATM   37  O   UNL     3      -9.638   9.046  71.829  1.00  0.00    -0.290 OA 
BRANCH  35  38
HETATM   38  C   UNL     3     -12.038   9.217  71.328  1.00  0.00    -0.337 C  
HETATM   39  C   UNL     3     -13.114   8.110  71.478  1.00  0.00    -0.287 C  
HETATM   40  O   UNL     3     -12.476  10.151  70.321  1.00  0.00    -0.473 OA 
HETATM   41  O   UNL     3     -12.703   6.913  71.359  1.00  0.00    -0.370 OA 
HETATM   42  O   UNL     3     -14.297   8.548  71.466  1.00  0.00    -0.424 OA 
HETATM   43  H   UNL     3     -13.316  10.530  70.552  1.00  0.00     0.000 HD 
ENDBRANCH  35  38
ENDBRANCH  32  35
ENDBRANCH  29  32
ENDBRANCH  26  29
ENDBRANCH   6  26
TORSDOF 10
ENDMDL
MODEL       31
REMARK 921   NORMALIZED FREE ENERGY PREDICTED BY IDOCK:   -6.79 KCAL/MOL
REMARK 922        TOTAL FREE ENERGY PREDICTED BY IDOCK:  -13.26 KCAL/MOL
REMARK 923 INTER-LIGAND FREE ENERGY PREDICTED BY IDOCK:   -9.55 KCAL/MOL
REMARK 924 INTRA-LIGAND FREE ENERGY PREDICTED BY IDOCK:   -3.71 KCAL/MOL
REMARK 927      BINDING AFFINITY PREDICTED BY RF-SCORE:    0.00 PKD
ROOT
HETATM    1 CA   UNL     1     -11.091  10.308  64.099  1.00  0.00    -0.374 Ca 
HETATM    2  O   UNL     2     -11.934  15.979  63.881  1.00  0.00    -1.267 OA 
HETATM    3  O   UNL     3      -8.055   6.081  67.631  1.00  0.00    -0.105 OA 
HETATM    4  H   UNL     2     -11.346  16.233  63.178  1.00  0.00     0.000 HD 
HETATM    5  C   UNL     2     -11.795  14.579  64.114  1.00  0.00    -0.267 C  
HETATM    6  C   UNL     3      -7.911   6.846  66.437  1.00  0.00    -0.103 C  
HETATM    7  H   UNL     3      -7.896   5.162  67.453  1.00  0.00     0.000 HD 
ENDROOT
BRANCH   5   8
HETATM    8  C   UNL     2     -12.749  14.166  65.255  1.00  0.00    -0.403 C  
HETATM    9  O   UNL     2     -12.992  12.767  65.143  1.00  0.00    -0.768 OA 
HETATM   10  H   UNL     2     -13.580  12.513  65.846  1.00  0.00     0.000 HD 
BRANCH   8  11
HETATM   11  C   UNL     2     -12.120  14.431  66.632  1.00  0.00    -0.367 C  
HETATM   12  H   UNL     2     -11.941  13.510  68.409  1.00  0.00     0.000 HD 
HETATM   13  O   UNL     2     -12.329  13.346  67.558  1.00  0.00    -0.246 OA 
BRANCH  11  14
HETATM   14  C   UNL     2     -10.643  14.888  66.724  1.00  0.00    -0.305 C  
HETATM   15  O   UNL     2      -9.785  13.758  66.738  1.00  0.00    -0.258 OA 
HETATM   16  H   UNL     2      -8.879  14.038  66.794  1.00  0.00     0.000 HD 
BRANCH  14  17
HETATM   17  C   UNL     2     -10.289  15.988  67.741  1.00  0.00    -0.279 C  
HETATM   18  H   UNL     2     -11.239  17.499  68.535  1.00  0.00     0.000 HD 
HETATM   19  O   UNL     2     -11.459  16.820  67.907  1.00  0.00    -0.076 OA 
BRANCH  17  20
HETATM   20  C   UNL     2      -9.741  15.507  69.084  1.00  0.00    -0.252 C  
HETATM   21  O   UNL     2     -10.146  14.148  69.365  1.00  0.00    -0.426 OA 
HETATM   22  C   UNL     2      -8.190  15.582  69.011  1.00  0.00    -0.227 C  
HETATM   23  H   UNL     2      -9.805  13.849  70.200  1.00  0.00     0.000 HD 
HETATM   24  O   UNL     2      -7.750  16.603  68.418  1.00  0.00    -0.182 OA 
HETATM   25  O   UNL     2      -7.615  14.592  69.538  1.00  0.00    -0.132 OA 
ENDBRANCH  17  20
ENDBRANCH  14  17
ENDBRANCH  11  14
ENDBRANCH   8  11
ENDBRANCH   5   8
BRANCH   6  26
HETATM   26  C   UNL     3      -8.168   8.332  66.726  1.00  0.00    -0.103 C  
HETATM   27  H   UNL     3      -7.233   9.964  66.342  1.00  0.00     0.000 HD 
HETATM   28  O   UNL     3      -7.074   9.044  66.164  1.00  0.00    -0.084 OA 
BRANCH  26  29
HETATM   29  C   UNL     3      -9.547   8.805  66.193  1.00  0.00    -0.253 C  
HETATM   30  O   UNL     3     -10.535   7.693  66.347  1.00  0.00    -0.483 OA 
HETATM   31  H   UNL     3     -11.378   7.982  66.020  1.00  0.00     0.000 HD 
BRANCH  29  32
HETATM   32  C   UNL     3     -10.192   9.938  67.019  1.00  0.00    -0.233 C  
HETATM   33  H   UNL     3     -10.842  11.753  66.613  1.00  0.00     0.000 HD 
HETATM   34  O   UNL     3     -10.445  11.055  66.105  1.00  0.00    -0.246 OA 
BRANCH  32  35
HETATM   35  C   UNL     3      -9.764  10.352  68.435  1.00  0.00    -0.158 C  
HETATM   36  H   UNL     3      -8.630  11.739  69.165  1.00  0.00     0.000 HD 
HETATM   37  O   UNL     3      -8.894  11.482  68.289  1.00  0.00    -0.155 OA 
BRANCH  35  38
HETATM   38  C   UNL     3     -10.882  10.609  69.441  1.00  0.00    -0.246 C  
HETATM   39  C   UNL     3     -10.915   9.494  70.518  1.00  0.00    -0.288 C  
HETATM   40  O   UNL     3     -12.165  10.653  68.785  1.00  0.00    -0.790 OA 
HETATM   41  O   UNL     3      -9.991   8.623  70.449  1.00  0.00    -0.179 OA 
HETATM   42  O   UNL     3     -11.988   9.461  71.182  1.00  0.00    -0.300 OA 
HETATM   43  H   UNL     3     -12.861  10.813  69.411  1.00  0.00     0.000 HD 
ENDBRANCH  35  38
ENDBRANCH  32  35
ENDBRANCH  29  32
ENDBRANCH  26  29
ENDBRANCH   6  26
TORSDOF 10
ENDMDL
MODEL       32
REMARK 921   NORMALIZED FREE ENERGY PREDICTED BY IDOCK:   -6.77 KCAL/MOL
REMARK 922        TOTAL FREE ENERGY PREDICTED BY IDOCK:  -13.23 KCAL/MOL
REMARK 923 INTER-LIGAND FREE ENERGY PREDICTED BY IDOCK:  -10.33 KCAL/MOL
REMARK 924 INTRA-LIGAND FREE ENERGY PREDICTED BY IDOCK:   -2.90 KCAL/MOL
REMARK 927      BINDING AFFINITY PREDICTED BY RF-SCORE:    0.00 PKD
ROOT
HETATM    1 CA   UNL     1     -11.159  10.339  68.716  1.00  0.00    -0.184 Ca 
HETATM    2  O   UNL     2      -6.260   8.734  66.197  1.00  0.00    -0.057 OA 
HETATM    3  O   UNL     3     -14.037  15.604  70.600  1.00  0.00    -0.804 OA 
HETATM    4  H   UNL     2      -5.763   8.404  66.937  1.00  0.00     0.000 HD 
HETATM    5  C   UNL     2      -7.506   9.244  66.669  1.00  0.00    -0.093 C  
HETATM    6  C   UNL     3     -13.219  14.545  71.089  1.00  0.00    -0.361 C  
HETATM    7  H   UNL     3     -14.812  15.697  71.142  1.00  0.00     0.000 HD 
ENDROOT
BRANCH   5   8
HETATM    8  C   UNL     2      -8.313   9.780  65.467  1.00  0.00    -0.136 C  
HETATM    9  O   UNL     2      -8.963   8.677  64.845  1.00  0.00    -0.401 OA 
HETATM   10  H   UNL     2      -9.460   9.006  64.105  1.00  0.00     0.000 HD 
BRANCH   8  11
HETATM   11  C   UNL     2      -9.393  10.776  65.919  1.00  0.00    -0.189 C  
HETATM   12  H   UNL     2      -9.966  11.717  67.600  1.00  0.00     0.000 HD 
HETATM   13  O   UNL     2      -9.298  11.102  67.320  1.00  0.00    -0.159 OA 
BRANCH  11  14
HETATM   14  C   UNL     2      -9.614  12.082  65.117  1.00  0.00    -0.072 C  
HETATM   15  O   UNL     2      -9.459  13.207  65.967  1.00  0.00    -0.431 OA 
HETATM   16  H   UNL     2      -9.594  14.008  65.474  1.00  0.00     0.000 HD 
BRANCH  14  17
HETATM   17  C   UNL     2     -10.820  12.148  64.162  1.00  0.00    -0.360 C  
HETATM   18  H   UNL     2     -11.493  11.039  62.701  1.00  0.00     0.000 HD 
HETATM   19  O   UNL     2     -10.748  10.998  63.291  1.00  0.00    -0.271 OA 
BRANCH  17  20
HETATM   20  C   UNL     2     -12.192  12.273  64.824  1.00  0.00    -0.365 C  
HETATM   21  O   UNL     2     -12.100  12.144  66.260  1.00  0.00    -0.626 OA 
HETATM   22  C   UNL     2     -12.760  13.674  64.463  1.00  0.00    -0.089 C  
HETATM   23  H   UNL     2     -12.953  12.221  66.671  1.00  0.00     0.000 HD 
HETATM   24  O   UNL     2     -12.537  14.032  63.275  1.00  0.00    -0.801 OA 
HETATM   25  O   UNL     2     -13.335  14.245  65.428  1.00  0.00    -0.649 OA 
ENDBRANCH  17  20
ENDBRANCH  14  17
ENDBRANCH  11  14
ENDBRANCH   8  11
ENDBRANCH   5   8
BRANCH   6  26
HETATM   26  C   UNL     3     -11.967  14.395  70.214  1.00  0.00    -0.321 C  
HETATM   27  H   UNL     3     -11.463  13.241  68.765  1.00  0.00     0.000 HD 
HETATM   28  O   UNL     3     -12.237  13.334  69.307  1.00  0.00    -0.268 OA 
BRANCH  26  29
HETATM   29  C   UNL     3     -11.581  15.721  69.507  1.00  0.00    -0.363 C  
HETATM   30  O   UNL     3     -11.323  16.767  70.544  1.00  0.00    -0.478 OA 
HETATM   31  H   UNL     3     -11.087  17.580  70.111  1.00  0.00     0.000 HD 
BRANCH  29  32
HETATM   32  C   UNL     3     -10.238  15.669  68.748  1.00  0.00    -0.215 C  
HETATM   33  H   UNL     3      -8.342  15.714  69.280  1.00  0.00     0.000 HD 
HETATM   34  O   UNL     3      -9.169  15.747  69.747  1.00  0.00    -0.225 OA 
BRANCH  32  35
HETATM   35  C   UNL     3      -9.939  16.398  67.429  1.00  0.00    -0.251 C  
HETATM   36  H   UNL     3     -10.592  16.251  65.614  1.00  0.00     0.000 HD 
HETATM   37  O   UNL     3     -10.776  15.800  66.430  1.00  0.00    -0.309 OA 
BRANCH  35  38
HETATM   38  C   UNL     3     -10.052  17.918  67.446  1.00  0.00    -0.340 C  
HETATM   39  C   UNL     3      -9.022  18.554  66.476  1.00  0.00    -0.293 C  
HETATM   40  O   UNL     3      -9.818  18.438  68.769  1.00  0.00    -0.357 OA 
HETATM   41  O   UNL     3      -8.332  17.741  65.783  1.00  0.00    -0.529 OA 
HETATM   42  O   UNL     3      -8.837  19.787  66.668  1.00  0.00    -0.325 OA 
HETATM   43  H   UNL     3      -9.889  19.385  68.780  1.00  0.00     0.000 HD 
ENDBRANCH  35  38
ENDBRANCH  32  35
ENDBRANCH  29  32
ENDBRANCH  26  29
ENDBRANCH   6  26
TORSDOF 10
ENDMDL
MODEL       33
REMARK 921   NORMALIZED FREE ENERGY PREDICTED BY IDOCK:   -6.77 KCAL/MOL
REMARK 922        TOTAL FREE ENERGY PREDICTED BY IDOCK:  -13.22 KCAL/MOL
REMARK 923 INTER-LIGAND FREE ENERGY PREDICTED BY IDOCK:  -10.42 KCAL/MOL
REMARK 924 INTRA-LIGAND FREE ENERGY PREDICTED BY IDOCK:   -2.81 KCAL/MOL
REMARK 927      BINDING AFFINITY PREDICTED BY RF-SCORE:    0.00 PKD
ROOT
HETATM    1 CA   UNL     1      -7.889  13.355  67.021  1.00  0.00    -0.142 Ca 
HETATM    2  O   UNL     2     -11.007   8.570  67.566  1.00  0.00    -0.495 OA 
HETATM    3  O   UNL     3      -8.588  19.580  67.589  1.00  0.00    -0.299 OA 
HETATM    4  H   UNL     2     -11.179   8.349  66.658  1.00  0.00     0.000 HD 
HETATM    5  C   UNL     2     -10.283   9.798  67.612  1.00  0.00    -0.213 C  
HETATM    6  C   UNL     3      -8.600  18.541  66.614  1.00  0.00    -0.286 C  
HETATM    7  H   UNL     3      -7.993  20.271  67.324  1.00  0.00     0.000 HD 
ENDROOT
BRANCH   5   8
HETATM    8  C   UNL     2     -10.003  10.157  69.087  1.00  0.00    -0.210 C  
HETATM    9  O   UNL     2      -9.271  11.377  69.113  1.00  0.00    -0.405 OA 
HETATM   10  H   UNL     2      -9.098  11.599  70.021  1.00  0.00     0.000 HD 
BRANCH   8  11
HETATM   11  C   UNL     2     -11.310  10.369  69.868  1.00  0.00    -0.302 C  
HETATM   12  H   UNL     2     -13.179  11.025  69.527  1.00  0.00     0.000 HD 
HETATM   13  O   UNL     2     -12.371  10.894  69.045  1.00  0.00    -0.464 OA 
BRANCH  11  14
HETATM   14  C   UNL     2     -11.876   9.219  70.738  1.00  0.00    -0.243 C  
HETATM   15  O   UNL     2     -12.832   9.729  71.654  1.00  0.00    -0.356 OA 
HETATM   16  H   UNL     2     -13.179   9.023  72.188  1.00  0.00     0.000 HD 
BRANCH  14  17
HETATM   17  C   UNL     2     -10.881   8.205  71.331  1.00  0.00    -0.234 C  
HETATM   18  H   UNL     2     -10.526   7.495  73.116  1.00  0.00     0.000 HD 
HETATM   19  O   UNL     2     -11.141   8.121  72.750  1.00  0.00    -0.382 OA 
BRANCH  17  20
HETATM   20  C   UNL     2     -10.861   6.824  70.676  1.00  0.00    -0.250 C  
HETATM   21  O   UNL     2     -11.941   6.673  69.729  1.00  0.00    -0.654 OA 
HETATM   22  C   UNL     2      -9.499   6.675  69.941  1.00  0.00    -0.156 C  
HETATM   23  H   UNL     2     -11.929   5.815  69.322  1.00  0.00     0.000 HD 
HETATM   24  O   UNL     2      -8.517   7.149  70.571  1.00  0.00    -0.135 OA 
HETATM   25  O   UNL     2      -9.598   6.124  68.812  1.00  0.00    -0.124 OA 
ENDBRANCH  17  20
ENDBRANCH  14  17
ENDBRANCH  11  14
ENDBRANCH   8  11
ENDBRANCH   5   8
BRANCH   6  26
HETATM   26  C   UNL     3      -9.562  17.423  67.042  1.00  0.00    -0.273 C  
HETATM   27  H   UNL     3     -11.417  17.351  67.526  1.00  0.00     0.000 HD 
HETATM   28  O   UNL     3     -10.822  18.042  67.261  1.00  0.00    -0.334 OA 
BRANCH  26  29
HETATM   29  C   UNL     3      -9.617  16.267  66.008  1.00  0.00    -0.337 C  
HETATM   30  O   UNL     3      -8.479  15.332  66.264  1.00  0.00    -0.410 OA 
HETATM   31  H   UNL     3      -8.514  14.624  65.631  1.00  0.00     0.000 HD 
BRANCH  29  32
HETATM   32  C   UNL     3     -10.846  15.343  66.156  1.00  0.00    -0.313 C  
HETATM   33  H   UNL     3     -11.422  14.003  67.479  1.00  0.00     0.000 HD 
HETATM   34  O   UNL     3     -10.666  14.572  67.388  1.00  0.00    -0.274 OA 
BRANCH  32  35
HETATM   35  C   UNL     3     -11.514  14.573  65.007  1.00  0.00    -0.382 C  
HETATM   36  H   UNL     3     -12.243  15.060  63.283  1.00  0.00     0.000 HD 
HETATM   37  O   UNL     3     -11.830  15.537  63.994  1.00  0.00    -0.467 OA 
BRANCH  35  38
HETATM   38  C   UNL     3     -10.751  13.376  64.449  1.00  0.00    -0.408 C  
HETATM   39  C   UNL     3     -11.696  12.159  64.274  1.00  0.00    -0.373 C  
HETATM   40  O   UNL     3      -9.673  12.998  65.328  1.00  0.00    -0.482 OA 
HETATM   41  O   UNL     3     -12.924  12.364  64.529  1.00  0.00    -0.770 OA 
HETATM   42  O   UNL     3     -11.089  11.062  64.126  1.00  0.00    -0.244 OA 
HETATM   43  H   UNL     3      -9.197  12.252  64.980  1.00  0.00     0.000 HD 
ENDBRANCH  35  38
ENDBRANCH  32  35
ENDBRANCH  29  32
ENDBRANCH  26  29
ENDBRANCH   6  26
TORSDOF 10
ENDMDL
MODEL       34
REMARK 921   NORMALIZED FREE ENERGY PREDICTED BY IDOCK:   -6.77 KCAL/MOL
REMARK 922        TOTAL FREE ENERGY PREDICTED BY IDOCK:  -13.22 KCAL/MOL
REMARK 923 INTER-LIGAND FREE ENERGY PREDICTED BY IDOCK:  -10.78 KCAL/MOL
REMARK 924 INTRA-LIGAND FREE ENERGY PREDICTED BY IDOCK:   -2.44 KCAL/MOL
REMARK 927      BINDING AFFINITY PREDICTED BY RF-SCORE:    0.00 PKD
ROOT
HETATM    1 CA   UNL     1      -8.255  11.227  67.473  1.00  0.00    -0.109 Ca 
HETATM    2  O   UNL     2      -9.841   6.007  65.695  1.00  0.00    -0.362 OA 
HETATM    3  O   UNL     3     -10.098  17.212  66.898  1.00  0.00    -0.279 OA 
HETATM    4  H   UNL     2      -9.209   5.839  65.005  1.00  0.00     0.000 HD 
HETATM    5  C   UNL     2      -9.625   7.320  66.210  1.00  0.00    -0.037 C  
HETATM    6  C   UNL     3      -9.188  16.268  66.341  1.00  0.00    -0.299 C  
HETATM    7  H   UNL     3      -9.637  18.003  67.149  1.00  0.00     0.000 HD 
ENDROOT
BRANCH   5   8
HETATM    8  C   UNL     2     -10.651   7.593  67.330  1.00  0.00    -0.286 C  
HETATM    9  O   UNL     2     -11.446   6.423  67.495  1.00  0.00    -0.686 OA 
HETATM   10  H   UNL     2     -12.078   6.591  68.185  1.00  0.00     0.000 HD 
BRANCH   8  11
HETATM   11  C   UNL     2      -9.952   7.887  68.667  1.00  0.00    -0.191 C  
HETATM   12  H   UNL     2      -8.120   8.373  69.335  1.00  0.00     0.000 HD 
HETATM   13  O   UNL     2      -8.552   8.191  68.509  1.00  0.00    -0.129 OA 
BRANCH  11  14
HETATM   14  C   UNL     2     -10.577   8.910  69.648  1.00  0.00    -0.226 C  
HETATM   15  O   UNL     2      -9.996  10.189  69.452  1.00  0.00    -0.204 OA 
HETATM   16  H   UNL     2     -10.380  10.816  70.054  1.00  0.00     0.000 HD 
BRANCH  14  17
HETATM   17  C   UNL     2     -10.746   8.489  71.120  1.00  0.00    -0.234 C  
HETATM   18  H   UNL     2      -9.612   8.528  72.710  1.00  0.00     0.000 HD 
HETATM   19  O   UNL     2      -9.508   8.788  71.802  1.00  0.00    -0.260 OA 
BRANCH  17  20
HETATM   20  C   UNL     2     -11.952   9.080  71.851  1.00  0.00    -0.375 C  
HETATM   21  O   UNL     2     -12.339  10.353  71.289  1.00  0.00    -0.345 OA 
HETATM   22  C   UNL     2     -13.126   8.070  71.709  1.00  0.00    -0.336 C  
HETATM   23  H   UNL     2     -13.089  10.720  71.743  1.00  0.00     0.000 HD 
HETATM   24  O   UNL     2     -12.784   6.862  71.816  1.00  0.00    -0.357 OA 
HETATM   25  O   UNL     2     -14.236   8.622  71.483  1.00  0.00    -0.410 OA 
ENDBRANCH  17  20
ENDBRANCH  14  17
ENDBRANCH  11  14
ENDBRANCH   8  11
ENDBRANCH   5   8
BRANCH   6  26
HETATM   26  C   UNL     3      -9.935  14.990  65.934  1.00  0.00    -0.326 C  
HETATM   27  H   UNL     3     -10.648  13.483  66.884  1.00  0.00     0.000 HD 
HETATM   28  O   UNL     3     -10.186  14.273  67.136  1.00  0.00    -0.251 OA 
BRANCH  26  29
HETATM   29  C   UNL     3     -11.220  15.293  65.120  1.00  0.00    -0.370 C  
HETATM   30  O   UNL     3     -10.912  16.338  64.095  1.00  0.00    -1.126 OA 
HETATM   31  H   UNL     3     -11.699  16.523  63.597  1.00  0.00     0.000 HD 
BRANCH  29  32
HETATM   32  C   UNL     3     -11.715  14.115  64.253  1.00  0.00    -0.345 C  
HETATM   33  H   UNL     3     -13.138  13.882  62.911  1.00  0.00     0.000 HD 
HETATM   34  O   UNL     3     -12.834  14.607  63.445  1.00  0.00    -0.401 OA 
BRANCH  32  35
HETATM   35  C   UNL     3     -11.861  12.663  64.735  1.00  0.00    -0.380 C  
HETATM   36  H   UNL     3     -13.281  11.351  64.695  1.00  0.00     0.000 HD 
HETATM   37  O   UNL     3     -13.191  12.249  64.397  1.00  0.00    -0.806 OA 
BRANCH  35  38
HETATM   38  C   UNL     3     -10.807  11.672  64.254  1.00  0.00    -0.359 C  
HETATM   39  C   UNL     3     -10.140  10.955  65.457  1.00  0.00    -0.267 C  
HETATM   40  O   UNL     3      -9.781  12.340  63.492  1.00  0.00    -0.613 OA 
HETATM   41  O   UNL     3     -10.616  11.230  66.604  1.00  0.00    -0.241 OA 
HETATM   42  O   UNL     3      -9.060  10.371  65.166  1.00  0.00    -0.174 OA 
HETATM   43  H   UNL     3      -9.124  11.723  63.192  1.00  0.00     0.000 HD 
ENDBRANCH  35  38
ENDBRANCH  32  35
ENDBRANCH  29  32
ENDBRANCH  26  29
ENDBRANCH   6  26
TORSDOF 10
ENDMDL
MODEL       35
REMARK 921   NORMALIZED FREE ENERGY PREDICTED BY IDOCK:   -6.75 KCAL/MOL
REMARK 922        TOTAL FREE ENERGY PREDICTED BY IDOCK:  -13.20 KCAL/MOL
REMARK 923 INTER-LIGAND FREE ENERGY PREDICTED BY IDOCK:  -10.70 KCAL/MOL
REMARK 924 INTRA-LIGAND FREE ENERGY PREDICTED BY IDOCK:   -2.50 KCAL/MOL
REMARK 927      BINDING AFFINITY PREDICTED BY RF-SCORE:    0.00 PKD
ROOT
HETATM    1 CA   UNL     1      -8.914  13.254  68.988  1.00  0.00    -0.281 Ca 
HETATM    2  O   UNL     2      -8.195   7.963  66.888  1.00  0.00    -0.113 OA 
HETATM    3  O   UNL     3     -10.981  18.884  67.095  1.00  0.00    -0.410 OA 
HETATM    4  H   UNL     2      -7.257   7.943  66.737  1.00  0.00     0.000 HD 
HETATM    5  C   UNL     2      -8.558   9.261  67.358  1.00  0.00    -0.122 C  
HETATM    6  C   UNL     3      -9.780  18.136  67.260  1.00  0.00    -0.297 C  
HETATM    7  H   UNL     3     -10.908  19.723  67.535  1.00  0.00     0.000 HD 
ENDROOT
BRANCH   5   8
HETATM    8  C   UNL     2     -10.082   9.294  67.602  1.00  0.00    -0.214 C  
HETATM    9  O   UNL     2     -10.613   8.020  67.256  1.00  0.00    -0.333 OA 
HETATM   10  H   UNL     2     -11.551   8.041  67.407  1.00  0.00     0.000 HD 
BRANCH   8  11
HETATM   11  C   UNL     2     -10.404   9.560  69.082  1.00  0.00    -0.207 C  
HETATM   12  H   UNL     2      -9.585  10.500  70.657  1.00  0.00     0.000 HD 
HETATM   13  O   UNL     2      -9.385  10.336  69.742  1.00  0.00    -0.188 OA 
BRANCH  11  14
HETATM   14  C   UNL     2     -11.793  10.122  69.473  1.00  0.00     0.003 C  
HETATM   15  O   UNL     2     -12.162  11.166  68.586  1.00  0.00    -0.655 OA 
HETATM   16  H   UNL     2     -13.014  11.511  68.826  1.00  0.00     0.000 HD 
BRANCH  14  17
HETATM   17  C   UNL     2     -12.064  10.407  70.962  1.00  0.00    -0.385 C  
HETATM   18  H   UNL     2     -12.742  11.930  71.980  1.00  0.00     0.000 HD 
HETATM   19  O   UNL     2     -12.575  11.755  71.061  1.00  0.00    -0.374 OA 
BRANCH  17  20
HETATM   20  C   UNL     2     -12.967   9.405  71.681  1.00  0.00    -0.391 C  
HETATM   21  O   UNL     2     -14.051   8.966  70.834  1.00  0.00    -0.594 OA 
HETATM   22  C   UNL     2     -12.089   8.184  72.076  1.00  0.00    -0.340 C  
HETATM   23  H   UNL     2     -14.612   8.344  71.281  1.00  0.00     0.000 HD 
HETATM   24  O   UNL     2     -10.937   8.487  72.487  1.00  0.00    -0.353 OA 
HETATM   25  O   UNL     2     -12.663   7.076  71.897  1.00  0.00    -0.329 OA 
ENDBRANCH  17  20
ENDBRANCH  14  17
ENDBRANCH  11  14
ENDBRANCH   8  11
ENDBRANCH   5   8
BRANCH   6  26
HETATM   26  C   UNL     3      -9.899  16.780  66.550  1.00  0.00    -0.290 C  
HETATM   27  H   UNL     3      -8.720  15.709  65.479  1.00  0.00     0.000 HD 
HETATM   28  O   UNL     3      -8.646  16.548  65.919  1.00  0.00    -0.441 OA 
BRANCH  26  29
HETATM   29  C   UNL     3     -10.317  15.643  67.519  1.00  0.00    -0.277 C  
HETATM   30  O   UNL     3     -11.073  16.234  68.665  1.00  0.00    -0.324 OA 
HETATM   31  H   UNL     3     -11.329  15.538  69.258  1.00  0.00     0.000 HD 
BRANCH  29  32
HETATM   32  C   UNL     3     -11.339  14.649  66.926  1.00  0.00    -0.356 C  
HETATM   33  H   UNL     3     -12.908  13.688  67.630  1.00  0.00     0.000 HD 
HETATM   34  O   UNL     3     -12.279  14.299  67.995  1.00  0.00    -0.293 OA 
BRANCH  32  35
HETATM   35  C   UNL     3     -10.997  13.496  65.969  1.00  0.00    -0.275 C  
HETATM   36  H   UNL     3     -10.021  11.835  66.133  1.00  0.00     0.000 HD 
HETATM   37  O   UNL     3     -10.232  12.548  66.725  1.00  0.00    -0.227 OA 
BRANCH  35  38
HETATM   38  C   UNL     3     -12.165  12.845  65.237  1.00  0.00    -0.476 C  
HETATM   39  C   UNL     3     -11.740  12.408  63.810  1.00  0.00    -0.483 C  
HETATM   40  O   UNL     3     -13.277  13.756  65.126  1.00  0.00    -0.757 OA 
HETATM   41  O   UNL     3     -10.515  12.575  63.517  1.00  0.00    -0.420 OA 
HETATM   42  O   UNL     3     -12.712  12.160  63.044  1.00  0.00    -0.492 OA 
HETATM   43  H   UNL     3     -14.004  13.350  64.669  1.00  0.00     0.000 HD 
ENDBRANCH  35  38
ENDBRANCH  32  35
ENDBRANCH  29  32
ENDBRANCH  26  29
ENDBRANCH   6  26
TORSDOF 10
ENDMDL
MODEL       36
REMARK 921   NORMALIZED FREE ENERGY PREDICTED BY IDOCK:   -6.73 KCAL/MOL
REMARK 922        TOTAL FREE ENERGY PREDICTED BY IDOCK:  -13.16 KCAL/MOL
REMARK 923 INTER-LIGAND FREE ENERGY PREDICTED BY IDOCK:   -9.60 KCAL/MOL
REMARK 924 INTRA-LIGAND FREE ENERGY PREDICTED BY IDOCK:   -3.57 KCAL/MOL
REMARK 927      BINDING AFFINITY PREDICTED BY RF-SCORE:    0.00 PKD
ROOT
HETATM    1 CA   UNL     1     -12.273  11.742  68.081  1.00  0.00    -0.298 Ca 
HETATM    2  O   UNL     2     -10.536  16.030  64.688  1.00  0.00    -0.679 OA 
HETATM    3  O   UNL     3      -9.798   7.073  71.492  1.00  0.00    -0.173 OA 
HETATM    4  H   UNL     2     -10.723  15.680  63.824  1.00  0.00     0.000 HD 
HETATM    5  C   UNL     2     -10.854  15.042  65.666  1.00  0.00    -0.349 C  
HETATM    6  C   UNL     3     -10.370   7.338  70.214  1.00  0.00    -0.210 C  
HETATM    7  H   UNL     3     -10.239   6.339  71.903  1.00  0.00     0.000 HD 
ENDROOT
BRANCH   5   8
HETATM    8  C   UNL     2     -10.550  15.611  67.068  1.00  0.00    -0.311 C  
HETATM    9  O   UNL     2     -10.712  17.024  67.016  1.00  0.00    -0.265 OA 
HETATM   10  H   UNL     2     -10.525  17.375  67.879  1.00  0.00     0.000 HD 
BRANCH   8  11
HETATM   11  C   UNL     2     -11.525  15.058  68.119  1.00  0.00    -0.339 C  
HETATM   12  H   UNL     2     -12.935  13.633  68.264  1.00  0.00     0.000 HD 
HETATM   13  O   UNL     2     -12.332  13.975  67.614  1.00  0.00    -0.274 OA 
BRANCH  11  14
HETATM   14  C   UNL     2     -10.999  14.674  69.524  1.00  0.00    -0.245 C  
HETATM   15  O   UNL     2     -11.217  13.294  69.765  1.00  0.00    -0.469 OA 
HETATM   16  H   UNL     2     -10.894  13.058  70.627  1.00  0.00     0.000 HD 
BRANCH  14  17
HETATM   17  C   UNL     2     -11.343  15.604  70.703  1.00  0.00    -0.368 C  
HETATM   18  H   UNL     2     -11.220  17.525  71.034  1.00  0.00     0.000 HD 
HETATM   19  O   UNL     2     -11.007  16.952  70.306  1.00  0.00    -0.133 OA 
BRANCH  17  20
HETATM   20  C   UNL     2     -12.773  15.509  71.234  1.00  0.00    -0.462 C  
HETATM   21  O   UNL     2     -13.623  14.762  70.336  1.00  0.00    -0.542 OA 
HETATM   22  C   UNL     2     -12.714  14.792  72.612  1.00  0.00    -0.384 C  
HETATM   23  H   UNL     2     -14.512  14.703  70.666  1.00  0.00     0.000 HD 
HETATM   24  O   UNL     2     -11.737  15.133  73.331  1.00  0.00    -0.370 OA 
HETATM   25  O   UNL     2     -13.644  13.959  72.783  1.00  0.00    -0.654 OA 
ENDBRANCH  17  20
ENDBRANCH  14  17
ENDBRANCH  11  14
ENDBRANCH   8  11
ENDBRANCH   5   8
BRANCH   6  26
HETATM   26  C   UNL     3      -9.658   8.524  69.550  1.00  0.00    -0.170 C  
HETATM   27  H   UNL     3      -7.874   8.848  68.922  1.00  0.00     0.000 HD 
HETATM   28  O   UNL     3      -8.314   8.113  69.332  1.00  0.00    -0.120 OA 
BRANCH  26  29
HETATM   29  C   UNL     3     -10.374   8.991  68.255  1.00  0.00    -0.209 C  
HETATM   30  O   UNL     3     -11.614   9.739  68.628  1.00  0.00    -0.485 OA 
HETATM   31  H   UNL     3     -12.052  10.024  67.834  1.00  0.00     0.000 HD 
BRANCH  29  32
HETATM   32  C   UNL     3      -9.588  10.039  67.438  1.00  0.00    -0.154 C  
HETATM   33  H   UNL     3      -9.280  11.978  67.599  1.00  0.00     0.000 HD 
HETATM   34  O   UNL     3      -9.764  11.333  68.102  1.00  0.00    -0.172 OA 
BRANCH  32  35
HETATM   35  C   UNL     3      -9.538  10.106  65.904  1.00  0.00    -0.218 C  
HETATM   36  H   UNL     3      -9.129   8.842  64.498  1.00  0.00     0.000 HD 
HETATM   37  O   UNL     3      -9.159   8.801  65.447  1.00  0.00    -0.200 OA 
BRANCH  35  38
HETATM   38  C   UNL     3     -10.786  10.626  65.199  1.00  0.00    -0.017 C  
HETATM   39  C   UNL     3     -10.415  11.282  63.843  1.00  0.00    -0.391 C  
HETATM   40  O   UNL     3     -11.466  11.603  66.012  1.00  0.00    -0.305 OA 
HETATM   41  O   UNL     3      -9.192  11.211  63.505  1.00  0.00    -0.217 OA 
HETATM   42  O   UNL     3     -11.330  12.007  63.363  1.00  0.00    -0.415 OA 
HETATM   43  H   UNL     3     -12.244  11.928  65.573  1.00  0.00     0.000 HD 
ENDBRANCH  35  38
ENDBRANCH  32  35
ENDBRANCH  29  32
ENDBRANCH  26  29
ENDBRANCH   6  26
TORSDOF 10
ENDMDL
MODEL       37
REMARK 921   NORMALIZED FREE ENERGY PREDICTED BY IDOCK:   -6.73 KCAL/MOL
REMARK 922        TOTAL FREE ENERGY PREDICTED BY IDOCK:  -13.16 KCAL/MOL
REMARK 923 INTER-LIGAND FREE ENERGY PREDICTED BY IDOCK:  -10.13 KCAL/MOL
REMARK 924 INTRA-LIGAND FREE ENERGY PREDICTED BY IDOCK:   -3.03 KCAL/MOL
REMARK 927      BINDING AFFINITY PREDICTED BY RF-SCORE:    0.00 PKD
ROOT
HETATM    1 CA   UNL     1      -8.410  11.173  70.132  1.00  0.00    -0.353 Ca 
HETATM    2  O   UNL     2      -7.558  16.713  68.906  1.00  0.00    -0.219 OA 
HETATM    3  O   UNL     3     -13.174   7.112  70.737  1.00  0.00    -0.576 OA 
HETATM    4  H   UNL     2      -7.386  17.076  69.768  1.00  0.00     0.000 HD 
HETATM    5  C   UNL     2      -7.862  15.326  69.042  1.00  0.00    -0.184 C  
HETATM    6  C   UNL     3     -12.328   7.961  71.508  1.00  0.00    -0.315 C  
HETATM    7  H   UNL     3     -13.162   6.230  71.089  1.00  0.00     0.000 HD 
ENDROOT
BRANCH   5   8
HETATM    8  C   UNL     2      -8.141  14.737  67.643  1.00  0.00    -0.170 C  
HETATM    9  O   UNL     2      -8.009  13.321  67.725  1.00  0.00    -0.137 OA 
HETATM   10  H   UNL     2      -8.181  12.959  66.864  1.00  0.00     0.000 HD 
BRANCH   8  11
HETATM   11  C   UNL     2      -9.571  15.055  67.178  1.00  0.00    -0.217 C  
HETATM   12  H   UNL     2     -11.199  16.016  67.862  1.00  0.00     0.000 HD 
HETATM   13  O   UNL     2     -10.315  15.818  68.150  1.00  0.00    -0.234 OA 
BRANCH  11  14
HETATM   14  C   UNL     2      -9.800  15.673  65.777  1.00  0.00    -0.351 C  
HETATM   15  O   UNL     2      -9.365  17.023  65.764  1.00  0.00    -0.524 OA 
HETATM   16  H   UNL     2      -9.505  17.402  64.903  1.00  0.00     0.000 HD 
BRANCH  14  17
HETATM   17  C   UNL     2     -11.154  15.418  65.087  1.00  0.00    -0.394 C  
HETATM   18  H   UNL     2     -12.188  16.314  63.693  1.00  0.00     0.000 HD 
HETATM   19  O   UNL     2     -11.353  16.472  64.118  1.00  0.00    -1.060 OA 
BRANCH  17  20
HETATM   20  C   UNL     2     -11.339  14.034  64.466  1.00  0.00    -0.358 C  
HETATM   21  O   UNL     2     -10.133  13.245  64.565  1.00  0.00    -0.586 OA 
HETATM   22  C   UNL     2     -12.489  13.326  65.236  1.00  0.00    -0.489 C  
HETATM   23  H   UNL     2     -10.248  12.385  64.178  1.00  0.00     0.000 HD 
HETATM   24  O   UNL     2     -13.455  14.079  65.530  1.00  0.00    -0.677 OA 
HETATM   25  O   UNL     2     -12.260  12.108  65.468  1.00  0.00    -0.549 OA 
ENDBRANCH  17  20
ENDBRANCH  14  17
ENDBRANCH  11  14
ENDBRANCH   8  11
ENDBRANCH   5   8
BRANCH   6  26
HETATM   26  C   UNL     3     -12.347   9.386  70.939  1.00  0.00    -0.193 C  
HETATM   27  H   UNL     3     -13.052  11.069  71.536  1.00  0.00     0.000 HD 
HETATM   28  O   UNL     3     -13.040  10.187  71.888  1.00  0.00    -0.426 OA 
BRANCH  26  29
HETATM   29  C   UNL     3     -10.923   9.911  70.618  1.00  0.00    -0.337 C  
HETATM   30  O   UNL     3      -9.931   8.827  70.898  1.00  0.00    -0.192 OA 
HETATM   31  H   UNL     3      -9.059   9.149  70.702  1.00  0.00     0.000 HD 
BRANCH  29  32
HETATM   32  C   UNL     3     -10.677  10.207  69.123  1.00  0.00    -0.226 C  
HETATM   33  H   UNL     3     -11.827  10.690  67.598  1.00  0.00     0.000 HD 
HETATM   34  O   UNL     3     -11.978  10.507  68.518  1.00  0.00    -0.354 OA 
BRANCH  32  35
HETATM   35  C   UNL     3      -9.711   9.429  68.216  1.00  0.00    -0.145 C  
HETATM   36  H   UNL     3      -9.654   7.627  67.516  1.00  0.00     0.000 HD 
HETATM   37  O   UNL     3     -10.251   8.108  68.077  1.00  0.00    -0.196 OA 
BRANCH  35  38
HETATM   38  C   UNL     3      -9.376  10.062  66.869  1.00  0.00    -0.159 C  
HETATM   39  C   UNL     3      -7.840  10.168  66.682  1.00  0.00    -0.110 C  
HETATM   40  O   UNL     3      -9.944  11.382  66.765  1.00  0.00    -0.202 OA 
HETATM   41  O   UNL     3      -7.129   9.655  67.603  1.00  0.00    -0.086 OA 
HETATM   42  O   UNL     3      -7.495  10.955  65.759  1.00  0.00    -0.111 OA 
HETATM   43  H   UNL     3      -9.736  11.777  65.926  1.00  0.00     0.000 HD 
ENDBRANCH  35  38
ENDBRANCH  32  35
ENDBRANCH  29  32
ENDBRANCH  26  29
ENDBRANCH   6  26
TORSDOF 10
ENDMDL
MODEL       38
REMARK 921   NORMALIZED FREE ENERGY PREDICTED BY IDOCK:   -6.71 KCAL/MOL
REMARK 922        TOTAL FREE ENERGY PREDICTED BY IDOCK:  -13.14 KCAL/MOL
REMARK 923 INTER-LIGAND FREE ENERGY PREDICTED BY IDOCK:   -9.84 KCAL/MOL
REMARK 924 INTRA-LIGAND FREE ENERGY PREDICTED BY IDOCK:   -3.30 KCAL/MOL
REMARK 927      BINDING AFFINITY PREDICTED BY RF-SCORE:    0.00 PKD
ROOT
HETATM    1 CA   UNL     1      -8.517  10.935  69.959  1.00  0.00    -0.342 Ca 
HETATM    2  O   UNL     2     -12.382   8.096  73.110  1.00  0.00    -0.652 OA 
HETATM    3  O   UNL     3      -6.125  10.841  64.144  1.00  0.00    -0.373 OA 
HETATM    4  H   UNL     2     -11.823   7.552  73.653  1.00  0.00     0.000 HD 
HETATM    5  C   UNL     2     -11.564   8.834  72.202  1.00  0.00    -0.364 C  
HETATM    6  C   UNL     3      -5.863  10.373  65.464  1.00  0.00    -0.119 C  
HETATM    7  H   UNL     3      -5.368  11.304  63.804  1.00  0.00     0.000 HD 
ENDROOT
BRANCH   5   8
HETATM    8  C   UNL     2     -12.471   9.718  71.320  1.00  0.00    -0.367 C  
HETATM    9  O   UNL     2     -13.261  10.535  72.178  1.00  0.00    -0.543 OA 
HETATM   10  H   UNL     2     -13.819  11.080  71.635  1.00  0.00     0.000 HD 
BRANCH   8  11
HETATM   11  C   UNL     2     -11.640  10.642  70.415  1.00  0.00    -0.351 C  
HETATM   12  H   UNL     2     -10.150  10.494  69.074  1.00  0.00     0.000 HD 
HETATM   13  O   UNL     2     -10.664   9.924  69.634  1.00  0.00    -0.221 OA 
BRANCH  11  14
HETATM   14  C   UNL     2     -12.358  11.664  69.499  1.00  0.00    -0.089 C  
HETATM   15  O   UNL     2     -12.097  11.364  68.138  1.00  0.00    -0.623 OA 
HETATM   16  H   UNL     2     -12.537  11.991  67.576  1.00  0.00     0.000 HD 
BRANCH  14  17
HETATM   17  C   UNL     2     -12.261  13.156  69.868  1.00  0.00    -0.225 C  
HETATM   18  H   UNL     2     -12.543  14.202  71.493  1.00  0.00     0.000 HD 
HETATM   19  O   UNL     2     -12.603  13.281  71.266  1.00  0.00    -0.358 OA 
BRANCH  17  20
HETATM   20  C   UNL     2     -10.934  13.841  69.545  1.00  0.00    -0.031 C  
HETATM   21  O   UNL     2     -10.023  12.941  68.876  1.00  0.00    -0.420 OA 
HETATM   22  C   UNL     2     -11.245  15.050  68.618  1.00  0.00    -0.278 C  
HETATM   23  H   UNL     2      -9.198  13.367  68.675  1.00  0.00     0.000 HD 
HETATM   24  O   UNL     2     -12.286  15.687  68.931  1.00  0.00    -0.251 OA 
HETATM   25  O   UNL     2     -10.415  15.188  67.680  1.00  0.00    -0.246 OA 
ENDBRANCH  17  20
ENDBRANCH  14  17
ENDBRANCH  11  14
ENDBRANCH   8  11
ENDBRANCH   5   8
BRANCH   6  26
HETATM   26  C   UNL     3      -7.086   9.624  66.012  1.00  0.00    -0.097 C  
HETATM   27  H   UNL     3      -7.981   9.559  67.709  1.00  0.00     0.000 HD 
HETATM   28  O   UNL     3      -7.224  10.023  67.370  1.00  0.00    -0.084 OA 
BRANCH  26  29
HETATM   29  C   UNL     3      -8.361   9.879  65.165  1.00  0.00    -0.148 C  
HETATM   30  O   UNL     3      -8.919   8.565  64.720  1.00  0.00    -0.412 OA 
HETATM   31  H   UNL     3      -9.699   8.721  64.201  1.00  0.00     0.000 HD 
BRANCH  29  32
HETATM   32  C   UNL     3      -9.538  10.487  65.958  1.00  0.00    -0.194 C  
HETATM   33  H   UNL     3     -11.205   9.776  66.730  1.00  0.00     0.000 HD 
HETATM   34  O   UNL     3     -10.481   9.402  66.242  1.00  0.00    -0.185 OA 
BRANCH  32  35
HETATM   35  C   UNL     3     -10.192  11.846  65.664  1.00  0.00    -0.245 C  
HETATM   36  H   UNL     3      -9.596  13.685  65.720  1.00  0.00     0.000 HD 
HETATM   37  O   UNL     3      -9.192  12.844  65.902  1.00  0.00    -0.041 OA 
BRANCH  35  38
HETATM   38  C   UNL     3     -10.856  12.006  64.300  1.00  0.00    -0.339 C  
HETATM   39  C   UNL     3     -12.333  12.453  64.460  1.00  0.00    -0.438 C  
HETATM   40  O   UNL     3     -10.828  10.766  63.565  1.00  0.00    -0.508 OA 
HETATM   41  O   UNL     3     -12.719  12.689  65.648  1.00  0.00    -0.540 OA 
HETATM   42  O   UNL     3     -13.026  12.298  63.417  1.00  0.00    -0.753 OA 
HETATM   43  H   UNL     3     -11.242  10.866  62.715  1.00  0.00     0.000 HD 
ENDBRANCH  35  38
ENDBRANCH  32  35
ENDBRANCH  29  32
ENDBRANCH  26  29
ENDBRANCH   6  26
TORSDOF 10
ENDMDL
MODEL       39
REMARK 921   NORMALIZED FREE ENERGY PREDICTED BY IDOCK:   -6.71 KCAL/MOL
REMARK 922        TOTAL FREE ENERGY PREDICTED BY IDOCK:  -13.12 KCAL/MOL
REMARK 923 INTER-LIGAND FREE ENERGY PREDICTED BY IDOCK:  -10.15 KCAL/MOL
REMARK 924 INTRA-LIGAND FREE ENERGY PREDICTED BY IDOCK:   -2.98 KCAL/MOL
REMARK 927      BINDING AFFINITY PREDICTED BY RF-SCORE:    0.00 PKD
ROOT
HETATM    1 CA   UNL     1     -13.265  10.624  69.103  1.00  0.00    -0.441 Ca 
HETATM    2  O   UNL     2     -12.176   6.118  72.484  1.00  0.00    -0.536 OA 
HETATM    3  O   UNL     3     -10.895  16.312  67.845  1.00  0.00    -0.325 OA 
HETATM    4  H   UNL     2     -12.827   6.229  73.167  1.00  0.00     0.000 HD 
HETATM    5  C   UNL     2     -12.267   7.216  71.576  1.00  0.00    -0.360 C  
HETATM    6  C   UNL     3     -11.892  15.670  68.635  1.00  0.00    -0.291 C  
HETATM    7  H   UNL     3     -11.281  17.019  67.341  1.00  0.00     0.000 HD 
ENDROOT
BRANCH   5   8
HETATM    8  C   UNL     2     -11.210   7.035  70.467  1.00  0.00    -0.295 C  
HETATM    9  O   UNL     2     -11.873   6.569  69.296  1.00  0.00    -0.608 OA 
HETATM   10  H   UNL     2     -11.221   6.458  68.613  1.00  0.00     0.000 HD 
BRANCH   8  11
HETATM   11  C   UNL     2     -10.524   8.369  70.127  1.00  0.00    -0.228 C  
HETATM   12  H   UNL     2     -11.039  10.273  69.744  1.00  0.00     0.000 HD 
HETATM   13  O   UNL     2     -11.463   9.449  69.954  1.00  0.00    -0.161 OA 
BRANCH  11  14
HETATM   14  C   UNL     2      -9.345   8.866  71.000  1.00  0.00    -0.249 C  
HETATM   15  O   UNL     2      -8.740   9.999  70.399  1.00  0.00    -0.314 OA 
HETATM   16  H   UNL     2      -8.017  10.304  70.934  1.00  0.00     0.000 HD 
BRANCH  14  17
HETATM   17  C   UNL     2      -8.361   7.817  71.551  1.00  0.00    -0.109 C  
HETATM   18  H   UNL     2      -6.418   7.681  71.690  1.00  0.00     0.000 HD 
HETATM   19  O   UNL     2      -7.025   8.328  71.350  1.00  0.00    -0.053 OA 
BRANCH  17  20
HETATM   20  C   UNL     2      -8.590   7.380  72.997  1.00  0.00    -0.129 C  
HETATM   21  O   UNL     2      -9.754   8.019  73.566  1.00  0.00    -0.263 OA 
HETATM   22  C   UNL     2      -8.792   5.838  72.993  1.00  0.00    -0.123 C  
HETATM   23  H   UNL     2      -9.896   7.747  74.465  1.00  0.00     0.000 HD 
HETATM   24  O   UNL     2      -8.031   5.219  72.202  1.00  0.00    -0.106 OA 
HETATM   25  O   UNL     2      -9.708   5.452  73.768  1.00  0.00    -0.144 OA 
ENDBRANCH  17  20
ENDBRANCH  14  17
ENDBRANCH  11  14
ENDBRANCH   8  11
ENDBRANCH   5   8
BRANCH   6  26
HETATM   26  C   UNL     3     -11.268  14.528  69.449  1.00  0.00    -0.280 C  
HETATM   27  H   UNL     3     -11.911  13.325  70.799  1.00  0.00     0.000 HD 
HETATM   28  O   UNL     3     -12.297  14.032  70.295  1.00  0.00    -0.329 OA 
BRANCH  26  29
HETATM   29  C   UNL     3     -10.638  13.436  68.545  1.00  0.00    -0.253 C  
HETATM   30  O   UNL     3     -10.740  12.114  69.236  1.00  0.00    -0.417 OA 
HETATM   31  H   UNL     3     -10.354  11.446  68.682  1.00  0.00     0.000 HD 
BRANCH  29  32
HETATM   32  C   UNL     3     -11.405  13.182  67.229  1.00  0.00    -0.306 C  
HETATM   33  H   UNL     3     -12.528  11.719  66.538  1.00  0.00     0.000 HD 
HETATM   34  O   UNL     3     -12.056  11.875  67.348  1.00  0.00    -0.577 OA 
BRANCH  32  35
HETATM   35  C   UNL     3     -10.879  13.512  65.823  1.00  0.00    -0.275 C  
HETATM   36  H   UNL     3      -9.858  12.551  64.491  1.00  0.00     0.000 HD 
HETATM   37  O   UNL     3     -10.183  12.347  65.360  1.00  0.00    -0.271 OA 
BRANCH  35  38
HETATM   38  C   UNL     3     -11.902  14.015  64.810  1.00  0.00    -0.403 C  
HETATM   39  C   UNL     3     -11.597  15.482  64.408  1.00  0.00    -0.258 C  
HETATM   40  O   UNL     3     -13.236  13.955  65.352  1.00  0.00    -0.750 OA 
HETATM   41  O   UNL     3     -10.538  15.987  64.898  1.00  0.00    -0.587 OA 
HETATM   42  O   UNL     3     -12.560  16.062  63.834  1.00  0.00    -0.706 OA 
HETATM   43  H   UNL     3     -13.873  14.269  64.720  1.00  0.00     0.000 HD 
ENDBRANCH  35  38
ENDBRANCH  32  35
ENDBRANCH  29  32
ENDBRANCH  26  29
ENDBRANCH   6  26
TORSDOF 10
ENDMDL
MODEL       40
REMARK 921   NORMALIZED FREE ENERGY PREDICTED BY IDOCK:   -6.69 KCAL/MOL
REMARK 922        TOTAL FREE ENERGY PREDICTED BY IDOCK:  -13.10 KCAL/MOL
REMARK 923 INTER-LIGAND FREE ENERGY PREDICTED BY IDOCK:  -11.29 KCAL/MOL
REMARK 924 INTRA-LIGAND FREE ENERGY PREDICTED BY IDOCK:   -1.81 KCAL/MOL
REMARK 927      BINDING AFFINITY PREDICTED BY RF-SCORE:    0.00 PKD
ROOT
HETATM    1 CA   UNL     1     -10.654   7.913  67.822  1.00  0.00    -0.179 Ca 
HETATM    2  O   UNL     2     -14.049   8.780  72.365  1.00  0.00    -0.497 OA 
HETATM    3  O   UNL     3      -8.448  11.081  62.857  1.00  0.00    -0.361 OA 
HETATM    4  H   UNL     2     -14.850   8.349  72.091  1.00  0.00     0.000 HD 
HETATM    5  C   UNL     2     -13.101   8.713  71.301  1.00  0.00    -0.161 C  
HETATM    6  C   UNL     3      -9.491  10.186  63.234  1.00  0.00    -0.257 C  
HETATM    7  H   UNL     3      -7.990  10.748  62.095  1.00  0.00     0.000 HD 
ENDROOT
BRANCH   5   8
HETATM    8  C   UNL     2     -11.800   9.414  71.746  1.00  0.00    -0.382 C  
HETATM    9  O   UNL     2     -10.831   8.409  72.025  1.00  0.00    -0.272 OA 
HETATM   10  H   UNL     2     -10.030   8.840  72.300  1.00  0.00     0.000 HD 
BRANCH   8  11
HETATM   11  C   UNL     2     -11.243  10.317  70.634  1.00  0.00    -0.325 C  
HETATM   12  H   UNL     2     -10.192  10.135  68.931  1.00  0.00     0.000 HD 
HETATM   13  O   UNL     2     -10.536   9.577  69.618  1.00  0.00    -0.209 OA 
BRANCH  11  14
HETATM   14  C   UNL     2     -12.174  11.345  69.945  1.00  0.00    -0.277 C  
HETATM   15  O   UNL     2     -12.273  11.060  68.560  1.00  0.00    -0.757 OA 
HETATM   16  H   UNL     2     -12.845  11.691  68.137  1.00  0.00     0.000 HD 
BRANCH  14  17
HETATM   17  C   UNL     2     -11.988  12.834  70.292  1.00  0.00    -0.280 C  
HETATM   18  H   UNL     2     -11.801  14.483  69.262  1.00  0.00     0.000 HD 
HETATM   19  O   UNL     2     -11.916  13.564  69.048  1.00  0.00    -0.327 OA 
BRANCH  17  20
HETATM   20  C   UNL     2     -13.024  13.435  71.242  1.00  0.00    -0.287 C  
HETATM   21  O   UNL     2     -13.509  12.453  72.185  1.00  0.00    -0.525 OA 
HETATM   22  C   UNL     2     -12.335  14.597  72.011  1.00  0.00    -0.321 C  
HETATM   23  H   UNL     2     -14.153  12.827  72.775  1.00  0.00     0.000 HD 
HETATM   24  O   UNL     2     -11.565  15.300  71.303  1.00  0.00    -0.320 OA 
HETATM   25  O   UNL     2     -12.637  14.638  73.234  1.00  0.00    -0.434 OA 
ENDBRANCH  17  20
ENDBRANCH  14  17
ENDBRANCH  11  14
ENDBRANCH   8  11
ENDBRANCH   5   8
BRANCH   6  26
HETATM   26  C   UNL     3     -10.232  10.725  64.466  1.00  0.00    -0.359 C  
HETATM   27  H   UNL     3      -9.838  10.824  66.342  1.00  0.00     0.000 HD 
HETATM   28  O   UNL     3      -9.380  10.491  65.580  1.00  0.00    -0.179 OA 
BRANCH  26  29
HETATM   29  C   UNL     3     -10.635  12.214  64.305  1.00  0.00    -0.345 C  
HETATM   30  O   UNL     3     -11.936  12.289  63.572  1.00  0.00    -0.477 OA 
HETATM   31  H   UNL     3     -12.183  13.201  63.473  1.00  0.00     0.000 HD 
BRANCH  29  32
HETATM   32  C   UNL     3     -10.961  12.931  65.633  1.00  0.00    -0.271 C  
HETATM   33  H   UNL     3     -12.600  13.217  66.688  1.00  0.00     0.000 HD 
HETATM   34  O   UNL     3     -12.399  12.776  65.871  1.00  0.00    -0.551 OA 
BRANCH  32  35
HETATM   35  C   UNL     3     -10.379  14.283  66.074  1.00  0.00    -0.309 C  
HETATM   36  H   UNL     3      -8.682  14.863  66.798  1.00  0.00     0.000 HD 
HETATM   37  O   UNL     3      -9.043  14.027  66.525  1.00  0.00    -0.232 OA 
BRANCH  35  38
HETATM   38  C   UNL     3     -10.440  15.419  65.059  1.00  0.00    -0.381 C  
HETATM   39  C   UNL     3     -10.650  16.779  65.773  1.00  0.00    -0.250 C  
HETATM   40  O   UNL     3     -11.520  15.218  64.125  1.00  0.00    -0.674 OA 
HETATM   41  O   UNL     3     -10.652  16.748  67.044  1.00  0.00    -0.305 OA 
HETATM   42  O   UNL     3     -11.025  17.705  65.002  1.00  0.00    -0.780 OA 
HETATM   43  H   UNL     3     -11.558  15.926  63.493  1.00  0.00     0.000 HD 
ENDBRANCH  35  38
ENDBRANCH  32  35
ENDBRANCH  29  32
ENDBRANCH  26  29
ENDBRANCH   6  26
TORSDOF 10
ENDMDL
MODEL       41
REMARK 921   NORMALIZED FREE ENERGY PREDICTED BY IDOCK:   -6.66 KCAL/MOL
REMARK 922        TOTAL FREE ENERGY PREDICTED BY IDOCK:  -13.05 KCAL/MOL
REMARK 923 INTER-LIGAND FREE ENERGY PREDICTED BY IDOCK:   -9.96 KCAL/MOL
REMARK 924 INTRA-LIGAND FREE ENERGY PREDICTED BY IDOCK:   -3.09 KCAL/MOL
REMARK 927      BINDING AFFINITY PREDICTED BY RF-SCORE:    0.00 PKD
ROOT
HETATM    1 CA   UNL     1      -9.399  12.601  69.348  1.00  0.00    -0.370 Ca 
HETATM    2  O   UNL     2     -14.213  13.804  72.230  1.00  0.00    -0.552 OA 
HETATM    3  O   UNL     3      -7.637  10.607  63.649  1.00  0.00    -0.344 OA 
HETATM    4  H   UNL     2     -14.303  13.036  72.781  1.00  0.00     0.000 HD 
HETATM    5  C   UNL     2     -13.077  13.633  71.383  1.00  0.00    -0.319 C  
HETATM    6  C   UNL     3      -7.899  10.129  64.966  1.00  0.00    -0.140 C  
HETATM    7  H   UNL     3      -6.781  10.318  63.359  1.00  0.00     0.000 HD 
ENDROOT
BRANCH   5   8
HETATM    8  C   UNL     2     -12.930  14.881  70.487  1.00  0.00    -0.292 C  
HETATM    9  O   UNL     2     -12.702  16.006  71.330  1.00  0.00    -0.552 OA 
HETATM   10  H   UNL     2     -12.612  16.775  70.778  1.00  0.00     0.000 HD 
BRANCH   8  11
HETATM   11  C   UNL     2     -11.730  14.748  69.536  1.00  0.00    -0.321 C  
HETATM   12  H   UNL     2     -10.493  13.314  68.864  1.00  0.00     0.000 HD 
HETATM   13  O   UNL     2     -11.234  13.397  69.452  1.00  0.00    -0.244 OA 
BRANCH  11  14
HETATM   14  C   UNL     2     -11.818  15.337  68.106  1.00  0.00    -0.195 C  
HETATM   15  O   UNL     2     -12.448  14.410  67.237  1.00  0.00    -0.601 OA 
HETATM   16  H   UNL     2     -12.502  14.771  66.359  1.00  0.00     0.000 HD 
BRANCH  14  17
HETATM   17  C   UNL     2     -10.566  16.024  67.529  1.00  0.00    -0.313 C  
HETATM   18  H   UNL     2      -9.016  16.940  68.287  1.00  0.00     0.000 HD 
HETATM   19  O   UNL     2      -9.789  16.516  68.644  1.00  0.00    -0.230 OA 
BRANCH  17  20
HETATM   20  C   UNL     2      -9.719  15.181  66.576  1.00  0.00    -0.271 C  
HETATM   21  O   UNL     2      -9.766  13.780  66.925  1.00  0.00    -0.248 OA 
HETATM   22  C   UNL     2     -10.290  15.380  65.143  1.00  0.00    -0.374 C  
HETATM   23  H   UNL     2      -9.240  13.256  66.332  1.00  0.00     0.000 HD 
HETATM   24  O   UNL     2     -10.640  16.563  64.886  1.00  0.00    -0.689 OA 
HETATM   25  O   UNL     2     -10.337  14.315  64.471  1.00  0.00    -0.357 OA 
ENDBRANCH  17  20
ENDBRANCH  14  17
ENDBRANCH  11  14
ENDBRANCH   8  11
ENDBRANCH   5   8
BRANCH   6  26
HETATM   26  C   UNL     3      -9.284  10.597  65.434  1.00  0.00    -0.193 C  
HETATM   27  H   UNL     3     -10.837  11.308  64.558  1.00  0.00     0.000 HD 
HETATM   28  O   UNL     3      -9.980  11.018  64.268  1.00  0.00    -0.261 OA 
BRANCH  26  29
HETATM   29  C   UNL     3     -10.036   9.501  66.235  1.00  0.00    -0.257 C  
HETATM   30  O   UNL     3      -9.038   8.549  66.810  1.00  0.00    -0.138 OA 
HETATM   31  H   UNL     3      -9.499   7.878  67.300  1.00  0.00     0.000 HD 
BRANCH  29  32
HETATM   32  C   UNL     3     -10.762  10.021  67.494  1.00  0.00    -0.281 C  
HETATM   33  H   UNL     3     -11.456  11.772  68.072  1.00  0.00     0.000 HD 
HETATM   34  O   UNL     3     -11.009  11.452  67.297  1.00  0.00    -0.249 OA 
BRANCH  32  35
HETATM   35  C   UNL     3     -10.422   9.621  68.938  1.00  0.00    -0.215 C  
HETATM   36  H   UNL     3      -8.849   9.761  70.055  1.00  0.00     0.000 HD 
HETATM   37  O   UNL     3      -9.060  10.008  69.162  1.00  0.00    -0.161 OA 
BRANCH  35  38
HETATM   38  C   UNL     3     -11.356  10.134  70.029  1.00  0.00    -0.287 C  
HETATM   39  C   UNL     3     -11.735   8.991  71.007  1.00  0.00    -0.296 C  
HETATM   40  O   UNL     3     -12.566  10.673  69.461  1.00  0.00    -0.619 OA 
HETATM   41  O   UNL     3     -11.165   7.873  70.805  1.00  0.00    -0.261 OA 
HETATM   42  O   UNL     3     -12.735   9.253  71.731  1.00  0.00    -0.330 OA 
HETATM   43  H   UNL     3     -13.148  10.993  70.141  1.00  0.00     0.000 HD 
ENDBRANCH  35  38
ENDBRANCH  32  35
ENDBRANCH  29  32
ENDBRANCH  26  29
ENDBRANCH   6  26
TORSDOF 10
ENDMDL
MODEL       42
REMARK 921   NORMALIZED FREE ENERGY PREDICTED BY IDOCK:   -6.65 KCAL/MOL
REMARK 922        TOTAL FREE ENERGY PREDICTED BY IDOCK:  -13.03 KCAL/MOL
REMARK 923 INTER-LIGAND FREE ENERGY PREDICTED BY IDOCK:  -10.20 KCAL/MOL
REMARK 924 INTRA-LIGAND FREE ENERGY PREDICTED BY IDOCK:   -2.83 KCAL/MOL
REMARK 927      BINDING AFFINITY PREDICTED BY RF-SCORE:    0.00 PKD
ROOT
HETATM    1 CA   UNL     1     -10.107  11.245  68.813  1.00  0.00    -0.157 Ca 
HETATM    2  O   UNL     2     -11.542   6.298  71.343  1.00  0.00    -0.301 OA 
HETATM    3  O   UNL     3     -11.998  14.868  64.033  1.00  0.00    -0.791 OA 
HETATM    4  H   UNL     2     -10.877   5.710  71.004  1.00  0.00     0.000 HD 
HETATM    5  C   UNL     2     -11.366   7.583  70.749  1.00  0.00    -0.280 C  
HETATM    6  C   UNL     3     -11.052  13.853  64.356  1.00  0.00    -0.319 C  
HETATM    7  H   UNL     3     -11.559  15.614  63.643  1.00  0.00     0.000 HD 
ENDROOT
BRANCH   5   8
HETATM    8  C   UNL     2     -12.447   8.539  71.298  1.00  0.00    -0.249 C  
HETATM    9  O   UNL     2     -12.608   8.271  72.687  1.00  0.00    -0.582 OA 
HETATM   10  H   UNL     2     -13.273   8.860  73.026  1.00  0.00     0.000 HD 
BRANCH   8  11
HETATM   11  C   UNL     2     -12.024  10.009  71.142  1.00  0.00    -0.392 C  
HETATM   12  H   UNL     2     -10.401  11.059  70.592  1.00  0.00     0.000 HD 
HETATM   13  O   UNL     2     -10.663  10.151  70.689  1.00  0.00    -0.297 OA 
BRANCH  11  14
HETATM   14  C   UNL     2     -12.922  10.982  70.340  1.00  0.00    -0.053 C  
HETATM   15  O   UNL     2     -12.597  10.918  68.960  1.00  0.00    -0.683 OA 
HETATM   16  H   UNL     2     -13.148  11.515  68.468  1.00  0.00     0.000 HD 
BRANCH  14  17
HETATM   17  C   UNL     2     -13.124  12.404  70.896  1.00  0.00     0.156 C  
HETATM   18  H   UNL     2     -13.615  13.156  72.631  1.00  0.00     0.000 HD 
HETATM   19  O   UNL     2     -13.490  12.278  72.288  1.00  0.00    -0.520 OA 
BRANCH  17  20
HETATM   20  C   UNL     2     -11.956  13.371  70.703  1.00  0.00    -0.209 C  
HETATM   21  O   UNL     2     -11.099  12.955  69.616  1.00  0.00    -0.466 OA 
HETATM   22  C   UNL     2     -12.554  14.771  70.388  1.00  0.00    -0.346 C  
HETATM   23  H   UNL     2     -10.373  13.556  69.496  1.00  0.00     0.000 HD 
HETATM   24  O   UNL     2     -13.578  15.059  71.063  1.00  0.00    -0.410 OA 
HETATM   25  O   UNL     2     -11.932  15.389  69.483  1.00  0.00    -0.325 OA 
ENDBRANCH  17  20
ENDBRANCH  14  17
ENDBRANCH  11  14
ENDBRANCH   8  11
ENDBRANCH   5   8
BRANCH   6  26
HETATM   26  C   UNL     3     -11.762  12.647  64.987  1.00  0.00    -0.359 C  
HETATM   27  H   UNL     3     -13.595  12.166  65.288  1.00  0.00     0.000 HD 
HETATM   28  O   UNL     3     -13.156  12.912  64.898  1.00  0.00    -0.799 OA 
BRANCH  26  29
HETATM   29  C   UNL     3     -11.349  11.307  64.322  1.00  0.00    -0.045 C  
HETATM   30  O   UNL     3     -11.269  11.503  62.842  1.00  0.00    -0.763 OA 
HETATM   31  H   UNL     3     -11.017  10.682  62.435  1.00  0.00     0.000 HD 
BRANCH  29  32
HETATM   32  C   UNL     3      -9.919  10.840  64.672  1.00  0.00    -0.324 C  
HETATM   33  H   UNL     3      -8.605   9.643  63.822  1.00  0.00     0.000 HD 
HETATM   34  O   UNL     3      -9.485   9.931  63.608  1.00  0.00    -0.262 OA 
BRANCH  32  35
HETATM   35  C   UNL     3      -9.434  10.460  66.079  1.00  0.00    -0.185 C  
HETATM   36  H   UNL     3      -9.498   8.853  67.154  1.00  0.00     0.000 HD 
HETATM   37  O   UNL     3      -9.798   9.088  66.283  1.00  0.00    -0.258 OA 
BRANCH  35  38
HETATM   38  C   UNL     3      -7.964  10.720  66.390  1.00  0.00    -0.151 C  
HETATM   39  C   UNL     3      -7.796  12.062  67.150  1.00  0.00    -0.168 C  
HETATM   40  O   UNL     3      -7.183  10.777  65.180  1.00  0.00    -0.347 OA 
HETATM   41  O   UNL     3      -8.870  12.667  67.459  1.00  0.00    -0.167 OA 
HETATM   42  O   UNL     3      -6.610  12.495  67.159  1.00  0.00    -0.150 OA 
HETATM   43  H   UNL     3      -6.267  10.940  65.374  1.00  0.00     0.000 HD 
ENDBRANCH  35  38
ENDBRANCH  32  35
ENDBRANCH  29  32
ENDBRANCH  26  29
ENDBRANCH   6  26
TORSDOF 10
ENDMDL
MODEL       43
REMARK 921   NORMALIZED FREE ENERGY PREDICTED BY IDOCK:   -6.63 KCAL/MOL
REMARK 922        TOTAL FREE ENERGY PREDICTED BY IDOCK:  -13.01 KCAL/MOL
REMARK 923 INTER-LIGAND FREE ENERGY PREDICTED BY IDOCK:  -10.79 KCAL/MOL
REMARK 924 INTRA-LIGAND FREE ENERGY PREDICTED BY IDOCK:   -2.22 KCAL/MOL
REMARK 927      BINDING AFFINITY PREDICTED BY RF-SCORE:    0.00 PKD
ROOT
HETATM    1 CA   UNL     1      -8.932  10.410  66.334  1.00  0.00    -0.136 Ca 
HETATM    2  O   UNL     2      -9.207   6.458  70.484  1.00  0.00    -0.157 OA 
HETATM    3  O   UNL     3     -12.620  14.719  63.615  1.00  0.00    -1.014 OA 
HETATM    4  H   UNL     2      -9.292   5.656  69.981  1.00  0.00     0.000 HD 
HETATM    5  C   UNL     2      -9.192   7.567  69.587  1.00  0.00    -0.146 C  
HETATM    6  C   UNL     3     -12.161  13.380  63.450  1.00  0.00    -0.349 C  
HETATM    7  H   UNL     3     -12.465  15.219  62.823  1.00  0.00     0.000 HD 
ENDROOT
BRANCH   5   8
HETATM    8  C   UNL     2      -9.055   8.869  70.405  1.00  0.00    -0.190 C  
HETATM    9  O   UNL     2      -7.742   9.382  70.202  1.00  0.00    -0.099 OA 
HETATM   10  H   UNL     2      -7.657  10.183  70.706  1.00  0.00     0.000 HD 
BRANCH   8  11
HETATM   11  C   UNL     2     -10.060   9.933  69.935  1.00  0.00    -0.257 C  
HETATM   12  H   UNL     2     -10.488  10.967  68.267  1.00  0.00     0.000 HD 
HETATM   13  O   UNL     2      -9.867  10.310  68.557  1.00  0.00    -0.155 OA 
BRANCH  11  14
HETATM   14  C   UNL     2     -11.573   9.720  70.188  1.00  0.00    -0.182 C  
HETATM   15  O   UNL     2     -12.332  10.498  69.277  1.00  0.00    -0.665 OA 
HETATM   16  H   UNL     2     -13.260  10.367  69.432  1.00  0.00     0.000 HD 
BRANCH  14  17
HETATM   17  C   UNL     2     -12.073   9.749  71.644  1.00  0.00    -0.394 C  
HETATM   18  H   UNL     2     -13.176  10.964  72.705  1.00  0.00     0.000 HD 
HETATM   19  O   UNL     2     -12.867  10.946  71.806  1.00  0.00    -0.431 OA 
BRANCH  17  20
HETATM   20  C   UNL     2     -12.821   8.504  72.121  1.00  0.00    -0.369 C  
HETATM   21  O   UNL     2     -13.635   7.941  71.068  1.00  0.00    -0.564 OA 
HETATM   22  C   UNL     2     -11.757   7.463  72.570  1.00  0.00    -0.234 C  
HETATM   23  H   UNL     2     -14.099   7.167  71.365  1.00  0.00     0.000 HD 
HETATM   24  O   UNL     2     -10.782   7.958  73.195  1.00  0.00    -0.368 OA 
HETATM   25  O   UNL     2     -12.028   6.285  72.213  1.00  0.00    -0.312 OA 
ENDBRANCH  17  20
ENDBRANCH  14  17
ENDBRANCH  11  14
ENDBRANCH   8  11
ENDBRANCH   5   8
BRANCH   6  26
HETATM   26  C   UNL     3     -12.411  12.572  64.731  1.00  0.00    -0.457 C  
HETATM   27  H   UNL     3     -11.853  10.851  65.372  1.00  0.00     0.000 HD 
HETATM   28  O   UNL     3     -11.698  11.351  64.579  1.00  0.00    -0.095 OA 
BRANCH  26  29
HETATM   29  C   UNL     3     -12.017  13.358  66.009  1.00  0.00    -0.415 C  
HETATM   30  O   UNL     3     -11.964  12.412  67.165  1.00  0.00    -0.528 OA 
HETATM   31  H   UNL     3     -11.723  12.893  67.948  1.00  0.00     0.000 HD 
BRANCH  29  32
HETATM   32  C   UNL     3     -10.583  13.931  65.984  1.00  0.00    -0.293 C  
HETATM   33  H   UNL     3      -8.776  13.151  66.069  1.00  0.00     0.000 HD 
HETATM   34  O   UNL     3      -9.659  12.799  66.084  1.00  0.00    -0.254 OA 
BRANCH  32  35
HETATM   35  C   UNL     3     -10.126  15.200  66.720  1.00  0.00    -0.258 C  
HETATM   36  H   UNL     3      -8.666  15.631  67.913  1.00  0.00     0.000 HD 
HETATM   37  O   UNL     3      -8.949  14.846  67.458  1.00  0.00    -0.174 OA 
BRANCH  35  38
HETATM   38  C   UNL     3      -9.922  16.449  65.870  1.00  0.00    -0.332 C  
HETATM   39  C   UNL     3     -10.391  17.714  66.636  1.00  0.00    -0.333 C  
HETATM   40  O   UNL     3     -10.661  16.359  64.636  1.00  0.00    -0.773 OA 
HETATM   41  O   UNL     3     -10.775  17.531  67.834  1.00  0.00    -0.384 OA 
HETATM   42  O   UNL     3     -10.552  18.725  65.897  1.00  0.00    -0.475 OA 
HETATM   43  H   UNL     3     -10.534  17.138  64.106  1.00  0.00     0.000 HD 
ENDBRANCH  35  38
ENDBRANCH  32  35
ENDBRANCH  29  32
ENDBRANCH  26  29
ENDBRANCH   6  26
TORSDOF 10
ENDMDL
MODEL       44
REMARK 921   NORMALIZED FREE ENERGY PREDICTED BY IDOCK:   -6.63 KCAL/MOL
REMARK 922        TOTAL FREE ENERGY PREDICTED BY IDOCK:  -13.00 KCAL/MOL
REMARK 923 INTER-LIGAND FREE ENERGY PREDICTED BY IDOCK:   -9.71 KCAL/MOL
REMARK 924 INTRA-LIGAND FREE ENERGY PREDICTED BY IDOCK:   -3.30 KCAL/MOL
REMARK 927      BINDING AFFINITY PREDICTED BY RF-SCORE:    0.00 PKD
ROOT
HETATM    1 CA   UNL     1     -13.787  10.247  69.371  1.00  0.00    -0.440 Ca 
HETATM    2  O   UNL     2     -11.082   7.623  73.698  1.00  0.00    -0.522 OA 
HETATM    3  O   UNL     3     -12.409  13.631  64.252  1.00  0.00    -0.563 OA 
HETATM    4  H   UNL     2     -11.222   8.235  74.411  1.00  0.00     0.000 HD 
HETATM    5  C   UNL     2     -11.646   8.166  72.506  1.00  0.00    -0.404 C  
HETATM    6  C   UNL     3     -12.792  13.779  65.617  1.00  0.00    -0.408 C  
HETATM    7  H   UNL     3     -12.994  14.126  63.692  1.00  0.00     0.000 HD 
ENDROOT
BRANCH   5   8
HETATM    8  C   UNL     2     -11.419   7.172  71.347  1.00  0.00    -0.272 C  
HETATM    9  O   UNL     2     -12.557   7.221  70.493  1.00  0.00    -0.591 OA 
HETATM   10  H   UNL     2     -12.417   6.608  69.780  1.00  0.00     0.000 HD 
BRANCH   8  11
HETATM   11  C   UNL     2     -10.183   7.555  70.517  1.00  0.00    -0.201 C  
HETATM   12  H   UNL     2      -8.574   6.661  69.711  1.00  0.00     0.000 HD 
HETATM   13  O   UNL     2      -9.338   6.425  70.224  1.00  0.00    -0.157 OA 
BRANCH  11  14
HETATM   14  C   UNL     2     -10.358   8.395  69.228  1.00  0.00    -0.214 C  
HETATM   15  O   UNL     2     -11.517   9.206  69.330  1.00  0.00    -0.430 OA 
HETATM   16  H   UNL     2     -11.624   9.722  68.539  1.00  0.00     0.000 HD 
BRANCH  14  17
HETATM   17  C   UNL     2     -10.178   7.685  67.873  1.00  0.00    -0.198 C  
HETATM   18  H   UNL     2     -11.195   6.363  66.856  1.00  0.00     0.000 HD 
HETATM   19  O   UNL     2     -11.307   6.801  67.692  1.00  0.00    -0.208 OA 
BRANCH  17  20
HETATM   20  C   UNL     2      -9.971   8.595  66.662  1.00  0.00    -0.287 C  
HETATM   21  O   UNL     2     -10.833   9.753  66.718  1.00  0.00    -0.134 OA 
HETATM   22  C   UNL     2      -8.485   9.051  66.669  1.00  0.00    -0.122 C  
HETATM   23  H   UNL     2     -10.704  10.319  65.966  1.00  0.00     0.000 HD 
HETATM   24  O   UNL     2      -7.669   8.148  66.994  1.00  0.00    -0.094 OA 
HETATM   25  O   UNL     2      -8.333  10.266  66.369  1.00  0.00    -0.126 OA 
ENDBRANCH  17  20
ENDBRANCH  14  17
ENDBRANCH  11  14
ENDBRANCH   8  11
ENDBRANCH   5   8
BRANCH   6  26
HETATM   26  C   UNL     3     -11.845  12.979  66.523  1.00  0.00    -0.403 C  
HETATM   27  H   UNL     3     -10.249  11.953  66.237  1.00  0.00     0.000 HD 
HETATM   28  O   UNL     3     -10.834  12.448  65.676  1.00  0.00    -0.263 OA 
BRANCH  26  29
HETATM   29  C   UNL     3     -11.283  13.835  67.688  1.00  0.00    -0.293 C  
HETATM   30  O   UNL     3     -12.274  14.901  68.031  1.00  0.00    -0.567 OA 
HETATM   31  H   UNL     3     -11.929  15.425  68.745  1.00  0.00     0.000 HD 
BRANCH  29  32
HETATM   32  C   UNL     3     -11.140  13.073  69.024  1.00  0.00    -0.231 C  
HETATM   33  H   UNL     3     -10.549  11.264  69.532  1.00  0.00     0.000 HD 
HETATM   34  O   UNL     3     -10.638  11.733  68.710  1.00  0.00    -0.208 OA 
BRANCH  32  35
HETATM   35  C   UNL     3     -12.146  13.127  70.183  1.00  0.00    -0.321 C  
HETATM   36  H   UNL     3     -12.898  11.820  71.395  1.00  0.00     0.000 HD 
HETATM   37  O   UNL     3     -12.276  11.787  70.677  1.00  0.00    -0.371 OA 
BRANCH  35  38
HETATM   38  C   UNL     3     -11.856  14.128  71.296  1.00  0.00    -0.064 C  
HETATM   39  C   UNL     3     -13.146  14.892  71.694  1.00  0.00    -0.341 C  
HETATM   40  O   UNL     3     -10.864  15.088  70.881  1.00  0.00    -0.530 OA 
HETATM   41  O   UNL     3     -14.216  14.521  71.115  1.00  0.00    -0.299 OA 
HETATM   42  O   UNL     3     -12.930  15.939  72.365  1.00  0.00    -0.445 OA 
HETATM   43  H   UNL     3     -10.683  15.712  71.574  1.00  0.00     0.000 HD 
ENDBRANCH  35  38
ENDBRANCH  32  35
ENDBRANCH  29  32
ENDBRANCH  26  29
ENDBRANCH   6  26
TORSDOF 10
ENDMDL
MODEL       45
REMARK 921   NORMALIZED FREE ENERGY PREDICTED BY IDOCK:   -6.61 KCAL/MOL
REMARK 922        TOTAL FREE ENERGY PREDICTED BY IDOCK:  -12.98 KCAL/MOL
REMARK 923 INTER-LIGAND FREE ENERGY PREDICTED BY IDOCK:  -11.36 KCAL/MOL
REMARK 924 INTRA-LIGAND FREE ENERGY PREDICTED BY IDOCK:   -1.63 KCAL/MOL
REMARK 927      BINDING AFFINITY PREDICTED BY RF-SCORE:    0.00 PKD
ROOT
HETATM    1 CA   UNL     1     -11.888   9.436  67.618  1.00  0.00    -0.514 Ca 
HETATM    2  O   UNL     2     -10.043  10.714  62.338  1.00  0.00    -0.729 OA 
HETATM    3  O   UNL     3      -9.528   8.263  73.329  1.00  0.00    -0.246 OA 
HETATM    4  H   UNL     2     -10.136   9.878  61.894  1.00  0.00     0.000 HD 
HETATM    5  C   UNL     2     -10.404  10.552  63.708  1.00  0.00     0.038 C  
HETATM    6  C   UNL     3      -9.994   7.599  72.157  1.00  0.00    -0.183 C  
HETATM    7  H   UNL     3      -9.971   7.923  74.097  1.00  0.00     0.000 HD 
ENDROOT
BRANCH   5   8
HETATM    8  C   UNL     2     -10.253  11.909  64.428  1.00  0.00    -0.297 C  
HETATM    9  O   UNL     2      -9.704  12.841  63.503  1.00  0.00    -0.654 OA 
HETATM   10  H   UNL     2      -9.611  13.676  63.946  1.00  0.00     0.000 HD 
BRANCH   8  11
HETATM   11  C   UNL     2     -11.614  12.447  64.897  1.00  0.00    -0.343 C  
HETATM   12  H   UNL     2     -12.843  12.265  66.476  1.00  0.00     0.000 HD 
HETATM   13  O   UNL     2     -12.002  11.932  66.186  1.00  0.00    -0.537 OA 
BRANCH  11  14
HETATM   14  C   UNL     2     -11.885  13.972  64.866  1.00  0.00    -0.393 C  
HETATM   15  O   UNL     2     -12.201  14.382  63.546  1.00  0.00    -1.015 OA 
HETATM   16  H   UNL     2     -12.367  15.318  63.527  1.00  0.00     0.000 HD 
BRANCH  14  17
HETATM   17  C   UNL     2     -10.909  14.895  65.619  1.00  0.00    -0.341 C  
HETATM   18  H   UNL     2     -10.119  16.648  65.278  1.00  0.00     0.000 HD 
HETATM   19  O   UNL     2     -10.722  16.079  64.813  1.00  0.00    -0.611 OA 
BRANCH  17  20
HETATM   20  C   UNL     2     -11.291  15.242  67.058  1.00  0.00    -0.230 C  
HETATM   21  O   UNL     2     -12.439  14.484  67.498  1.00  0.00    -0.590 OA 
HETATM   22  C   UNL     2     -10.069  14.908  67.960  1.00  0.00    -0.221 C  
HETATM   23  H   UNL     2     -12.676  14.700  68.392  1.00  0.00     0.000 HD 
HETATM   24  O   UNL     2      -8.956  15.211  67.455  1.00  0.00    -0.172 OA 
HETATM   25  O   UNL     2     -10.387  14.362  69.050  1.00  0.00    -0.232 OA 
ENDBRANCH  17  20
ENDBRANCH  14  17
ENDBRANCH  11  14
ENDBRANCH   8  11
ENDBRANCH   5   8
BRANCH   6  26
HETATM   26  C   UNL     3      -9.277   8.149  70.916  1.00  0.00    -0.151 C  
HETATM   27  H   UNL     3      -9.012   7.522  69.122  1.00  0.00     0.000 HD 
HETATM   28  O   UNL     3      -9.455   7.182  69.890  1.00  0.00    -0.154 OA 
BRANCH  26  29
HETATM   29  C   UNL     3      -9.784   9.562  70.522  1.00  0.00    -0.263 C  
HETATM   30  O   UNL     3      -9.741   9.696  69.033  1.00  0.00    -0.159 OA 
HETATM   31  H   UNL     3     -10.051  10.561  68.792  1.00  0.00     0.000 HD 
BRANCH  29  32
HETATM   32  C   UNL     3     -11.275   9.811  70.834  1.00  0.00    -0.359 C  
HETATM   33  H   UNL     3     -12.912   8.719  70.746  1.00  0.00     0.000 HD 
HETATM   34  O   UNL     3     -11.995   8.566  70.553  1.00  0.00    -0.122 OA 
BRANCH  32  35
HETATM   35  C   UNL     3     -12.049  11.092  70.486  1.00  0.00    -0.377 C  
HETATM   36  H   UNL     3     -12.843  11.807  68.873  1.00  0.00     0.000 HD 
HETATM   37  O   UNL     3     -12.364  11.015  69.089  1.00  0.00    -0.451 OA 
BRANCH  35  38
HETATM   38  C   UNL     3     -13.273  11.407  71.338  1.00  0.00    -0.147 C  
HETATM   39  C   UNL     3     -13.300  12.910  71.721  1.00  0.00    -0.359 C  
HETATM   40  O   UNL     3     -13.272  10.625  72.549  1.00  0.00    -0.497 OA 
HETATM   41  O   UNL     3     -12.384  13.632  71.215  1.00  0.00    -0.345 OA 
HETATM   42  O   UNL     3     -14.087  13.178  72.671  1.00  0.00    -0.701 OA 
HETATM   43  H   UNL     3     -14.035  10.821  73.081  1.00  0.00     0.000 HD 
ENDBRANCH  35  38
ENDBRANCH  32  35
ENDBRANCH  29  32
ENDBRANCH  26  29
ENDBRANCH   6  26
TORSDOF 10
ENDMDL
MODEL       46
REMARK 921   NORMALIZED FREE ENERGY PREDICTED BY IDOCK:   -6.59 KCAL/MOL
REMARK 922        TOTAL FREE ENERGY PREDICTED BY IDOCK:  -12.94 KCAL/MOL
REMARK 923 INTER-LIGAND FREE ENERGY PREDICTED BY IDOCK:  -10.45 KCAL/MOL
REMARK 924 INTRA-LIGAND FREE ENERGY PREDICTED BY IDOCK:   -2.50 KCAL/MOL
REMARK 927      BINDING AFFINITY PREDICTED BY RF-SCORE:    0.00 PKD
ROOT
HETATM    1 CA   UNL     1      -8.946  12.640  65.538  1.00  0.00    -0.398 Ca 
HETATM    2  O   UNL     2     -10.924   7.410  66.824  1.00  0.00    -0.509 OA 
HETATM    3  O   UNL     3      -9.183  18.504  67.797  1.00  0.00    -0.275 OA 
HETATM    4  H   UNL     2     -11.639   7.317  66.204  1.00  0.00     0.000 HD 
HETATM    5  C   UNL     2     -10.354   8.710  66.680  1.00  0.00    -0.232 C  
HETATM    6  C   UNL     3      -9.810  17.651  66.844  1.00  0.00    -0.306 C  
HETATM    7  H   UNL     3      -8.907  19.313  67.382  1.00  0.00     0.000 HD 
ENDROOT
BRANCH   5   8
HETATM    8  C   UNL     2      -9.193   8.860  67.686  1.00  0.00    -0.136 C  
HETATM    9  O   UNL     2      -8.576  10.123  67.464  1.00  0.00    -0.119 OA 
HETATM   10  H   UNL     2      -7.861  10.215  68.083  1.00  0.00     0.000 HD 
BRANCH   8  11
HETATM   11  C   UNL     2      -9.703   8.827  69.136  1.00  0.00    -0.175 C  
HETATM   12  H   UNL     2     -11.309   9.432  70.182  1.00  0.00     0.000 HD 
HETATM   13  O   UNL     2     -10.994   9.452  69.286  1.00  0.00    -0.208 OA 
BRANCH  11  14
HETATM   14  C   UNL     2      -9.702   7.491  69.918  1.00  0.00    -0.171 C  
HETATM   15  O   UNL     2      -8.956   6.514  69.209  1.00  0.00    -0.131 OA 
HETATM   16  H   UNL     2      -8.956   5.694  69.689  1.00  0.00     0.000 HD 
BRANCH  14  17
HETATM   17  C   UNL     2     -11.038   6.993  70.501  1.00  0.00    -0.280 C  
HETATM   18  H   UNL     2     -12.475   5.828  69.874  1.00  0.00     0.000 HD 
HETATM   19  O   UNL     2     -11.650   6.135  69.514  1.00  0.00    -0.396 OA 
BRANCH  17  20
HETATM   20  C   UNL     2     -10.961   6.318  71.870  1.00  0.00    -0.256 C  
HETATM   21  O   UNL     2      -9.777   5.499  71.990  1.00  0.00    -0.157 OA 
HETATM   22  C   UNL     2     -10.927   7.441  72.944  1.00  0.00    -0.361 C  
HETATM   23  H   UNL     2      -9.729   5.079  72.840  1.00  0.00     0.000 HD 
HETATM   24  O   UNL     2     -11.692   8.412  72.701  1.00  0.00    -0.386 OA 
HETATM   25  O   UNL     2     -10.116   7.213  73.881  1.00  0.00    -0.322 OA 
ENDBRANCH  17  20
ENDBRANCH  14  17
ENDBRANCH  11  14
ENDBRANCH   8  11
ENDBRANCH   5   8
BRANCH   6  26
HETATM   26  C   UNL     3     -10.256  16.344  67.515  1.00  0.00    -0.273 C  
HETATM   27  H   UNL     3     -11.612  15.876  68.789  1.00  0.00     0.000 HD 
HETATM   28  O   UNL     3     -11.336  16.684  68.374  1.00  0.00    -0.321 OA 
BRANCH  26  29
HETATM   29  C   UNL     3     -10.617  15.246  66.481  1.00  0.00    -0.304 C  
HETATM   30  O   UNL     3      -9.364  14.775  65.814  1.00  0.00    -0.498 OA 
HETATM   31  H   UNL     3      -9.586  14.102  65.180  1.00  0.00     0.000 HD 
BRANCH  29  32
HETATM   32  C   UNL     3     -11.170  13.945  67.104  1.00  0.00    -0.313 C  
HETATM   33  H   UNL     3     -10.717  12.864  68.687  1.00  0.00     0.000 HD 
HETATM   34  O   UNL     3     -10.376  13.664  68.303  1.00  0.00    -0.237 OA 
BRANCH  32  35
HETATM   35  C   UNL     3     -11.601  12.701  66.312  1.00  0.00    -0.386 C  
HETATM   36  H   UNL     3     -12.328  10.972  66.785  1.00  0.00     0.000 HD 
HETATM   37  O   UNL     3     -12.061  11.742  67.274  1.00  0.00    -0.595 OA 
BRANCH  35  38
HETATM   38  C   UNL     3     -12.604  12.918  65.186  1.00  0.00    -0.471 C  
HETATM   39  C   UNL     3     -11.880  12.995  63.816  1.00  0.00    -0.502 C  
HETATM   40  O   UNL     3     -13.344  14.140  65.383  1.00  0.00    -0.705 OA 
HETATM   41  O   UNL     3     -10.626  12.787  63.835  1.00  0.00    -0.414 OA 
HETATM   42  O   UNL     3     -12.589  13.484  62.893  1.00  0.00    -0.607 OA 
HETATM   43  H   UNL     3     -13.969  14.276  64.681  1.00  0.00     0.000 HD 
ENDBRANCH  35  38
ENDBRANCH  32  35
ENDBRANCH  29  32
ENDBRANCH  26  29
ENDBRANCH   6  26
TORSDOF 10
ENDMDL
MODEL       47
REMARK 921   NORMALIZED FREE ENERGY PREDICTED BY IDOCK:   -6.58 KCAL/MOL
REMARK 922        TOTAL FREE ENERGY PREDICTED BY IDOCK:  -12.93 KCAL/MOL
REMARK 923 INTER-LIGAND FREE ENERGY PREDICTED BY IDOCK:  -10.90 KCAL/MOL
REMARK 924 INTRA-LIGAND FREE ENERGY PREDICTED BY IDOCK:   -2.03 KCAL/MOL
REMARK 927      BINDING AFFINITY PREDICTED BY RF-SCORE:    0.00 PKD
ROOT
HETATM    1 CA   UNL     1     -12.638  13.067  68.849  1.00  0.00    -0.270 Ca 
HETATM    2  O   UNL     2     -12.352  14.467  63.292  1.00  0.00    -1.033 OA 
HETATM    3  O   UNL     3     -10.757   8.462  72.697  1.00  0.00    -0.339 OA 
HETATM    4  H   UNL     2     -13.226  14.245  62.993  1.00  0.00     0.000 HD 
HETATM    5  C   UNL     2     -12.230  14.111  64.668  1.00  0.00    -0.445 C  
HETATM    6  C   UNL     3     -11.886   8.891  71.942  1.00  0.00    -0.370 C  
HETATM    7  H   UNL     3     -11.008   8.301  73.599  1.00  0.00     0.000 HD 
ENDROOT
BRANCH   5   8
HETATM    8  C   UNL     2     -10.810  14.472  65.154  1.00  0.00    -0.395 C  
HETATM    9  O   UNL     2      -9.873  13.820  64.303  1.00  0.00    -0.692 OA 
HETATM   10  H   UNL     2      -8.999  14.042  64.603  1.00  0.00     0.000 HD 
BRANCH   8  11
HETATM   11  C   UNL     2     -10.559  15.986  65.068  1.00  0.00    -0.316 C  
HETATM   12  H   UNL     2     -11.344  17.594  64.154  1.00  0.00     0.000 HD 
HETATM   13  O   UNL     2     -11.499  16.658  64.207  1.00  0.00    -1.075 OA 
BRANCH  11  14
HETATM   14  C   UNL     2     -10.396  16.810  66.369  1.00  0.00    -0.306 C  
HETATM   15  O   UNL     2     -10.329  18.193  66.064  1.00  0.00    -0.478 OA 
HETATM   16  H   UNL     2     -10.230  18.698  66.863  1.00  0.00     0.000 HD 
BRANCH  14  17
HETATM   17  C   UNL     2      -9.371  16.322  67.410  1.00  0.00    -0.221 C  
HETATM   18  H   UNL     2      -7.518  16.765  67.842  1.00  0.00     0.000 HD 
HETATM   19  O   UNL     2      -8.151  17.067  67.199  1.00  0.00    -0.178 OA 
BRANCH  17  20
HETATM   20  C   UNL     2      -9.822  16.373  68.869  1.00  0.00    -0.260 C  
HETATM   21  O   UNL     2     -10.625  17.544  69.134  1.00  0.00    -0.387 OA 
HETATM   22  C   UNL     2     -10.661  15.093  69.145  1.00  0.00    -0.256 C  
HETATM   23  H   UNL     2     -10.905  17.576  70.041  1.00  0.00     0.000 HD 
HETATM   24  O   UNL     2     -10.205  14.050  68.604  1.00  0.00    -0.236 OA 
HETATM   25  O   UNL     2     -11.684  15.308  69.848  1.00  0.00    -0.278 OA 
ENDBRANCH  17  20
ENDBRANCH  14  17
ENDBRANCH  11  14
ENDBRANCH   8  11
ENDBRANCH   5   8
BRANCH   6  26
HETATM   26  C   UNL     3     -11.481   9.151  70.484  1.00  0.00    -0.229 C  
HETATM   27  H   UNL     3     -10.432  10.488  69.592  1.00  0.00     0.000 HD 
HETATM   28  O   UNL     3     -10.683  10.328  70.494  1.00  0.00    -0.283 OA 
BRANCH  26  29
HETATM   29  C   UNL     3     -10.766   7.930  69.846  1.00  0.00    -0.244 C  
HETATM   30  O   UNL     3     -11.763   6.835  69.642  1.00  0.00    -0.609 OA 
HETATM   31  H   UNL     3     -11.324   6.088  69.252  1.00  0.00     0.000 HD 
BRANCH  29  32
HETATM   32  C   UNL     3     -10.246   8.177  68.414  1.00  0.00    -0.209 C  
HETATM   33  H   UNL     3      -9.290   7.089  67.078  1.00  0.00     0.000 HD 
HETATM   34  O   UNL     3      -9.609   6.937  67.960  1.00  0.00    -0.124 OA 
BRANCH  32  35
HETATM   35  C   UNL     3      -9.560   9.464  67.932  1.00  0.00    -0.134 C  
HETATM   36  H   UNL     3      -7.832  10.280  68.233  1.00  0.00     0.000 HD 
HETATM   37  O   UNL     3      -8.257   9.484  68.531  1.00  0.00    -0.110 OA 
BRANCH  35  38
HETATM   38  C   UNL     3      -9.507   9.691  66.425  1.00  0.00    -0.189 C  
HETATM   39  C   UNL     3     -10.454  10.849  66.013  1.00  0.00    -0.225 C  
HETATM   40  O   UNL     3      -9.899   8.501  65.712  1.00  0.00    -0.457 OA 
HETATM   41  O   UNL     3     -11.035  11.459  66.964  1.00  0.00    -0.264 OA 
HETATM   42  O   UNL     3     -10.706  10.883  64.777  1.00  0.00    -0.292 OA 
HETATM   43  H   UNL     3      -9.866   8.642  64.772  1.00  0.00     0.000 HD 
ENDBRANCH  35  38
ENDBRANCH  32  35
ENDBRANCH  29  32
ENDBRANCH  26  29
ENDBRANCH   6  26
TORSDOF 10
ENDMDL
MODEL       48
REMARK 921   NORMALIZED FREE ENERGY PREDICTED BY IDOCK:   -6.58 KCAL/MOL
REMARK 922        TOTAL FREE ENERGY PREDICTED BY IDOCK:  -12.93 KCAL/MOL
REMARK 923 INTER-LIGAND FREE ENERGY PREDICTED BY IDOCK:  -10.93 KCAL/MOL
REMARK 924 INTRA-LIGAND FREE ENERGY PREDICTED BY IDOCK:   -2.00 KCAL/MOL
REMARK 927      BINDING AFFINITY PREDICTED BY RF-SCORE:    0.00 PKD
ROOT
HETATM    1 CA   UNL     1      -7.351  13.041  68.333  1.00  0.00    -0.076 Ca 
HETATM    2  O   UNL     2      -8.108   7.373  68.811  1.00  0.00    -0.124 OA 
HETATM    3  O   UNL     3     -10.481  18.104  66.303  1.00  0.00    -0.392 OA 
HETATM    4  H   UNL     2      -7.593   7.049  68.081  1.00  0.00     0.000 HD 
HETATM    5  C   UNL     2      -8.080   8.799  68.797  1.00  0.00    -0.115 C  
HETATM    6  C   UNL     3      -9.511  17.149  65.880  1.00  0.00    -0.044 C  
HETATM    7  H   UNL     3     -10.157  18.985  66.160  1.00  0.00     0.000 HD 
ENDROOT
BRANCH   5   8
HETATM    8  C   UNL     2      -8.916   9.326  69.983  1.00  0.00    -0.198 C  
HETATM    9  O   UNL     2      -9.881  10.240  69.472  1.00  0.00    -0.224 OA 
HETATM   10  H   UNL     2     -10.396  10.564  70.201  1.00  0.00     0.000 HD 
BRANCH   8  11
HETATM   11  C   UNL     2      -9.667   8.185  70.688  1.00  0.00    -0.170 C  
HETATM   12  H   UNL     2      -9.247   6.573  71.811  1.00  0.00     0.000 HD 
HETATM   13  O   UNL     2      -8.783   7.278  71.375  1.00  0.00    -0.125 OA 
BRANCH  11  14
HETATM   14  C   UNL     2     -10.863   8.514  71.615  1.00  0.00    -0.286 C  
HETATM   15  O   UNL     2     -10.582   8.092  72.939  1.00  0.00    -0.346 OA 
HETATM   16  H   UNL     2     -11.317   8.294  73.508  1.00  0.00     0.000 HD 
BRANCH  14  17
HETATM   17  C   UNL     2     -12.281   8.181  71.111  1.00  0.00    -0.239 C  
HETATM   18  H   UNL     2     -13.398   6.579  71.081  1.00  0.00     0.000 HD 
HETATM   19  O   UNL     2     -12.524   6.785  71.392  1.00  0.00    -0.359 OA 
BRANCH  17  20
HETATM   20  C   UNL     2     -13.405   9.070  71.641  1.00  0.00    -0.377 C  
HETATM   21  O   UNL     2     -13.522   8.975  73.078  1.00  0.00    -0.888 OA 
HETATM   22  C   UNL     2     -13.071  10.535  71.242  1.00  0.00    -0.383 C  
HETATM   23  H   UNL     2     -14.222   9.527  73.408  1.00  0.00     0.000 HD 
HETATM   24  O   UNL     2     -12.588  10.658  70.085  1.00  0.00    -0.318 OA 
HETATM   25  O   UNL     2     -13.315  11.370  72.154  1.00  0.00    -0.469 OA 
ENDBRANCH  17  20
ENDBRANCH  14  17
ENDBRANCH  11  14
ENDBRANCH   8  11
ENDBRANCH   5   8
BRANCH   6  26
HETATM   26  C   UNL     3     -10.035  15.724  66.111  1.00  0.00    -0.311 C  
HETATM   27  H   UNL     3     -10.613  14.731  67.648  1.00  0.00     0.000 HD 
HETATM   28  O   UNL     3     -10.288  15.612  67.505  1.00  0.00    -0.265 OA 
BRANCH  26  29
HETATM   29  C   UNL     3     -11.275  15.404  65.235  1.00  0.00    -0.310 C  
HETATM   30  O   UNL     3     -11.305  16.343  64.072  1.00  0.00    -1.416 OA 
HETATM   31  H   UNL     3     -12.064  16.147  63.536  1.00  0.00     0.000 HD 
BRANCH  29  32
HETATM   32  C   UNL     3     -11.226  14.024  64.545  1.00  0.00    -0.350 C  
HETATM   33  H   UNL     3     -12.191  13.187  63.045  1.00  0.00     0.000 HD 
HETATM   34  O   UNL     3     -12.222  14.037  63.470  1.00  0.00    -0.626 OA 
BRANCH  32  35
HETATM   35  C   UNL     3     -11.082  12.678  65.271  1.00  0.00    -0.295 C  
HETATM   36  H   UNL     3     -12.259  11.575  66.339  1.00  0.00     0.000 HD 
HETATM   37  O   UNL     3     -12.347  12.407  65.890  1.00  0.00    -0.638 OA 
BRANCH  35  38
HETATM   38  C   UNL     3     -10.581  11.501  64.442  1.00  0.00    -0.334 C  
HETATM   39  C   UNL     3      -9.899  10.443  65.349  1.00  0.00    -0.283 C  
HETATM   40  O   UNL     3      -9.629  11.938  63.451  1.00  0.00    -0.533 OA 
HETATM   41  O   UNL     3      -9.940  10.671  66.599  1.00  0.00    -0.197 OA 
HETATM   42  O   UNL     3      -9.189   9.613  64.716  1.00  0.00    -0.234 OA 
HETATM   43  H   UNL     3      -9.316  11.205  62.934  1.00  0.00     0.000 HD 
ENDBRANCH  35  38
ENDBRANCH  32  35
ENDBRANCH  29  32
ENDBRANCH  26  29
ENDBRANCH   6  26
TORSDOF 10
ENDMDL
MODEL       49
REMARK 921   NORMALIZED FREE ENERGY PREDICTED BY IDOCK:   -6.57 KCAL/MOL
REMARK 922        TOTAL FREE ENERGY PREDICTED BY IDOCK:  -12.91 KCAL/MOL
REMARK 923 INTER-LIGAND FREE ENERGY PREDICTED BY IDOCK:  -10.45 KCAL/MOL
REMARK 924 INTRA-LIGAND FREE ENERGY PREDICTED BY IDOCK:   -2.45 KCAL/MOL
REMARK 927      BINDING AFFINITY PREDICTED BY RF-SCORE:    0.00 PKD
ROOT
HETATM    1 CA   UNL     1      -8.765  11.476  68.331  1.00  0.00    -0.117 Ca 
HETATM    2  O   UNL     2     -10.974   6.276  69.336  1.00  0.00    -0.300 OA 
HETATM    3  O   UNL     3     -10.708  17.418  67.639  1.00  0.00    -0.363 OA 
HETATM    4  H   UNL     2     -10.947   5.886  68.470  1.00  0.00     0.000 HD 
HETATM    5  C   UNL     2     -10.512   7.623  69.249  1.00  0.00    -0.218 C  
HETATM    6  C   UNL     3     -10.361  16.262  66.880  1.00  0.00    -0.299 C  
HETATM    7  H   UNL     3     -10.218  18.171  67.332  1.00  0.00     0.000 HD 
ENDROOT
BRANCH   5   8
HETATM    8  C   UNL     2     -10.555   8.257  70.656  1.00  0.00    -0.215 C  
HETATM    9  O   UNL     2      -9.256   8.151  71.229  1.00  0.00    -0.143 OA 
HETATM   10  H   UNL     2      -9.283   8.541  72.095  1.00  0.00     0.000 HD 
BRANCH   8  11
HETATM   11  C   UNL     2     -10.924   9.748  70.585  1.00  0.00    -0.331 C  
HETATM   12  H   UNL     2     -10.211  11.440  69.769  1.00  0.00     0.000 HD 
HETATM   13  O   UNL     2      -9.982  10.518  69.813  1.00  0.00    -0.179 OA 
BRANCH  11  14
HETATM   14  C   UNL     2     -12.360  10.161  70.179  1.00  0.00    -0.074 C  
HETATM   15  O   UNL     2     -12.401  10.483  68.798  1.00  0.00    -0.790 OA 
HETATM   16  H   UNL     2     -13.282  10.737  68.549  1.00  0.00     0.000 HD 
BRANCH  14  17
HETATM   17  C   UNL     2     -13.118  11.138  71.098  1.00  0.00    -0.190 C  
HETATM   18  H   UNL     2     -13.899  11.034  72.885  1.00  0.00     0.000 HD 
HETATM   19  O   UNL     2     -13.431  10.431  72.319  1.00  0.00    -0.363 OA 
BRANCH  17  20
HETATM   20  C   UNL     2     -12.424  12.471  71.377  1.00  0.00    -0.099 C  
HETATM   21  O   UNL     2     -11.760  12.978  70.198  1.00  0.00    -0.488 OA 
HETATM   22  C   UNL     2     -13.515  13.480  71.834  1.00  0.00    -0.442 C  
HETATM   23  H   UNL     2     -11.328  13.806  70.372  1.00  0.00     0.000 HD 
HETATM   24  O   UNL     2     -14.385  12.987  72.600  1.00  0.00    -0.565 OA 
HETATM   25  O   UNL     2     -13.369  14.631  71.344  1.00  0.00    -0.339 OA 
ENDBRANCH  17  20
ENDBRANCH  14  17
ENDBRANCH  11  14
ENDBRANCH   8  11
ENDBRANCH   5   8
BRANCH   6  26
HETATM   26  C   UNL     3     -11.153  15.045  67.377  1.00  0.00    -0.324 C  
HETATM   27  H   UNL     3     -12.442  14.749  68.767  1.00  0.00     0.000 HD 
HETATM   28  O   UNL     3     -11.952  15.502  68.460  1.00  0.00    -0.319 OA 
BRANCH  26  29
HETATM   29  C   UNL     3     -11.978  14.378  66.245  1.00  0.00    -0.376 C  
HETATM   30  O   UNL     3     -11.619  15.016  64.941  1.00  0.00    -0.386 OA 
HETATM   31  H   UNL     3     -12.125  14.607  64.248  1.00  0.00     0.000 HD 
BRANCH  29  32
HETATM   32  C   UNL     3     -11.629  12.894  65.995  1.00  0.00    -0.375 C  
HETATM   33  H   UNL     3     -10.087  11.743  66.414  1.00  0.00     0.000 HD 
HETATM   34  O   UNL     3     -10.301  12.656  66.567  1.00  0.00    -0.237 OA 
BRANCH  32  35
HETATM   35  C   UNL     3     -11.916  12.126  64.696  1.00  0.00    -0.323 C  
HETATM   36  H   UNL     3     -13.283  12.223  63.331  1.00  0.00     0.000 HD 
HETATM   37  O   UNL     3     -13.105  12.697  64.134  1.00  0.00    -0.715 OA 
BRANCH  35  38
HETATM   38  C   UNL     3     -10.780  12.045  63.683  1.00  0.00    -0.449 C  
HETATM   39  C   UNL     3      -9.913  10.782  63.933  1.00  0.00    -0.343 C  
HETATM   40  O   UNL     3      -9.932  13.207  63.765  1.00  0.00    -0.741 OA 
HETATM   41  O   UNL     3     -10.319  10.001  64.850  1.00  0.00    -0.169 OA 
HETATM   42  O   UNL     3      -8.792  10.814  63.356  1.00  0.00    -0.179 OA 
HETATM   43  H   UNL     3      -9.223  13.157  63.133  1.00  0.00     0.000 HD 
ENDBRANCH  35  38
ENDBRANCH  32  35
ENDBRANCH  29  32
ENDBRANCH  26  29
ENDBRANCH   6  26
TORSDOF 10
ENDMDL
MODEL       50
REMARK 921   NORMALIZED FREE ENERGY PREDICTED BY IDOCK:   -6.56 KCAL/MOL
REMARK 922        TOTAL FREE ENERGY PREDICTED BY IDOCK:  -12.90 KCAL/MOL
REMARK 923 INTER-LIGAND FREE ENERGY PREDICTED BY IDOCK:   -9.88 KCAL/MOL
REMARK 924 INTRA-LIGAND FREE ENERGY PREDICTED BY IDOCK:   -3.02 KCAL/MOL
REMARK 927      BINDING AFFINITY PREDICTED BY RF-SCORE:    0.00 PKD
ROOT
HETATM    1 CA   UNL     1     -11.796   9.270  67.347  1.00  0.00    -0.397 Ca 
HETATM    2  O   UNL     2      -9.916  13.535  64.000  1.00  0.00    -0.734 OA 
HETATM    3  O   UNL     3     -11.866   7.673  73.429  1.00  0.00    -0.514 OA 
HETATM    4  H   UNL     2      -9.138  13.148  63.616  1.00  0.00     0.000 HD 
HETATM    5  C   UNL     2     -10.481  12.610  64.928  1.00  0.00    -0.309 C  
HETATM    6  C   UNL     3     -11.130   7.456  72.228  1.00  0.00    -0.266 C  
HETATM    7  H   UNL     3     -12.103   6.842  73.823  1.00  0.00     0.000 HD 
ENDROOT
BRANCH   5   8
HETATM    8  C   UNL     2     -11.745  13.238  65.552  1.00  0.00    -0.346 C  
HETATM    9  O   UNL     2     -12.882  12.686  64.896  1.00  0.00    -0.763 OA 
HETATM   10  H   UNL     2     -13.661  13.072  65.280  1.00  0.00     0.000 HD 
BRANCH   8  11
HETATM   11  C   UNL     2     -11.852  12.908  67.050  1.00  0.00    -0.374 C  
HETATM   12  H   UNL     2     -11.840  11.290  68.240  1.00  0.00     0.000 HD 
HETATM   13  O   UNL     2     -11.774  11.494  67.315  1.00  0.00    -0.576 OA 
BRANCH  11  14
HETATM   14  C   UNL     2     -10.952  13.657  68.064  1.00  0.00    -0.250 C  
HETATM   15  O   UNL     2     -11.173  13.156  69.372  1.00  0.00    -0.376 OA 
HETATM   16  H   UNL     2     -10.621  13.616  69.994  1.00  0.00     0.000 HD 
BRANCH  14  17
HETATM   17  C   UNL     2     -10.867  15.191  67.959  1.00  0.00    -0.284 C  
HETATM   18  H   UNL     2     -11.814  16.690  68.780  1.00  0.00     0.000 HD 
HETATM   19  O   UNL     2     -11.866  15.743  68.845  1.00  0.00    -0.393 OA 
BRANCH  17  20
HETATM   20  C   UNL     2      -9.489  15.804  68.207  1.00  0.00    -0.200 C  
HETATM   21  O   UNL     2      -8.767  15.085  69.232  1.00  0.00    -0.277 OA 
HETATM   22  C   UNL     2      -8.699  15.737  66.870  1.00  0.00    -0.244 C  
HETATM   23  H   UNL     2      -7.911  15.466  69.386  1.00  0.00     0.000 HD 
HETATM   24  O   UNL     2      -9.390  15.995  65.849  1.00  0.00    -0.326 OA 
HETATM   25  O   UNL     2      -7.492  15.408  67.018  1.00  0.00    -0.205 OA 
ENDBRANCH  17  20
ENDBRANCH  14  17
ENDBRANCH  11  14
ENDBRANCH   8  11
ENDBRANCH   5   8
BRANCH   6  26
HETATM   26  C   UNL     3     -10.746   8.800  71.592  1.00  0.00    -0.327 C  
HETATM   27  H   UNL     3      -9.155   9.872  71.559  1.00  0.00     0.000 HD 
HETATM   28  O   UNL     3      -9.393   9.041  71.953  1.00  0.00    -0.341 OA 
BRANCH  26  29
HETATM   29  C   UNL     3     -10.985   8.814  70.059  1.00  0.00    -0.209 C  
HETATM   30  O   UNL     3     -11.194  10.226  69.613  1.00  0.00    -0.241 OA 
HETATM   31  H   UNL     3     -11.340  10.234  68.674  1.00  0.00     0.000 HD 
BRANCH  29  32
HETATM   32  C   UNL     3      -9.761   8.380  69.223  1.00  0.00    -0.177 C  
HETATM   33  H   UNL     3      -8.859   9.081  67.618  1.00  0.00     0.000 HD 
HETATM   34  O   UNL     3      -9.612   9.348  68.132  1.00  0.00    -0.140 OA 
BRANCH  32  35
HETATM   35  C   UNL     3      -9.417   6.931  68.846  1.00  0.00    -0.136 C  
HETATM   36  H   UNL     3      -8.846   5.368  69.831  1.00  0.00     0.000 HD 
HETATM   37  O   UNL     3      -9.058   6.264  70.064  1.00  0.00    -0.146 OA 
BRANCH  35  38
HETATM   38  C   UNL     3     -10.468   6.161  68.053  1.00  0.00    -0.228 C  
HETATM   39  C   UNL     3      -9.805   5.033  67.219  1.00  0.00    -0.179 C  
HETATM   40  O   UNL     3     -11.181   7.037  67.157  1.00  0.00    -0.590 OA 
HETATM   41  O   UNL     3      -8.555   4.877  67.386  1.00  0.00    -0.105 OA 
HETATM   42  O   UNL     3     -10.548   4.571  66.310  1.00  0.00    -0.227 OA 
HETATM   43  H   UNL     3     -11.835   6.557  66.663  1.00  0.00     0.000 HD 
ENDBRANCH  35  38
ENDBRANCH  32  35
ENDBRANCH  29  32
ENDBRANCH  26  29
ENDBRANCH   6  26
TORSDOF 10
ENDMDL
MODEL       51
REMARK 921   NORMALIZED FREE ENERGY PREDICTED BY IDOCK:   -6.56 KCAL/MOL
REMARK 922        TOTAL FREE ENERGY PREDICTED BY IDOCK:  -12.90 KCAL/MOL
REMARK 923 INTER-LIGAND FREE ENERGY PREDICTED BY IDOCK:  -10.87 KCAL/MOL
REMARK 924 INTRA-LIGAND FREE ENERGY PREDICTED BY IDOCK:   -2.03 KCAL/MOL
REMARK 927      BINDING AFFINITY PREDICTED BY RF-SCORE:    0.00 PKD
ROOT
HETATM    1 CA   UNL     1     -11.238  14.368  71.677  1.00  0.00    -0.437 Ca 
HETATM    2  O   UNL     2     -10.873  18.288  67.503  1.00  0.00    -0.399 OA 
HETATM    3  O   UNL     3     -12.253   8.196  72.332  1.00  0.00    -0.405 OA 
HETATM    4  H   UNL     2     -11.716  18.721  67.572  1.00  0.00     0.000 HD 
HETATM    5  C   UNL     2     -10.824  17.219  68.447  1.00  0.00    -0.273 C  
HETATM    6  C   UNL     3     -12.932   9.448  72.376  1.00  0.00    -0.351 C  
HETATM    7  H   UNL     3     -12.424   7.702  73.125  1.00  0.00     0.000 HD 
ENDROOT
BRANCH   5   8
HETATM    8  C   UNL     2      -9.455  16.516  68.334  1.00  0.00    -0.223 C  
HETATM    9  O   UNL     2      -9.142  15.952  69.604  1.00  0.00    -0.226 OA 
HETATM   10  H   UNL     2      -8.299  15.519  69.535  1.00  0.00     0.000 HD 
BRANCH   8  11
HETATM   11  C   UNL     2      -9.496  15.376  67.304  1.00  0.00    -0.210 C  
HETATM   12  H   UNL     2     -10.461  13.637  67.019  1.00  0.00     0.000 HD 
HETATM   13  O   UNL     2     -10.436  14.342  67.655  1.00  0.00    -0.246 OA 
BRANCH  11  14
HETATM   14  C   UNL     2      -9.659  15.710  65.801  1.00  0.00    -0.326 C  
HETATM   15  O   UNL     2      -9.135  16.999  65.529  1.00  0.00    -0.380 OA 
HETATM   16  H   UNL     2      -9.235  17.204  64.606  1.00  0.00     0.000 HD 
BRANCH  14  17
HETATM   17  C   UNL     2     -11.015  15.404  65.136  1.00  0.00    -0.418 C  
HETATM   18  H   UNL     2     -12.145  16.302  63.820  1.00  0.00     0.000 HD 
HETATM   19  O   UNL     2     -11.308  16.490  64.230  1.00  0.00    -1.020 OA 
BRANCH  17  20
HETATM   20  C   UNL     2     -11.131  14.044  64.448  1.00  0.00    -0.286 C  
HETATM   21  O   UNL     2      -9.959  13.233  64.677  1.00  0.00    -0.589 OA 
HETATM   22  C   UNL     2     -12.382  13.330  65.033  1.00  0.00    -0.448 C  
HETATM   23  H   UNL     2     -10.031  12.388  64.249  1.00  0.00     0.000 HD 
HETATM   24  O   UNL     2     -13.369  14.089  65.223  1.00  0.00    -0.741 OA 
HETATM   25  O   UNL     2     -12.200  12.102  65.250  1.00  0.00    -0.484 OA 
ENDBRANCH  17  20
ENDBRANCH  14  17
ENDBRANCH  11  14
ENDBRANCH   8  11
ENDBRANCH   5   8
BRANCH   6  26
HETATM   26  C   UNL     3     -12.656  10.245  71.093  1.00  0.00    -0.400 C  
HETATM   27  H   UNL     3     -12.444  12.108  70.681  1.00  0.00     0.000 HD 
HETATM   28  O   UNL     3     -12.615  11.615  71.474  1.00  0.00    -0.317 OA 
BRANCH  26  29
HETATM   29  C   UNL     3     -11.367   9.771  70.371  1.00  0.00    -0.297 C  
HETATM   30  O   UNL     3     -11.638   8.459  69.706  1.00  0.00    -0.430 OA 
HETATM   31  H   UNL     3     -10.848   8.169  69.264  1.00  0.00     0.000 HD 
BRANCH  29  32
HETATM   32  C   UNL     3     -10.939  10.662  69.185  1.00  0.00    -0.247 C  
HETATM   33  H   UNL     3     -11.898  11.739  67.843  1.00  0.00     0.000 HD 
HETATM   34  O   UNL     3     -12.161  11.190  68.573  1.00  0.00    -0.600 OA 
BRANCH  32  35
HETATM   35  C   UNL     3      -9.815  10.331  68.192  1.00  0.00    -0.148 C  
HETATM   36  H   UNL     3      -9.038  11.230  66.666  1.00  0.00     0.000 HD 
HETATM   37  O   UNL     3      -9.734  11.434  67.280  1.00  0.00    -0.183 OA 
BRANCH  35  38
HETATM   38  C   UNL     3      -8.458   9.972  68.788  1.00  0.00    -0.126 C  
HETATM   39  C   UNL     3      -8.275   8.433  68.843  1.00  0.00    -0.115 C  
HETATM   40  O   UNL     3      -8.326  10.499  70.124  1.00  0.00    -0.324 OA 
HETATM   41  O   UNL     3      -9.207   7.741  68.326  1.00  0.00    -0.140 OA 
HETATM   42  O   UNL     3      -7.337   8.060  69.602  1.00  0.00    -0.080 OA 
HETATM   43  H   UNL     3      -7.481  10.275  70.495  1.00  0.00     0.000 HD 
ENDBRANCH  35  38
ENDBRANCH  32  35
ENDBRANCH  29  32
ENDBRANCH  26  29
ENDBRANCH   6  26
TORSDOF 10
ENDMDL
MODEL       52
REMARK 921   NORMALIZED FREE ENERGY PREDICTED BY IDOCK:   -6.56 KCAL/MOL
REMARK 922        TOTAL FREE ENERGY PREDICTED BY IDOCK:  -12.89 KCAL/MOL
REMARK 923 INTER-LIGAND FREE ENERGY PREDICTED BY IDOCK:  -10.64 KCAL/MOL
REMARK 924 INTRA-LIGAND FREE ENERGY PREDICTED BY IDOCK:   -2.25 KCAL/MOL
REMARK 927      BINDING AFFINITY PREDICTED BY RF-SCORE:    0.00 PKD
ROOT
HETATM    1 CA   UNL     1      -8.187  12.000  68.081  1.00  0.00    -0.111 Ca 
HETATM    2  O   UNL     2      -8.563   6.477  66.572  1.00  0.00    -0.115 OA 
HETATM    3  O   UNL     3     -10.824  17.520  66.625  1.00  0.00    -0.153 OA 
HETATM    4  H   UNL     2      -7.797   6.376  66.020  1.00  0.00     0.000 HD 
HETATM    5  C   UNL     2      -8.658   7.839  66.987  1.00  0.00    -0.129 C  
HETATM    6  C   UNL     3      -9.688  16.714  66.325  1.00  0.00    -0.304 C  
HETATM    7  H   UNL     3     -10.549  18.395  66.874  1.00  0.00     0.000 HD 
ENDROOT
BRANCH   5   8
HETATM    8  C   UNL     2      -9.903   8.002  67.884  1.00  0.00    -0.167 C  
HETATM    9  O   UNL     2     -11.059   7.834  67.070  1.00  0.00    -0.449 OA 
HETATM   10  H   UNL     2     -11.826   7.935  67.623  1.00  0.00     0.000 HD 
BRANCH   8  11
HETATM   11  C   UNL     2      -9.939   6.934  68.989  1.00  0.00    -0.158 C  
HETATM   12  H   UNL     2      -8.653   5.973  70.198  1.00  0.00     0.000 HD 
HETATM   13  O   UNL     2      -8.631   6.633  69.515  1.00  0.00    -0.130 OA 
BRANCH  11  14
HETATM   14  C   UNL     2     -10.929   7.088  70.170  1.00  0.00    -0.272 C  
HETATM   15  O   UNL     2     -12.231   6.697  69.767  1.00  0.00    -0.574 OA 
HETATM   16  H   UNL     2     -12.839   6.791  70.492  1.00  0.00     0.000 HD 
BRANCH  14  17
HETATM   17  C   UNL     2     -10.866   8.384  71.001  1.00  0.00    -0.238 C  
HETATM   18  H   UNL     2     -11.724  10.136  70.901  1.00  0.00     0.000 HD 
HETATM   19  O   UNL     2     -11.763   9.336  70.388  1.00  0.00    -0.225 OA 
BRANCH  17  20
HETATM   20  C   UNL     2     -11.135   8.233  72.498  1.00  0.00    -0.368 C  
HETATM   21  O   UNL     2     -12.120   7.208  72.757  1.00  0.00    -0.507 OA 
HETATM   22  C   UNL     2      -9.791   7.847  73.178  1.00  0.00    -0.290 C  
HETATM   23  H   UNL     2     -12.288   7.115  73.688  1.00  0.00     0.000 HD 
HETATM   24  O   UNL     2      -8.787   8.454  72.720  1.00  0.00    -0.225 OA 
HETATM   25  O   UNL     2      -9.917   6.963  74.068  1.00  0.00    -0.285 OA 
ENDBRANCH  17  20
ENDBRANCH  14  17
ENDBRANCH  11  14
ENDBRANCH   8  11
ENDBRANCH   5   8
BRANCH   6  26
HETATM   26  C   UNL     3     -10.133  15.301  65.922  1.00  0.00    -0.334 C  
HETATM   27  H   UNL     3     -10.435  13.659  66.869  1.00  0.00     0.000 HD 
HETATM   28  O   UNL     3     -10.159  14.534  67.119  1.00  0.00    -0.248 OA 
BRANCH  26  29
HETATM   29  C   UNL     3     -11.487  15.304  65.165  1.00  0.00    -0.260 C  
HETATM   30  O   UNL     3     -11.404  16.264  64.022  1.00  0.00    -1.311 OA 
HETATM   31  H   UNL     3     -12.233  16.266  63.559  1.00  0.00     0.000 HD 
BRANCH  29  32
HETATM   32  C   UNL     3     -11.820  13.973  64.456  1.00  0.00    -0.434 C  
HETATM   33  H   UNL     3     -12.771  13.484  62.801  1.00  0.00     0.000 HD 
HETATM   34  O   UNL     3     -12.566  14.302  63.238  1.00  0.00    -0.716 OA 
BRANCH  32  35
HETATM   35  C   UNL     3     -12.277  12.687  65.161  1.00  0.00    -0.481 C  
HETATM   36  H   UNL     3     -13.556  11.293  64.755  1.00  0.00     0.000 HD 
HETATM   37  O   UNL     3     -13.273  12.089  64.320  1.00  0.00    -0.710 OA 
BRANCH  35  38
HETATM   38  C   UNL     3     -11.186  11.699  65.558  1.00  0.00    -0.205 C  
HETATM   39  C   UNL     3     -11.229  11.421  67.083  1.00  0.00    -0.296 C  
HETATM   40  O   UNL     3      -9.881  12.209  65.220  1.00  0.00    -0.286 OA 
HETATM   41  O   UNL     3     -12.180  11.969  67.724  1.00  0.00    -0.474 OA 
HETATM   42  O   UNL     3     -10.181  10.878  67.530  1.00  0.00    -0.179 OA 
HETATM   43  H   UNL     3      -9.201  11.593  65.468  1.00  0.00     0.000 HD 
ENDBRANCH  35  38
ENDBRANCH  32  35
ENDBRANCH  29  32
ENDBRANCH  26  29
ENDBRANCH   6  26
TORSDOF 10
ENDMDL
MODEL       53
REMARK 921   NORMALIZED FREE ENERGY PREDICTED BY IDOCK:   -6.56 KCAL/MOL
REMARK 922        TOTAL FREE ENERGY PREDICTED BY IDOCK:  -12.89 KCAL/MOL
REMARK 923 INTER-LIGAND FREE ENERGY PREDICTED BY IDOCK:   -9.88 KCAL/MOL
REMARK 924 INTRA-LIGAND FREE ENERGY PREDICTED BY IDOCK:   -3.00 KCAL/MOL
REMARK 927      BINDING AFFINITY PREDICTED BY RF-SCORE:    0.00 PKD
ROOT
HETATM    1 CA   UNL     1     -11.924   9.906  67.586  1.00  0.00    -0.510 Ca 
HETATM    2  O   UNL     2     -12.385  13.706  63.312  1.00  0.00    -1.001 OA 
HETATM    3  O   UNL     3      -7.666   5.962  70.008  1.00  0.00    -0.084 OA 
HETATM    4  H   UNL     2     -12.891  13.216  62.674  1.00  0.00     0.000 HD 
HETATM    5  C   UNL     2     -12.119  12.865  64.433  1.00  0.00    -0.410 C  
HETATM    6  C   UNL     3      -8.770   5.994  69.108  1.00  0.00    -0.120 C  
HETATM    7  H   UNL     3      -7.790   5.277  70.655  1.00  0.00     0.000 HD 
ENDROOT
BRANCH   5   8
HETATM    8  C   UNL     2     -11.296  13.660  65.469  1.00  0.00    -0.298 C  
HETATM    9  O   UNL     2     -11.458  15.047  65.192  1.00  0.00    -0.360 OA 
HETATM   10  H   UNL     2     -10.951  15.536  65.830  1.00  0.00     0.000 HD 
BRANCH   8  11
HETATM   11  C   UNL     2     -11.797  13.398  66.899  1.00  0.00    -0.403 C  
HETATM   12  H   UNL     2     -12.499  11.866  67.992  1.00  0.00     0.000 HD 
HETATM   13  O   UNL     2     -12.190  12.027  67.109  1.00  0.00    -0.505 OA 
BRANCH  11  14
HETATM   14  C   UNL     2     -10.943  13.863  68.105  1.00  0.00    -0.249 C  
HETATM   15  O   UNL     2     -10.561  12.744  68.889  1.00  0.00    -0.353 OA 
HETATM   16  H   UNL     2     -10.037  13.029  69.629  1.00  0.00     0.000 HD 
BRANCH  14  17
HETATM   17  C   UNL     2     -11.429  15.085  68.906  1.00  0.00    -0.314 C  
HETATM   18  H   UNL     2     -12.562  15.350  70.475  1.00  0.00     0.000 HD 
HETATM   19  O   UNL     2     -12.262  14.596  69.981  1.00  0.00    -0.307 OA 
BRANCH  17  20
HETATM   20  C   UNL     2     -10.340  16.027  69.417  1.00  0.00    -0.272 C  
HETATM   21  O   UNL     2      -9.272  15.300  70.063  1.00  0.00    -0.420 OA 
HETATM   22  C   UNL     2      -9.776  16.799  68.191  1.00  0.00    -0.247 C  
HETATM   23  H   UNL     2      -8.595  15.885  70.381  1.00  0.00     0.000 HD 
HETATM   24  O   UNL     2     -10.651  17.152  67.356  1.00  0.00    -0.337 OA 
HETATM   25  O   UNL     2      -8.523  16.928  68.214  1.00  0.00    -0.213 OA 
ENDBRANCH  17  20
ENDBRANCH  14  17
ENDBRANCH  11  14
ENDBRANCH   8  11
ENDBRANCH   5   8
BRANCH   6  26
HETATM   26  C   UNL     3      -8.570   7.101  68.063  1.00  0.00    -0.128 C  
HETATM   27  H   UNL     3      -8.510   7.152  66.145  1.00  0.00     0.000 HD 
HETATM   28  O   UNL     3      -8.634   6.467  66.792  1.00  0.00    -0.113 OA 
BRANCH  26  29
HETATM   29  C   UNL     3      -9.594   8.255  68.225  1.00  0.00    -0.147 C  
HETATM   30  O   UNL     3     -10.957   7.672  68.422  1.00  0.00    -0.422 OA 
HETATM   31  H   UNL     3     -11.584   8.379  68.521  1.00  0.00     0.000 HD 
BRANCH  29  32
HETATM   32  C   UNL     3      -9.405   9.096  69.506  1.00  0.00    -0.163 C  
HETATM   33  H   UNL     3      -7.847   9.790  70.493  1.00  0.00     0.000 HD 
HETATM   34  O   UNL     3      -7.964   9.272  69.704  1.00  0.00    -0.081 OA 
BRANCH  32  35
HETATM   35  C   UNL     3     -10.216   8.928  70.800  1.00  0.00    -0.226 C  
HETATM   36  H   UNL     3      -9.770   8.783  72.677  1.00  0.00     0.000 HD 
HETATM   37  O   UNL     3      -9.269   8.887  71.876  1.00  0.00    -0.310 OA 
BRANCH  35  38
HETATM   38  C   UNL     3     -11.328   9.941  71.048  1.00  0.00    -0.386 C  
HETATM   39  C   UNL     3     -12.426   9.335  71.962  1.00  0.00    -0.378 C  
HETATM   40  O   UNL     3     -11.938  10.350  69.808  1.00  0.00    -0.393 OA 
HETATM   41  O   UNL     3     -12.195   8.169  72.412  1.00  0.00    -0.344 OA 
HETATM   42  O   UNL     3     -13.510   9.980  71.950  1.00  0.00    -0.391 OA 
HETATM   43  H   UNL     3     -12.631  10.981  69.962  1.00  0.00     0.000 HD 
ENDBRANCH  35  38
ENDBRANCH  32  35
ENDBRANCH  29  32
ENDBRANCH  26  29
ENDBRANCH   6  26
TORSDOF 10
ENDMDL
MODEL       54
REMARK 921   NORMALIZED FREE ENERGY PREDICTED BY IDOCK:   -6.56 KCAL/MOL
REMARK 922        TOTAL FREE ENERGY PREDICTED BY IDOCK:  -12.89 KCAL/MOL
REMARK 923 INTER-LIGAND FREE ENERGY PREDICTED BY IDOCK:  -11.27 KCAL/MOL
REMARK 924 INTRA-LIGAND FREE ENERGY PREDICTED BY IDOCK:   -1.61 KCAL/MOL
REMARK 927      BINDING AFFINITY PREDICTED BY RF-SCORE:    0.00 PKD
ROOT
HETATM    1 CA   UNL     1      -8.624  13.542  66.238  1.00  0.00    -0.344 Ca 
HETATM    2  O   UNL     2      -8.477  18.952  68.143  1.00  0.00    -0.289 OA 
HETATM    3  O   UNL     3     -10.665   7.894  68.104  1.00  0.00    -0.388 OA 
HETATM    4  H   UNL     2      -7.573  19.032  68.425  1.00  0.00     0.000 HD 
HETATM    5  C   UNL     2      -8.705  17.617  67.694  1.00  0.00    -0.232 C  
HETATM    6  C   UNL     3      -9.491   8.700  68.074  1.00  0.00    -0.140 C  
HETATM    7  H   UNL     3     -10.488   7.042  67.724  1.00  0.00     0.000 HD 
ENDROOT
BRANCH   5   8
HETATM    8  C   UNL     2     -10.173  17.487  67.237  1.00  0.00    -0.335 C  
HETATM    9  O   UNL     2     -10.642  18.784  66.885  1.00  0.00    -0.405 OA 
HETATM   10  H   UNL     2     -11.547  18.705  66.603  1.00  0.00     0.000 HD 
BRANCH   8  11
HETATM   11  C   UNL     2     -10.295  16.584  65.999  1.00  0.00    -0.345 C  
HETATM   12  H   UNL     2      -9.091  15.564  64.754  1.00  0.00     0.000 HD 
HETATM   13  O   UNL     2      -9.016  16.122  65.519  1.00  0.00    -0.304 OA 
BRANCH  11  14
HETATM   14  C   UNL     2     -11.282  15.391  66.017  1.00  0.00    -0.168 C  
HETATM   15  O   UNL     2     -10.692  14.281  66.673  1.00  0.00    -0.285 OA 
HETATM   16  H   UNL     2     -11.298  13.549  66.684  1.00  0.00     0.000 HD 
BRANCH  14  17
HETATM   17  C   UNL     2     -12.032  15.054  64.714  1.00  0.00    -0.311 C  
HETATM   18  H   UNL     2     -12.475  16.028  63.080  1.00  0.00     0.000 HD 
HETATM   19  O   UNL     2     -12.013  16.237  63.884  1.00  0.00    -1.003 OA 
BRANCH  17  20
HETATM   20  C   UNL     2     -11.538  13.822  63.957  1.00  0.00    -0.275 C  
HETATM   21  O   UNL     2     -10.097  13.717  64.000  1.00  0.00    -0.710 OA 
HETATM   22  C   UNL     2     -12.171  12.573  64.632  1.00  0.00    -0.453 C  
HETATM   23  H   UNL     2      -9.790  12.951  63.529  1.00  0.00     0.000 HD 
HETATM   24  O   UNL     2     -13.372  12.727  64.980  1.00  0.00    -0.678 OA 
HETATM   25  O   UNL     2     -11.371  11.606  64.747  1.00  0.00    -0.284 OA 
ENDBRANCH  17  20
ENDBRANCH  14  17
ENDBRANCH  11  14
ENDBRANCH   8  11
ENDBRANCH   5   8
BRANCH   6  26
HETATM   26  C   UNL     3      -9.778  10.077  68.690  1.00  0.00    -0.159 C  
HETATM   27  H   UNL     3     -10.083  11.835  67.982  1.00  0.00     0.000 HD 
HETATM   28  O   UNL     3      -9.905  10.983  67.601  1.00  0.00    -0.170 OA 
BRANCH  26  29
HETATM   29  C   UNL     3     -11.020  10.058  69.620  1.00  0.00    -0.264 C  
HETATM   30  O   UNL     3     -10.574  10.277  71.030  1.00  0.00    -0.241 OA 
HETATM   31  H   UNL     3     -11.334  10.265  71.600  1.00  0.00     0.000 HD 
BRANCH  29  32
HETATM   32  C   UNL     3     -11.998  11.232  69.396  1.00  0.00    -0.341 C  
HETATM   33  H   UNL     3     -12.746  12.131  67.811  1.00  0.00     0.000 HD 
HETATM   34  O   UNL     3     -12.144  11.409  67.949  1.00  0.00    -0.646 OA 
BRANCH  32  35
HETATM   35  C   UNL     3     -12.013  12.537  70.207  1.00  0.00    -0.283 C  
HETATM   36  H   UNL     3     -11.986  14.418  69.760  1.00  0.00     0.000 HD 
HETATM   37  O   UNL     3     -11.977  13.611  69.259  1.00  0.00    -0.312 OA 
BRANCH  35  38
HETATM   38  C   UNL     3     -13.138  12.699  71.223  1.00  0.00    -0.145 C  
HETATM   39  C   UNL     3     -12.908  13.961  72.096  1.00  0.00    -0.298 C  
HETATM   40  O   UNL     3     -13.219  11.551  72.090  1.00  0.00    -0.576 OA 
HETATM   41  O   UNL     3     -11.907  14.681  71.784  1.00  0.00    -0.338 OA 
HETATM   42  O   UNL     3     -13.607  13.986  73.147  1.00  0.00    -0.551 OA 
HETATM   43  H   UNL     3     -13.920  11.652  72.724  1.00  0.00     0.000 HD 
ENDBRANCH  35  38
ENDBRANCH  32  35
ENDBRANCH  29  32
ENDBRANCH  26  29
ENDBRANCH   6  26
TORSDOF 10
ENDMDL
MODEL       55
REMARK 921   NORMALIZED FREE ENERGY PREDICTED BY IDOCK:   -6.55 KCAL/MOL
REMARK 922        TOTAL FREE ENERGY PREDICTED BY IDOCK:  -12.87 KCAL/MOL
REMARK 923 INTER-LIGAND FREE ENERGY PREDICTED BY IDOCK:  -10.06 KCAL/MOL
REMARK 924 INTRA-LIGAND FREE ENERGY PREDICTED BY IDOCK:   -2.81 KCAL/MOL
REMARK 927      BINDING AFFINITY PREDICTED BY RF-SCORE:    0.00 PKD
ROOT
HETATM    1 CA   UNL     1     -12.525  11.058  68.098  1.00  0.00    -0.219 Ca 
HETATM    2  O   UNL     2     -12.521  13.664  62.986  1.00  0.00    -1.020 OA 
HETATM    3  O   UNL     3      -8.422   9.102  72.444  1.00  0.00    -0.253 OA 
HETATM    4  H   UNL     2     -12.679  12.934  62.398  1.00  0.00     0.000 HD 
HETATM    5  C   UNL     2     -12.425  13.170  64.320  1.00  0.00    -0.288 C  
HETATM    6  C   UNL     3      -9.172   8.632  71.327  1.00  0.00    -0.220 C  
HETATM    7  H   UNL     3      -8.575   8.547  73.199  1.00  0.00     0.000 HD 
ENDROOT
BRANCH   5   8
HETATM    8  C   UNL     2     -12.169  14.355  65.275  1.00  0.00    -0.377 C  
HETATM    9  O   UNL     2     -11.614  13.841  66.480  1.00  0.00    -0.334 OA 
HETATM   10  H   UNL     2     -11.456  14.571  67.068  1.00  0.00     0.000 HD 
BRANCH   8  11
HETATM   11  C   UNL     2     -11.162  15.349  64.673  1.00  0.00    -0.364 C  
HETATM   12  H   UNL     2     -11.180  17.106  63.697  1.00  0.00     0.000 HD 
HETATM   13  O   UNL     2     -11.802  16.492  64.069  1.00  0.00    -1.022 OA 
BRANCH  11  14
HETATM   14  C   UNL     2      -9.968  15.840  65.528  1.00  0.00    -0.306 C  
HETATM   15  O   UNL     2      -9.169  14.737  65.925  1.00  0.00    -0.495 OA 
HETATM   16  H   UNL     2      -8.436  15.038  66.450  1.00  0.00     0.000 HD 
BRANCH  14  17
HETATM   17  C   UNL     2     -10.248  16.874  66.635  1.00  0.00    -0.312 C  
HETATM   18  H   UNL     2     -10.778  16.783  68.513  1.00  0.00     0.000 HD 
HETATM   19  O   UNL     2     -10.605  16.145  67.830  1.00  0.00    -0.293 OA 
BRANCH  17  20
HETATM   20  C   UNL     2      -9.136  17.888  66.901  1.00  0.00    -0.260 C  
HETATM   21  O   UNL     2      -8.016  17.692  66.009  1.00  0.00    -0.474 OA 
HETATM   22  C   UNL     2      -9.733  19.306  66.682  1.00  0.00    -0.353 C  
HETATM   23  H   UNL     2      -7.325  18.322  66.174  1.00  0.00     0.000 HD 
HETATM   24  O   UNL     2     -10.906  19.446  67.120  1.00  0.00    -0.484 OA 
HETATM   25  O   UNL     2      -8.954  20.089  66.076  1.00  0.00    -0.346 OA 
ENDBRANCH  17  20
ENDBRANCH  14  17
ENDBRANCH  11  14
ENDBRANCH   8  11
ENDBRANCH   5   8
BRANCH   6  26
HETATM   26  C   UNL     3      -8.923   9.528  70.106  1.00  0.00    -0.236 C  
HETATM   27  H   UNL     3      -7.364  10.091  69.139  1.00  0.00     0.000 HD 
HETATM   28  O   UNL     3      -7.518   9.536  69.895  1.00  0.00    -0.083 OA 
BRANCH  26  29
HETATM   29  C   UNL     3      -9.728   9.065  68.863  1.00  0.00    -0.163 C  
HETATM   30  O   UNL     3     -11.187   9.251  69.131  1.00  0.00    -0.440 OA 
HETATM   31  H   UNL     3     -11.679   8.967  68.370  1.00  0.00     0.000 HD 
BRANCH  29  32
HETATM   32  C   UNL     3      -9.509   9.934  67.606  1.00  0.00    -0.147 C  
HETATM   33  H   UNL     3     -10.227  11.653  66.965  1.00  0.00     0.000 HD 
HETATM   34  O   UNL     3     -10.362  11.118  67.738  1.00  0.00    -0.178 OA 
BRANCH  32  35
HETATM   35  C   UNL     3      -9.375   9.396  66.172  1.00  0.00    -0.205 C  
HETATM   36  H   UNL     3     -10.090   7.874  65.217  1.00  0.00     0.000 HD 
HETATM   37  O   UNL     3     -10.172   8.207  66.104  1.00  0.00    -0.062 OA 
BRANCH  35  38
HETATM   38  C   UNL     3      -9.691  10.371  65.043  1.00  0.00    -0.300 C  
HETATM   39  C   UNL     3      -8.795  10.086  63.809  1.00  0.00    -0.231 C  
HETATM   40  O   UNL     3      -9.476  11.733  65.462  1.00  0.00    -0.277 OA 
HETATM   41  O   UNL     3      -8.031   9.074  63.896  1.00  0.00    -0.130 OA 
HETATM   42  O   UNL     3      -8.770  11.029  62.971  1.00  0.00    -0.192 OA 
HETATM   43  H   UNL     3      -9.672  12.340  64.758  1.00  0.00     0.000 HD 
ENDBRANCH  35  38
ENDBRANCH  32  35
ENDBRANCH  29  32
ENDBRANCH  26  29
ENDBRANCH   6  26
TORSDOF 10
ENDMDL
MODEL       56
REMARK 921   NORMALIZED FREE ENERGY PREDICTED BY IDOCK:   -6.55 KCAL/MOL
REMARK 922        TOTAL FREE ENERGY PREDICTED BY IDOCK:  -12.87 KCAL/MOL
REMARK 923 INTER-LIGAND FREE ENERGY PREDICTED BY IDOCK:   -9.80 KCAL/MOL
REMARK 924 INTRA-LIGAND FREE ENERGY PREDICTED BY IDOCK:   -3.07 KCAL/MOL
REMARK 927      BINDING AFFINITY PREDICTED BY RF-SCORE:    0.00 PKD
ROOT
HETATM    1 CA   UNL     1     -11.656   8.356  67.672  1.00  0.00    -0.487 Ca 
HETATM    2  O   UNL     2     -14.241   9.037  72.749  1.00  0.00    -0.933 OA 
HETATM    3  O   UNL     3      -9.214  11.875  63.066  1.00  0.00    -0.644 OA 
HETATM    4  H   UNL     2     -15.150   8.871  72.525  1.00  0.00     0.000 HD 
HETATM    5  C   UNL     2     -13.454   8.971  71.561  1.00  0.00    -0.342 C  
HETATM    6  C   UNL     3     -10.409  11.190  63.432  1.00  0.00    -0.360 C  
HETATM    7  H   UNL     3      -8.935  11.608  62.198  1.00  0.00     0.000 HD 
ENDROOT
BRANCH   5   8
HETATM    8  C   UNL     2     -11.978   9.241  71.924  1.00  0.00    -0.363 C  
HETATM    9  O   UNL     2     -11.555   8.230  72.833  1.00  0.00    -0.384 OA 
HETATM   10  H   UNL     2     -10.647   8.396  73.056  1.00  0.00     0.000 HD 
BRANCH   8  11
HETATM   11  C   UNL     2     -11.076   9.173  70.681  1.00  0.00    -0.265 C  
HETATM   12  H   UNL     2     -11.016   9.927  68.820  1.00  0.00     0.000 HD 
HETATM   13  O   UNL     2     -11.573   9.969  69.588  1.00  0.00    -0.196 OA 
BRANCH  11  14
HETATM   14  C   UNL     2      -9.554   9.419  70.827  1.00  0.00    -0.255 C  
HETATM   15  O   UNL     2      -9.136  10.428  69.921  1.00  0.00    -0.403 OA 
HETATM   16  H   UNL     2      -8.202  10.579  70.010  1.00  0.00     0.000 HD 
BRANCH  14  17
HETATM   17  C   UNL     2      -8.627   8.191  70.908  1.00  0.00    -0.135 C  
HETATM   18  H   UNL     2      -7.577   7.163  69.622  1.00  0.00     0.000 HD 
HETATM   19  O   UNL     2      -8.148   7.920  69.572  1.00  0.00    -0.116 OA 
BRANCH  17  20
HETATM   20  C   UNL     2      -7.480   8.284  71.913  1.00  0.00    -0.098 C  
HETATM   21  O   UNL     2      -6.862   9.589  71.892  1.00  0.00    -0.292 OA 
HETATM   22  C   UNL     2      -8.073   8.012  73.325  1.00  0.00    -0.186 C  
HETATM   23  H   UNL     2      -6.149   9.646  72.517  1.00  0.00     0.000 HD 
HETATM   24  O   UNL     2      -8.938   7.096  73.354  1.00  0.00    -0.132 OA 
HETATM   25  O   UNL     2      -7.609   8.771  74.217  1.00  0.00    -0.418 OA 
ENDBRANCH  17  20
ENDBRANCH  14  17
ENDBRANCH  11  14
ENDBRANCH   8  11
ENDBRANCH   5   8
BRANCH   6  26
HETATM   26  C   UNL     3     -10.859  11.621  64.835  1.00  0.00    -0.301 C  
HETATM   27  H   UNL     3     -10.442  11.055  66.620  1.00  0.00     0.000 HD 
HETATM   28  O   UNL     3     -10.163  10.788  65.752  1.00  0.00    -0.248 OA 
BRANCH  26  29
HETATM   29  C   UNL     3     -10.630  13.135  65.086  1.00  0.00    -0.319 C  
HETATM   30  O   UNL     3     -11.182  13.909  63.932  1.00  0.00    -0.569 OA 
HETATM   31  H   UNL     3     -11.042  14.836  64.086  1.00  0.00     0.000 HD 
BRANCH  29  32
HETATM   32  C   UNL     3     -11.426  13.708  66.279  1.00  0.00    -0.333 C  
HETATM   33  H   UNL     3     -13.194  14.550  66.491  1.00  0.00     0.000 HD 
HETATM   34  O   UNL     3     -12.704  14.199  65.757  1.00  0.00    -0.508 OA 
BRANCH  32  35
HETATM   35  C   UNL     3     -10.829  14.553  67.415  1.00  0.00    -0.291 C  
HETATM   36  H   UNL     3     -11.540  15.838  68.674  1.00  0.00     0.000 HD 
HETATM   37  O   UNL     3     -11.909  15.315  67.971  1.00  0.00    -0.314 OA 
BRANCH  35  38
HETATM   38  C   UNL     3     -10.038  13.806  68.483  1.00  0.00    -0.225 C  
HETATM   39  C   UNL     3      -8.519  13.855  68.173  1.00  0.00    -0.171 C  
HETATM   40  O   UNL     3     -10.448  12.426  68.556  1.00  0.00    -0.226 OA 
HETATM   41  O   UNL     3      -8.177  14.553  67.167  1.00  0.00    -0.202 OA 
HETATM   42  O   UNL     3      -7.842  13.007  68.817  1.00  0.00    -0.081 OA 
HETATM   43  H   UNL     3      -9.955  11.960  69.222  1.00  0.00     0.000 HD 
ENDBRANCH  35  38
ENDBRANCH  32  35
ENDBRANCH  29  32
ENDBRANCH  26  29
ENDBRANCH   6  26
TORSDOF 10
ENDMDL
MODEL       57
REMARK 921   NORMALIZED FREE ENERGY PREDICTED BY IDOCK:   -6.54 KCAL/MOL
REMARK 922        TOTAL FREE ENERGY PREDICTED BY IDOCK:  -12.86 KCAL/MOL
REMARK 923 INTER-LIGAND FREE ENERGY PREDICTED BY IDOCK:  -11.42 KCAL/MOL
REMARK 924 INTRA-LIGAND FREE ENERGY PREDICTED BY IDOCK:   -1.45 KCAL/MOL
REMARK 927      BINDING AFFINITY PREDICTED BY RF-SCORE:    0.00 PKD
ROOT
HETATM    1 CA   UNL     1      -6.628  12.758  67.976  1.00  0.00    -0.061 Ca 
HETATM    2  O   UNL     2      -8.868  18.022  68.414  1.00  0.00    -0.281 OA 
HETATM    3  O   UNL     3      -8.558   6.799  67.401  1.00  0.00    -0.120 OA 
HETATM    4  H   UNL     2      -8.766  18.197  69.342  1.00  0.00     0.000 HD 
HETATM    5  C   UNL     2      -8.411  16.698  68.141  1.00  0.00    -0.198 C  
HETATM    6  C   UNL     3      -8.140   7.746  68.381  1.00  0.00    -0.124 C  
HETATM    7  H   UNL     3      -8.051   6.000  67.481  1.00  0.00     0.000 HD 
ENDROOT
BRANCH   5   8
HETATM    8  C   UNL     2      -8.576  16.414  66.633  1.00  0.00    -0.260 C  
HETATM    9  O   UNL     2      -8.361  15.023  66.419  1.00  0.00    -0.400 OA 
HETATM   10  H   UNL     2      -8.463  14.848  65.491  1.00  0.00     0.000 HD 
BRANCH   8  11
HETATM   11  C   UNL     2      -9.995  16.757  66.152  1.00  0.00    -0.327 C  
HETATM   12  H   UNL     2     -11.027  18.363  65.525  1.00  0.00     0.000 HD 
HETATM   13  O   UNL     2     -10.149  18.151  65.822  1.00  0.00    -0.563 OA 
BRANCH  11  14
HETATM   14  C   UNL     2     -10.652  15.904  65.038  1.00  0.00    -0.346 C  
HETATM   15  O   UNL     2     -11.411  16.735  64.175  1.00  0.00    -1.369 OA 
HETATM   16  H   UNL     2     -11.814  16.212  63.491  1.00  0.00     0.000 HD 
BRANCH  14  17
HETATM   17  C   UNL     2     -11.339  14.587  65.446  1.00  0.00    -0.341 C  
HETATM   18  H   UNL     2     -12.127  13.889  67.091  1.00  0.00     0.000 HD 
HETATM   19  O   UNL     2     -11.704  14.702  66.839  1.00  0.00    -0.375 OA 
BRANCH  17  20
HETATM   20  C   UNL     2     -12.524  14.155  64.583  1.00  0.00    -0.350 C  
HETATM   21  O   UNL     2     -12.364  14.582  63.212  1.00  0.00    -1.033 OA 
HETATM   22  C   UNL     2     -12.602  12.604  64.639  1.00  0.00    -0.440 C  
HETATM   23  H   UNL     2     -13.100  14.314  62.676  1.00  0.00     0.000 HD 
HETATM   24  O   UNL     2     -12.368  12.115  65.776  1.00  0.00    -0.564 OA 
HETATM   25  O   UNL     2     -12.863  12.075  63.525  1.00  0.00    -0.749 OA 
ENDBRANCH  17  20
ENDBRANCH  14  17
ENDBRANCH  11  14
ENDBRANCH   8  11
ENDBRANCH   5   8
BRANCH   6  26
HETATM   26  C   UNL     3      -8.960   9.038  68.253  1.00  0.00    -0.133 C  
HETATM   27  H   UNL     3     -10.631   9.500  67.431  1.00  0.00     0.000 HD 
HETATM   28  O   UNL     3     -10.124   8.701  67.510  1.00  0.00    -0.184 OA 
BRANCH  26  29
HETATM   29  C   UNL     3      -9.275   9.674  69.632  1.00  0.00    -0.211 C  
HETATM   30  O   UNL     3      -9.273  11.163  69.493  1.00  0.00    -0.372 OA 
HETATM   31  H   UNL     3      -9.466  11.552  70.338  1.00  0.00     0.000 HD 
BRANCH  29  32
HETATM   32  C   UNL     3     -10.702   9.392  70.150  1.00  0.00    -0.243 C  
HETATM   33  H   UNL     3     -12.251  10.511  70.628  1.00  0.00     0.000 HD 
HETATM   34  O   UNL     3     -11.372  10.685  70.310  1.00  0.00    -0.298 OA 
BRANCH  32  35
HETATM   35  C   UNL     3     -11.065   8.344  71.213  1.00  0.00    -0.255 C  
HETATM   36  H   UNL     3     -12.376   8.241  72.631  1.00  0.00     0.000 HD 
HETATM   37  O   UNL     3     -12.151   8.889  71.974  1.00  0.00    -0.338 OA 
BRANCH  35  38
HETATM   38  C   UNL     3     -11.359   6.934  70.714  1.00  0.00    -0.310 C  
HETATM   39  C   UNL     3     -10.117   6.021  70.890  1.00  0.00    -0.196 C  
HETATM   40  O   UNL     3     -11.725   6.947  69.319  1.00  0.00    -0.580 OA 
HETATM   41  O   UNL     3      -9.119   6.545  71.477  1.00  0.00    -0.144 OA 
HETATM   42  O   UNL     3     -10.173   4.953  70.220  1.00  0.00    -0.252 OA 
HETATM   43  H   UNL     3     -11.908   6.068  69.008  1.00  0.00     0.000 HD 
ENDBRANCH  35  38
ENDBRANCH  32  35
ENDBRANCH  29  32
ENDBRANCH  26  29
ENDBRANCH   6  26
TORSDOF 10
ENDMDL
MODEL       58
REMARK 921   NORMALIZED FREE ENERGY PREDICTED BY IDOCK:   -6.53 KCAL/MOL
REMARK 922        TOTAL FREE ENERGY PREDICTED BY IDOCK:  -12.85 KCAL/MOL
REMARK 923 INTER-LIGAND FREE ENERGY PREDICTED BY IDOCK:  -10.03 KCAL/MOL
REMARK 924 INTRA-LIGAND FREE ENERGY PREDICTED BY IDOCK:   -2.82 KCAL/MOL
REMARK 927      BINDING AFFINITY PREDICTED BY RF-SCORE:    0.00 PKD
ROOT
HETATM    1 CA   UNL     1      -7.138  14.227  66.687  1.00  0.00    -0.281 Ca 
HETATM    2  O   UNL     2      -5.576  19.629  67.828  1.00  0.00    -0.185 OA 
HETATM    3  O   UNL     3     -11.853  10.267  67.967  1.00  0.00    -0.708 OA 
HETATM    4  H   UNL     2      -4.911  19.500  68.495  1.00  0.00     0.000 HD 
HETATM    5  C   UNL     2      -6.127  18.361  67.474  1.00  0.00    -0.174 C  
HETATM    6  C   UNL     3     -10.547  10.624  68.409  1.00  0.00    -0.199 C  
HETATM    7  H   UNL     3     -11.902   9.331  67.812  1.00  0.00     0.000 HD 
ENDROOT
BRANCH   5   8
HETATM    8  C   UNL     2      -7.208  18.571  66.392  1.00  0.00    -0.240 C  
HETATM    9  O   UNL     2      -6.556  18.670  65.130  1.00  0.00    -0.472 OA 
HETATM   10  H   UNL     2      -7.221  18.799  64.464  1.00  0.00     0.000 HD 
BRANCH   8  11
HETATM   11  C   UNL     2      -8.179  17.382  66.335  1.00  0.00    -0.271 C  
HETATM   12  H   UNL     2      -8.157  15.442  65.808  1.00  0.00     0.000 HD 
HETATM   13  O   UNL     2      -7.557  16.178  65.844  1.00  0.00     0.394 OA 
BRANCH  11  14
HETATM   14  C   UNL     2      -9.033  17.031  67.578  1.00  0.00    -0.219 C  
HETATM   15  O   UNL     2      -9.051  15.626  67.775  1.00  0.00    -0.180 OA 
HETATM   16  H   UNL     2      -9.574  15.411  68.538  1.00  0.00     0.000 HD 
BRANCH  14  17
HETATM   17  C   UNL     2     -10.397  17.728  67.738  1.00  0.00    -0.380 C  
HETATM   18  H   UNL     2     -12.051  17.331  68.698  1.00  0.00     0.000 HD 
HETATM   19  O   UNL     2     -11.210  16.900  68.599  1.00  0.00    -0.258 OA 
BRANCH  17  20
HETATM   20  C   UNL     2     -10.355  19.178  68.222  1.00  0.00    -0.361 C  
HETATM   21  O   UNL     2      -9.211  19.419  69.070  1.00  0.00    -0.364 OA 
HETATM   22  C   UNL     2     -10.271  20.088  66.965  1.00  0.00    -0.451 C  
HETATM   23  H   UNL     2      -9.185  20.320  69.371  1.00  0.00     0.000 HD 
HETATM   24  O   UNL     2     -10.990  19.707  66.002  1.00  0.00    -0.368 OA 
HETATM   25  O   UNL     2      -9.474  21.055  67.098  1.00  0.00    -0.323 OA 
ENDBRANCH  17  20
ENDBRANCH  14  17
ENDBRANCH  11  14
ENDBRANCH   8  11
ENDBRANCH   5   8
BRANCH   6  26
HETATM   26  C   UNL     3     -10.468  12.137  68.660  1.00  0.00    -0.216 C  
HETATM   27  H   UNL     3      -9.163  13.498  68.303  1.00  0.00     0.000 HD 
HETATM   28  O   UNL     3      -9.212  12.562  68.148  1.00  0.00    -0.200 OA 
BRANCH  26  29
HETATM   29  C   UNL     3     -11.671  12.899  68.043  1.00  0.00    -0.356 C  
HETATM   30  O   UNL     3     -11.831  14.207  68.749  1.00  0.00    -0.317 OA 
HETATM   31  H   UNL     3     -12.568  14.674  68.371  1.00  0.00     0.000 HD 
BRANCH  29  32
HETATM   32  C   UNL     3     -11.462  13.336  66.577  1.00  0.00    -0.337 C  
HETATM   33  H   UNL     3     -11.773  14.999  65.568  1.00  0.00     0.000 HD 
HETATM   34  O   UNL     3     -11.902  14.729  66.470  1.00  0.00    -0.332 OA 
BRANCH  32  35
HETATM   35  C   UNL     3     -11.765  12.470  65.345  1.00  0.00    -0.398 C  
HETATM   36  H   UNL     3     -13.339  12.131  64.273  1.00  0.00     0.000 HD 
HETATM   37  O   UNL     3     -13.151  12.667  65.035  1.00  0.00    -0.808 OA 
BRANCH  35  38
HETATM   38  C   UNL     3     -10.866  12.669  64.130  1.00  0.00    -0.396 C  
HETATM   39  C   UNL     3     -10.070  11.375  63.820  1.00  0.00    -0.362 C  
HETATM   40  O   UNL     3      -9.930  13.743  64.351  1.00  0.00    -0.714 OA 
HETATM   41  O   UNL     3     -10.342  10.366  64.544  1.00  0.00    -0.311 OA 
HETATM   42  O   UNL     3      -9.089  11.554  63.047  1.00  0.00    -0.244 OA 
HETATM   43  H   UNL     3      -9.370  13.867  63.594  1.00  0.00     0.000 HD 
ENDBRANCH  35  38
ENDBRANCH  32  35
ENDBRANCH  29  32
ENDBRANCH  26  29
ENDBRANCH   6  26
TORSDOF 10
ENDMDL
MODEL       59
REMARK 921   NORMALIZED FREE ENERGY PREDICTED BY IDOCK:   -6.52 KCAL/MOL
REMARK 922        TOTAL FREE ENERGY PREDICTED BY IDOCK:  -12.84 KCAL/MOL
REMARK 923 INTER-LIGAND FREE ENERGY PREDICTED BY IDOCK:   -9.64 KCAL/MOL
REMARK 924 INTRA-LIGAND FREE ENERGY PREDICTED BY IDOCK:   -3.19 KCAL/MOL
REMARK 927      BINDING AFFINITY PREDICTED BY RF-SCORE:    0.00 PKD
ROOT
HETATM    1 CA   UNL     1     -11.646   9.242  67.548  1.00  0.00    -0.499 Ca 
HETATM    2  O   UNL     2      -9.995  13.431  63.992  1.00  0.00    -0.764 OA 
HETATM    3  O   UNL     3     -11.502   7.880  73.686  1.00  0.00    -0.297 OA 
HETATM    4  H   UNL     2      -9.215  13.055  63.601  1.00  0.00     0.000 HD 
HETATM    5  C   UNL     2     -10.504  12.526  64.970  1.00  0.00    -0.297 C  
HETATM    6  C   UNL     3     -10.792   7.640  72.474  1.00  0.00    -0.314 C  
HETATM    7  H   UNL     3     -11.701   7.058  74.118  1.00  0.00     0.000 HD 
ENDROOT
BRANCH   5   8
HETATM    8  C   UNL     2     -11.772  13.137  65.604  1.00  0.00    -0.364 C  
HETATM    9  O   UNL     2     -12.907  12.519  65.007  1.00  0.00    -0.742 OA 
HETATM   10  H   UNL     2     -13.687  12.896  65.397  1.00  0.00     0.000 HD 
BRANCH   8  11
HETATM   11  C   UNL     2     -11.824  12.869  67.117  1.00  0.00    -0.362 C  
HETATM   12  H   UNL     2     -12.014  11.305  68.364  1.00  0.00     0.000 HD 
HETATM   13  O   UNL     2     -11.982  11.471  67.429  1.00  0.00    -0.623 OA 
BRANCH  11  14
HETATM   14  C   UNL     2     -10.731  13.466  68.037  1.00  0.00    -0.248 C  
HETATM   15  O   UNL     2     -10.027  12.424  68.694  1.00  0.00    -0.334 OA 
HETATM   16  H   UNL     2      -9.356  12.791  69.259  1.00  0.00     0.000 HD 
BRANCH  14  17
HETATM   17  C   UNL     2     -11.114  14.659  68.933  1.00  0.00    -0.254 C  
HETATM   18  H   UNL     2     -11.874  16.432  68.628  1.00  0.00     0.000 HD 
HETATM   19  O   UNL     2     -11.638  15.696  68.075  1.00  0.00    -0.332 OA 
BRANCH  17  20
HETATM   20  C   UNL     2     -12.061  14.350  70.092  1.00  0.00    -0.335 C  
HETATM   21  O   UNL     2     -11.946  12.973  70.516  1.00  0.00    -0.488 OA 
HETATM   22  C   UNL     2     -11.683  15.291  71.270  1.00  0.00    -0.372 C  
HETATM   23  H   UNL     2     -12.536  12.781  71.236  1.00  0.00     0.000 HD 
HETATM   24  O   UNL     2     -11.389  16.465  70.920  1.00  0.00    -0.373 OA 
HETATM   25  O   UNL     2     -11.705  14.720  72.393  1.00  0.00    -0.266 OA 
ENDBRANCH  17  20
ENDBRANCH  14  17
ENDBRANCH  11  14
ENDBRANCH   8  11
ENDBRANCH   5   8
BRANCH   6  26
HETATM   26  C   UNL     3     -10.469   8.970  71.777  1.00  0.00    -0.348 C  
HETATM   27  H   UNL     3      -8.915  10.089  71.658  1.00  0.00     0.000 HD 
HETATM   28  O   UNL     3      -9.114   9.266  72.089  1.00  0.00    -0.197 OA 
BRANCH  26  29
HETATM   29  C   UNL     3     -10.750   8.918  70.252  1.00  0.00    -0.221 C  
HETATM   30  O   UNL     3     -11.204  10.267  69.796  1.00  0.00    -0.248 OA 
HETATM   31  H   UNL     3     -11.377  10.235  68.862  1.00  0.00     0.000 HD 
BRANCH  29  32
HETATM   32  C   UNL     3      -9.497   8.679  69.384  1.00  0.00    -0.161 C  
HETATM   33  H   UNL     3      -8.599   9.674  67.940  1.00  0.00     0.000 HD 
HETATM   34  O   UNL     3      -9.371   9.821  68.475  1.00  0.00    -0.139 OA 
BRANCH  32  35
HETATM   35  C   UNL     3      -9.086   7.327  68.778  1.00  0.00    -0.127 C  
HETATM   36  H   UNL     3      -7.978   6.783  67.289  1.00  0.00     0.000 HD 
HETATM   37  O   UNL     3      -8.232   7.619  67.664  1.00  0.00    -0.119 OA 
BRANCH  35  38
HETATM   38  C   UNL     3      -8.469   6.309  69.729  1.00  0.00    -0.126 C  
HETATM   39  C   UNL     3      -9.524   5.260  70.167  1.00  0.00    -0.160 C  
HETATM   40  O   UNL     3      -7.947   6.955  70.907  1.00  0.00    -0.097 OA 
HETATM   41  O   UNL     3     -10.668   5.357  69.621  1.00  0.00    -0.308 OA 
HETATM   42  O   UNL     3      -9.184   4.590  71.181  1.00  0.00    -0.127 OA 
HETATM   43  H   UNL     3      -7.562   6.320  71.501  1.00  0.00     0.000 HD 
ENDBRANCH  35  38
ENDBRANCH  32  35
ENDBRANCH  29  32
ENDBRANCH  26  29
ENDBRANCH   6  26
TORSDOF 10
ENDMDL
MODEL       60
REMARK 921   NORMALIZED FREE ENERGY PREDICTED BY IDOCK:   -6.52 KCAL/MOL
REMARK 922        TOTAL FREE ENERGY PREDICTED BY IDOCK:  -12.82 KCAL/MOL
REMARK 923 INTER-LIGAND FREE ENERGY PREDICTED BY IDOCK:   -9.55 KCAL/MOL
REMARK 924 INTRA-LIGAND FREE ENERGY PREDICTED BY IDOCK:   -3.27 KCAL/MOL
REMARK 927      BINDING AFFINITY PREDICTED BY RF-SCORE:    0.00 PKD
ROOT
HETATM    1 CA   UNL     1      -7.618  13.944  68.360  1.00  0.00    -0.089 Ca 
HETATM    2  O   UNL     2      -6.855   8.983  65.581  1.00  0.00    -0.074 OA 
HETATM    3  O   UNL     3      -9.301  19.877  67.130  1.00  0.00    -0.327 OA 
HETATM    4  H   UNL     2      -5.908   8.940  65.520  1.00  0.00     0.000 HD 
HETATM    5  C   UNL     2      -7.223  10.214  66.200  1.00  0.00    -0.115 C  
HETATM    6  C   UNL     3      -8.147  19.058  67.297  1.00  0.00    -0.262 C  
HETATM    7  H   UNL     3      -9.246  20.640  67.693  1.00  0.00     0.000 HD 
ENDROOT
BRANCH   5   8
HETATM    8  C   UNL     2      -8.762  10.283  66.298  1.00  0.00    -0.146 C  
HETATM    9  O   UNL     2      -9.169   9.500  67.415  1.00  0.00    -0.133 OA 
HETATM   10  H   UNL     2     -10.117   9.542  67.475  1.00  0.00     0.000 HD 
BRANCH   8  11
HETATM   11  C   UNL     2      -9.243  11.725  66.526  1.00  0.00    -0.201 C  
HETATM   12  H   UNL     2      -8.452  13.542  66.855  1.00  0.00     0.000 HD 
HETATM   13  O   UNL     2      -8.155  12.651  66.714  1.00  0.00    -0.069 OA 
BRANCH  11  14
HETATM   14  C   UNL     2     -10.270  12.352  65.551  1.00  0.00    -0.274 C  
HETATM   15  O   UNL     2      -9.920  13.699  65.278  1.00  0.00    -0.483 OA 
HETATM   16  H   UNL     2     -10.551  14.084  64.679  1.00  0.00     0.000 HD 
BRANCH  14  17
HETATM   17  C   UNL     2     -11.767  12.110  65.824  1.00  0.00    -0.327 C  
HETATM   18  H   UNL     2     -12.873  11.938  67.425  1.00  0.00     0.000 HD 
HETATM   19  O   UNL     2     -11.949  12.088  67.257  1.00  0.00    -0.591 OA 
BRANCH  17  20
HETATM   20  C   UNL     2     -12.736  13.076  65.144  1.00  0.00    -0.397 C  
HETATM   21  O   UNL     2     -12.500  14.440  65.558  1.00  0.00    -0.408 OA 
HETATM   22  C   UNL     2     -12.520  12.953  63.609  1.00  0.00    -0.348 C  
HETATM   23  H   UNL     2     -13.103  15.041  65.135  1.00  0.00     0.000 HD 
HETATM   24  O   UNL     2     -12.332  11.774  63.207  1.00  0.00    -0.518 OA 
HETATM   25  O   UNL     2     -12.541  14.062  63.010  1.00  0.00    -0.643 OA 
ENDBRANCH  17  20
ENDBRANCH  14  17
ENDBRANCH  11  14
ENDBRANCH   8  11
ENDBRANCH   5   8
BRANCH   6  26
HETATM   26  C   UNL     3      -8.235  17.826  66.386  1.00  0.00    -0.255 C  
HETATM   27  H   UNL     3      -7.122  17.081  65.012  1.00  0.00     0.000 HD 
HETATM   28  O   UNL     3      -7.068  17.843  65.575  1.00  0.00    -0.487 OA 
BRANCH  26  29
HETATM   29  C   UNL     3      -8.403  16.510  67.191  1.00  0.00    -0.180 C  
HETATM   30  O   UNL     3      -7.760  16.674  68.531  1.00  0.00    -0.192 OA 
HETATM   31  H   UNL     3      -7.862  15.868  69.023  1.00  0.00     0.000 HD 
BRANCH  29  32
HETATM   32  C   UNL     3      -9.864  16.175  67.563  1.00  0.00    -0.237 C  
HETATM   33  H   UNL     3     -11.594  16.287  66.628  1.00  0.00     0.000 HD 
HETATM   34  O   UNL     3     -10.695  16.494  66.399  1.00  0.00    -0.261 OA 
BRANCH  32  35
HETATM   35  C   UNL     3     -10.519  16.472  68.921  1.00  0.00    -0.304 C  
HETATM   36  H   UNL     3     -10.796  18.067  69.980  1.00  0.00     0.000 HD 
HETATM   37  O   UNL     3     -10.390  17.883  69.140  1.00  0.00    -0.340 OA 
BRANCH  35  38
HETATM   38  C   UNL     3     -11.951  15.985  69.111  1.00  0.00    -0.177 C  
HETATM   39  C   UNL     3     -12.188  15.543  70.579  1.00  0.00    -0.404 C  
HETATM   40  O   UNL     3     -12.237  14.870  68.243  1.00  0.00    -0.570 OA 
HETATM   41  O   UNL     3     -11.219  15.727  71.381  1.00  0.00    -0.366 OA 
HETATM   42  O   UNL     3     -13.226  14.842  70.737  1.00  0.00    -0.371 OA 
HETATM   43  H   UNL     3     -13.129  14.567  68.362  1.00  0.00     0.000 HD 
ENDBRANCH  35  38
ENDBRANCH  32  35
ENDBRANCH  29  32
ENDBRANCH  26  29
ENDBRANCH   6  26
TORSDOF 10
ENDMDL
MODEL       61
REMARK 921   NORMALIZED FREE ENERGY PREDICTED BY IDOCK:   -6.51 KCAL/MOL
REMARK 922        TOTAL FREE ENERGY PREDICTED BY IDOCK:  -12.82 KCAL/MOL
REMARK 923 INTER-LIGAND FREE ENERGY PREDICTED BY IDOCK:  -10.08 KCAL/MOL
REMARK 924 INTRA-LIGAND FREE ENERGY PREDICTED BY IDOCK:   -2.74 KCAL/MOL
REMARK 927      BINDING AFFINITY PREDICTED BY RF-SCORE:    0.00 PKD
ROOT
HETATM    1 CA   UNL     1     -11.755   8.403  67.731  1.00  0.00    -0.378 Ca 
HETATM    2  O   UNL     2     -14.234   9.015  72.870  1.00  0.00    -1.042 OA 
HETATM    3  O   UNL     3      -9.078  11.957  63.287  1.00  0.00    -0.604 OA 
HETATM    4  H   UNL     2     -15.154   8.934  72.649  1.00  0.00     0.000 HD 
HETATM    5  C   UNL     2     -13.465   8.951  71.670  1.00  0.00    -0.378 C  
HETATM    6  C   UNL     3     -10.321  11.351  63.631  1.00  0.00    -0.410 C  
HETATM    7  H   UNL     3      -8.829  11.716  62.402  1.00  0.00     0.000 HD 
ENDROOT
BRANCH   5   8
HETATM    8  C   UNL     2     -11.969   9.082  72.028  1.00  0.00    -0.363 C  
HETATM    9  O   UNL     2     -11.645   8.051  72.955  1.00  0.00    -0.535 OA 
HETATM   10  H   UNL     2     -10.724   8.132  73.176  1.00  0.00     0.000 HD 
BRANCH   8  11
HETATM   11  C   UNL     2     -11.080   8.903  70.787  1.00  0.00    -0.261 C  
HETATM   12  H   UNL     2     -10.753   9.811  69.024  1.00  0.00     0.000 HD 
HETATM   13  O   UNL     2     -11.302   9.922  69.792  1.00  0.00    -0.239 OA 
BRANCH  11  14
HETATM   14  C   UNL     2      -9.555   8.700  70.961  1.00  0.00    -0.209 C  
HETATM   15  O   UNL     2      -8.873   9.924  70.740  1.00  0.00    -0.345 OA 
HETATM   16  H   UNL     2      -7.937   9.799  70.847  1.00  0.00     0.000 HD 
BRANCH  14  17
HETATM   17  C   UNL     2      -8.910   7.466  70.301  1.00  0.00    -0.147 C  
HETATM   18  H   UNL     2      -9.404   5.588  70.098  1.00  0.00     0.000 HD 
HETATM   19  O   UNL     2      -9.802   6.349  70.505  1.00  0.00    -0.181 OA 
BRANCH  17  20
HETATM   20  C   UNL     2      -8.520   7.620  68.832  1.00  0.00    -0.129 C  
HETATM   21  O   UNL     2      -9.116   8.800  68.247  1.00  0.00    -0.140 OA 
HETATM   22  C   UNL     2      -6.971   7.734  68.768  1.00  0.00    -0.067 C  
HETATM   23  H   UNL     2      -8.874   8.895  67.334  1.00  0.00     0.000 HD 
HETATM   24  O   UNL     2      -6.363   6.966  69.561  1.00  0.00    -0.036 OA 
HETATM   25  O   UNL     2      -6.566   8.599  67.946  1.00  0.00    -0.059 OA 
ENDBRANCH  17  20
ENDBRANCH  14  17
ENDBRANCH  11  14
ENDBRANCH   8  11
ENDBRANCH   5   8
BRANCH   6  26
HETATM   26  C   UNL     3     -10.723  11.742  65.060  1.00  0.00    -0.292 C  
HETATM   27  H   UNL     3     -10.368  11.026  66.805  1.00  0.00     0.000 HD 
HETATM   28  O   UNL     3     -10.119  10.785  65.921  1.00  0.00    -0.237 OA 
BRANCH  26  29
HETATM   29  C   UNL     3     -10.335  13.205  65.402  1.00  0.00    -0.301 C  
HETATM   30  O   UNL     3     -10.574  14.064  64.201  1.00  0.00    -0.542 OA 
HETATM   31  H   UNL     3     -10.336  14.959  64.410  1.00  0.00     0.000 HD 
BRANCH  29  32
HETATM   32  C   UNL     3     -11.235  13.867  66.467  1.00  0.00    -0.321 C  
HETATM   33  H   UNL     3     -13.170  14.188  66.643  1.00  0.00     0.000 HD 
HETATM   34  O   UNL     3     -12.617  13.780  65.987  1.00  0.00    -0.454 OA 
BRANCH  32  35
HETATM   35  C   UNL     3     -10.899  15.160  67.227  1.00  0.00    -0.316 C  
HETATM   36  H   UNL     3     -10.655  17.011  66.723  1.00  0.00     0.000 HD 
HETATM   37  O   UNL     3     -10.863  16.211  66.253  1.00  0.00    -0.257 OA 
BRANCH  35  38
HETATM   38  C   UNL     3     -11.786  15.505  68.418  1.00  0.00    -0.309 C  
HETATM   39  C   UNL     3     -10.941  16.100  69.575  1.00  0.00    -0.341 C  
HETATM   40  O   UNL     3     -12.472  14.334  68.906  1.00  0.00    -0.563 OA 
HETATM   41  O   UNL     3      -9.707  16.281  69.329  1.00  0.00    -0.251 OA 
HETATM   42  O   UNL     3     -11.538  16.111  70.686  1.00  0.00    -0.376 OA 
HETATM   43  H   UNL     3     -13.025  14.549  69.648  1.00  0.00     0.000 HD 
ENDBRANCH  35  38
ENDBRANCH  32  35
ENDBRANCH  29  32
ENDBRANCH  26  29
ENDBRANCH   6  26
TORSDOF 10
ENDMDL
MODEL       62
REMARK 921   NORMALIZED FREE ENERGY PREDICTED BY IDOCK:   -6.50 KCAL/MOL
REMARK 922        TOTAL FREE ENERGY PREDICTED BY IDOCK:  -12.80 KCAL/MOL
REMARK 923 INTER-LIGAND FREE ENERGY PREDICTED BY IDOCK:   -9.68 KCAL/MOL
REMARK 924 INTRA-LIGAND FREE ENERGY PREDICTED BY IDOCK:   -3.13 KCAL/MOL
REMARK 927      BINDING AFFINITY PREDICTED BY RF-SCORE:    0.00 PKD
ROOT
HETATM    1 CA   UNL     1     -13.140  10.567  69.115  1.00  0.00    -0.529 Ca 
HETATM    2  O   UNL     2     -12.180   6.080  72.560  1.00  0.00    -0.533 OA 
HETATM    3  O   UNL     3     -10.722  16.247  67.914  1.00  0.00    -0.310 OA 
HETATM    4  H   UNL     2     -12.856   6.195  73.218  1.00  0.00     0.000 HD 
HETATM    5  C   UNL     2     -12.237   7.172  71.644  1.00  0.00    -0.350 C  
HETATM    6  C   UNL     3     -11.748  15.609  68.670  1.00  0.00    -0.352 C  
HETATM    7  H   UNL     3     -11.088  16.951  67.392  1.00  0.00     0.000 HD 
ENDROOT
BRANCH   5   8
HETATM    8  C   UNL     2     -11.139   6.985  70.575  1.00  0.00    -0.280 C  
HETATM    9  O   UNL     2     -11.650   6.127  69.561  1.00  0.00    -0.445 OA 
HETATM   10  H   UNL     2     -10.974   6.011  68.903  1.00  0.00     0.000 HD 
BRANCH   8  11
HETATM   11  C   UNL     2     -10.763   8.324  69.921  1.00  0.00    -0.234 C  
HETATM   12  H   UNL     2     -11.006  10.289  70.264  1.00  0.00     0.000 HD 
HETATM   13  O   UNL     2     -11.238   9.461  70.668  1.00  0.00    -0.249 OA 
BRANCH  11  14
HETATM   14  C   UNL     2      -9.296   8.583  69.497  1.00  0.00    -0.161 C  
HETATM   15  O   UNL     2      -8.973   9.952  69.677  1.00  0.00    -0.190 OA 
HETATM   16  H   UNL     2      -8.072  10.111  69.416  1.00  0.00     0.000 HD 
BRANCH  14  17
HETATM   17  C   UNL     2      -8.807   7.967  68.172  1.00  0.00    -0.125 C  
HETATM   18  H   UNL     2      -8.177   8.675  66.465  1.00  0.00     0.000 HD 
HETATM   19  O   UNL     2      -8.478   9.056  67.282  1.00  0.00    -0.114 OA 
BRANCH  17  20
HETATM   20  C   UNL     2      -7.662   6.961  68.285  1.00  0.00    -0.113 C  
HETATM   21  O   UNL     2      -6.694   7.369  69.277  1.00  0.00    -0.040 OA 
HETATM   22  C   UNL     2      -8.279   5.593  68.693  1.00  0.00    -0.103 C  
HETATM   23  H   UNL     2      -5.983   6.744  69.346  1.00  0.00     0.000 HD 
HETATM   24  O   UNL     2      -9.371   5.328  68.122  1.00  0.00    -0.111 OA 
HETATM   25  O   UNL     2      -7.599   4.974  69.554  1.00  0.00    -0.056 OA 
ENDBRANCH  17  20
ENDBRANCH  14  17
ENDBRANCH  11  14
ENDBRANCH   8  11
ENDBRANCH   5   8
BRANCH   6  26
HETATM   26  C   UNL     3     -11.155  14.472  69.514  1.00  0.00    -0.253 C  
HETATM   27  H   UNL     3     -11.789  13.406  70.979  1.00  0.00     0.000 HD 
HETATM   28  O   UNL     3     -12.156  14.110  70.457  1.00  0.00    -0.308 OA 
BRANCH  26  29
HETATM   29  C   UNL     3     -10.675  13.281  68.642  1.00  0.00    -0.259 C  
HETATM   30  O   UNL     3     -10.962  12.004  69.364  1.00  0.00    -0.402 OA 
HETATM   31  H   UNL     3     -10.667  11.275  68.830  1.00  0.00     0.000 HD 
BRANCH  29  32
HETATM   32  C   UNL     3     -11.461  13.102  67.326  1.00  0.00    -0.331 C  
HETATM   33  H   UNL     3     -12.763  11.783  66.657  1.00  0.00     0.000 HD 
HETATM   34  O   UNL     3     -12.279  11.894  67.467  1.00  0.00    -0.510 OA 
BRANCH  32  35
HETATM   35  C   UNL     3     -10.890  13.329  65.918  1.00  0.00    -0.277 C  
HETATM   36  H   UNL     3      -9.971  12.221  64.626  1.00  0.00     0.000 HD 
HETATM   37  O   UNL     3     -10.324  12.080  65.497  1.00  0.00    -0.246 OA 
BRANCH  35  38
HETATM   38  C   UNL     3     -11.840  13.913  64.878  1.00  0.00    -0.387 C  
HETATM   39  C   UNL     3     -11.385  15.336  64.459  1.00  0.00    -0.300 C  
HETATM   40  O   UNL     3     -13.183  13.995  65.396  1.00  0.00    -0.761 OA 
HETATM   41  O   UNL     3     -10.290  15.741  64.961  1.00  0.00    -0.468 OA 
HETATM   42  O   UNL     3     -12.276  15.998  63.859  1.00  0.00    -0.883 OA 
HETATM   43  H   UNL     3     -13.775  14.359  64.749  1.00  0.00     0.000 HD 
ENDBRANCH  35  38
ENDBRANCH  32  35
ENDBRANCH  29  32
ENDBRANCH  26  29
ENDBRANCH   6  26
TORSDOF 10
ENDMDL
MODEL       63
REMARK 921   NORMALIZED FREE ENERGY PREDICTED BY IDOCK:   -6.49 KCAL/MOL
REMARK 922        TOTAL FREE ENERGY PREDICTED BY IDOCK:  -12.79 KCAL/MOL
REMARK 923 INTER-LIGAND FREE ENERGY PREDICTED BY IDOCK:  -10.16 KCAL/MOL
REMARK 924 INTRA-LIGAND FREE ENERGY PREDICTED BY IDOCK:   -2.63 KCAL/MOL
REMARK 927      BINDING AFFINITY PREDICTED BY RF-SCORE:    0.00 PKD
ROOT
HETATM    1 CA   UNL     1     -11.726   7.399  66.863  1.00  0.00    -0.509 Ca 
HETATM    2  O   UNL     2      -9.658  11.709  63.690  1.00  0.00    -0.411 OA 
HETATM    3  O   UNL     3     -11.944   5.604  72.887  1.00  0.00    -0.541 OA 
HETATM    4  H   UNL     2      -8.886  11.310  63.305  1.00  0.00     0.000 HD 
HETATM    5  C   UNL     2     -10.266  10.773  64.579  1.00  0.00    -0.359 C  
HETATM    6  C   UNL     3     -11.197   5.404  71.690  1.00  0.00     0.021 C  
HETATM    7  H   UNL     3     -12.214   4.769  73.249  1.00  0.00     0.000 HD 
ENDROOT
BRANCH   5   8
HETATM    8  C   UNL     2     -11.520  11.421  65.204  1.00  0.00     0.076 C  
HETATM    9  O   UNL     2     -11.349  11.441  66.617  1.00  0.00    -0.355 OA 
HETATM   10  H   UNL     2     -12.121  11.839  67.002  1.00  0.00     0.000 HD 
BRANCH   8  11
HETATM   11  C   UNL     2     -11.698  12.870  64.725  1.00  0.00    -0.346 C  
HETATM   12  H   UNL     2     -12.561  13.859  63.203  1.00  0.00     0.000 HD 
HETATM   13  O   UNL     2     -12.451  12.963  63.500  1.00  0.00    -0.683 OA 
BRANCH  11  14
HETATM   14  C   UNL     2     -12.217  13.944  65.713  1.00  0.00    -0.460 C  
HETATM   15  O   UNL     2     -13.431  14.499  65.233  1.00  0.00    -0.376 OA 
HETATM   16  H   UNL     2     -13.750  15.158  65.839  1.00  0.00     0.000 HD 
BRANCH  14  17
HETATM   17  C   UNL     2     -11.207  14.967  66.266  1.00  0.00    -0.331 C  
HETATM   18  H   UNL     2      -9.584  14.863  67.348  1.00  0.00     0.000 HD 
HETATM   19  O   UNL     2     -10.207  14.232  67.007  1.00  0.00    -0.256 OA 
BRANCH  17  20
HETATM   20  C   UNL     2     -10.575  15.906  65.239  1.00  0.00    -0.419 C  
HETATM   21  O   UNL     2     -11.347  15.952  64.019  1.00  0.00    -0.965 OA 
HETATM   22  C   UNL     2     -10.520  17.324  65.873  1.00  0.00    -0.262 C  
HETATM   23  H   UNL     2     -10.954  16.535  63.380  1.00  0.00     0.000 HD 
HETATM   24  O   UNL     2     -10.207  17.332  67.094  1.00  0.00    -0.303 OA 
HETATM   25  O   UNL     2     -10.824  18.245  65.068  1.00  0.00    -0.679 OA 
ENDBRANCH  17  20
ENDBRANCH  14  17
ENDBRANCH  11  14
ENDBRANCH   8  11
ENDBRANCH   5   8
BRANCH   6  26
HETATM   26  C   UNL     3     -10.760   6.754  71.106  1.00  0.00    -0.229 C  
HETATM   27  H   UNL     3     -11.066   7.669  69.446  1.00  0.00     0.000 HD 
HETATM   28  O   UNL     3     -11.336   6.833  69.808  1.00  0.00    -0.309 OA 
BRANCH  26  29
HETATM   29  C   UNL     3     -11.148   7.945  72.022  1.00  0.00    -0.278 C  
HETATM   30  O   UNL     3     -10.263   7.939  73.227  1.00  0.00    -0.324 OA 
HETATM   31  H   UNL     3     -10.500   8.668  73.788  1.00  0.00     0.000 HD 
BRANCH  29  32
HETATM   32  C   UNL     3     -10.866   9.334  71.410  1.00  0.00    -0.364 C  
HETATM   33  H   UNL     3     -11.928  10.642  70.390  1.00  0.00     0.000 HD 
HETATM   34  O   UNL     3     -12.101   9.787  70.766  1.00  0.00    -0.285 OA 
BRANCH  32  35
HETATM   35  C   UNL     3      -9.576   9.730  70.675  1.00  0.00    -0.029 C  
HETATM   36  H   UNL     3      -7.686   9.524  71.034  1.00  0.00     0.000 HD 
HETATM   37  O   UNL     3      -8.484   9.279  71.488  1.00  0.00    -0.320 OA 
BRANCH  35  38
HETATM   38  C   UNL     3      -9.445   9.275  69.226  1.00  0.00    -0.160 C  
HETATM   39  C   UNL     3      -8.464  10.192  68.451  1.00  0.00    -0.118 C  
HETATM   40  O   UNL     3     -10.723   9.302  68.560  1.00  0.00    -0.321 OA 
HETATM   41  O   UNL     3      -7.881  11.090  69.135  1.00  0.00    -0.136 OA 
HETATM   42  O   UNL     3      -8.549  10.081  67.196  1.00  0.00    -0.128 OA 
HETATM   43  H   UNL     3     -10.642   9.017  67.657  1.00  0.00     0.000 HD 
ENDBRANCH  35  38
ENDBRANCH  32  35
ENDBRANCH  29  32
ENDBRANCH  26  29
ENDBRANCH   6  26
TORSDOF 10
ENDMDL
MODEL       64
REMARK 921   NORMALIZED FREE ENERGY PREDICTED BY IDOCK:   -6.49 KCAL/MOL
REMARK 922        TOTAL FREE ENERGY PREDICTED BY IDOCK:  -12.79 KCAL/MOL
REMARK 923 INTER-LIGAND FREE ENERGY PREDICTED BY IDOCK:  -10.62 KCAL/MOL
REMARK 924 INTRA-LIGAND FREE ENERGY PREDICTED BY IDOCK:   -2.17 KCAL/MOL
REMARK 927      BINDING AFFINITY PREDICTED BY RF-SCORE:    0.00 PKD
ROOT
HETATM    1 CA   UNL     1      -8.732  12.673  69.413  1.00  0.00    -0.340 Ca 
HETATM    2  O   UNL     2     -12.016  16.571  72.047  1.00  0.00    -0.638 OA 
HETATM    3  O   UNL     3      -8.063   6.426  69.128  1.00  0.00    -0.109 OA 
HETATM    4  H   UNL     2     -11.432  16.886  72.727  1.00  0.00     0.000 HD 
HETATM    5  C   UNL     2     -11.364  15.527  71.325  1.00  0.00    -0.391 C  
HETATM    6  C   UNL     3      -7.536   7.574  69.786  1.00  0.00    -0.091 C  
HETATM    7  H   UNL     3      -7.361   5.920  68.737  1.00  0.00     0.000 HD 
ENDROOT
BRANCH   5   8
HETATM    8  C   UNL     2     -12.313  15.015  70.221  1.00  0.00    -0.342 C  
HETATM    9  O   UNL     2     -13.609  15.551  70.469  1.00  0.00    -0.826 OA 
HETATM   10  H   UNL     2     -14.193  15.236  69.789  1.00  0.00     0.000 HD 
BRANCH   8  11
HETATM   11  C   UNL     2     -11.859  15.489  68.831  1.00  0.00    -0.338 C  
HETATM   12  H   UNL     2     -10.898  17.052  68.012  1.00  0.00     0.000 HD 
HETATM   13  O   UNL     2     -11.178  16.759  68.871  1.00  0.00    -0.250 OA 
BRANCH  11  14
HETATM   14  C   UNL     2     -11.064  14.525  67.916  1.00  0.00    -0.279 C  
HETATM   15  O   UNL     2      -9.739  14.378  68.400  1.00  0.00    -0.214 OA 
HETATM   16  H   UNL     2      -9.251  13.786  67.838  1.00  0.00     0.000 HD 
BRANCH  14  17
HETATM   17  C   UNL     2     -11.185  14.711  66.392  1.00  0.00    -0.336 C  
HETATM   18  H   UNL     2     -10.168  15.673  65.030  1.00  0.00     0.000 HD 
HETATM   19  O   UNL     2     -10.094  15.559  65.970  1.00  0.00    -0.286 OA 
BRANCH  17  20
HETATM   20  C   UNL     2     -11.258  13.428  65.565  1.00  0.00    -0.288 C  
HETATM   21  O   UNL     2     -11.446  12.267  66.404  1.00  0.00    -0.340 OA 
HETATM   22  C   UNL     2     -12.463  13.567  64.592  1.00  0.00    -0.323 C  
HETATM   23  H   UNL     2     -11.491  11.470  65.890  1.00  0.00     0.000 HD 
HETATM   24  O   UNL     2     -12.592  14.715  64.089  1.00  0.00    -0.766 OA 
HETATM   25  O   UNL     2     -13.140  12.509  64.479  1.00  0.00    -0.816 OA 
ENDBRANCH  17  20
ENDBRANCH  14  17
ENDBRANCH  11  14
ENDBRANCH   8  11
ENDBRANCH   5   8
BRANCH   6  26
HETATM   26  C   UNL     3      -8.671   8.391  70.418  1.00  0.00    -0.141 C  
HETATM   27  H   UNL     3      -8.790   9.637  71.873  1.00  0.00     0.000 HD 
HETATM   28  O   UNL     3      -8.088   9.132  71.482  1.00  0.00    -0.337 OA 
BRANCH  26  29
HETATM   29  C   UNL     3      -9.403   9.282  69.380  1.00  0.00    -0.164 C  
HETATM   30  O   UNL     3      -9.455   8.562  68.071  1.00  0.00    -0.139 OA 
HETATM   31  H   UNL     3      -9.903   9.108  67.436  1.00  0.00     0.000 HD 
BRANCH  29  32
HETATM   32  C   UNL     3     -10.898   9.518  69.688  1.00  0.00    -0.235 C  
HETATM   33  H   UNL     3     -12.209  10.910  69.214  1.00  0.00     0.000 HD 
HETATM   34  O   UNL     3     -11.289  10.765  69.025  1.00  0.00    -0.243 OA 
BRANCH  32  35
HETATM   35  C   UNL     3     -11.568   9.277  71.050  1.00  0.00    -0.313 C  
HETATM   36  H   UNL     3     -12.849  10.247  72.127  1.00  0.00     0.000 HD 
HETATM   37  O   UNL     3     -12.434  10.395  71.285  1.00  0.00    -0.345 OA 
BRANCH  35  38
HETATM   38  C   UNL     3     -12.282   7.943  71.236  1.00  0.00    -0.294 C  
HETATM   39  C   UNL     3     -11.661   7.150  72.415  1.00  0.00    -0.253 C  
HETATM   40  O   UNL     3     -12.191   7.139  70.043  1.00  0.00    -0.535 OA 
HETATM   41  O   UNL     3     -10.749   7.747  73.070  1.00  0.00    -0.354 OA 
HETATM   42  O   UNL     3     -11.975   5.928  72.427  1.00  0.00    -0.298 OA 
HETATM   43  H   UNL     3     -12.636   6.308  70.158  1.00  0.00     0.000 HD 
ENDBRANCH  35  38
ENDBRANCH  32  35
ENDBRANCH  29  32
ENDBRANCH  26  29
ENDBRANCH   6  26
TORSDOF 10
ENDMDL
MODEL       65
REMARK 921   NORMALIZED FREE ENERGY PREDICTED BY IDOCK:   -6.49 KCAL/MOL
REMARK 922        TOTAL FREE ENERGY PREDICTED BY IDOCK:  -12.78 KCAL/MOL
REMARK 923 INTER-LIGAND FREE ENERGY PREDICTED BY IDOCK:  -10.32 KCAL/MOL
REMARK 924 INTRA-LIGAND FREE ENERGY PREDICTED BY IDOCK:   -2.46 KCAL/MOL
REMARK 927      BINDING AFFINITY PREDICTED BY RF-SCORE:    0.00 PKD
ROOT
HETATM    1 CA   UNL     1      -9.626  13.006  69.455  1.00  0.00    -0.371 Ca 
HETATM    2  O   UNL     2      -9.365   7.482  67.925  1.00  0.00    -0.138 OA 
HETATM    3  O   UNL     3      -7.506  18.592  67.492  1.00  0.00    -0.225 OA 
HETATM    4  H   UNL     2      -8.730   7.142  68.544  1.00  0.00     0.000 HD 
HETATM    5  C   UNL     2      -9.501   8.888  68.129  1.00  0.00    -0.143 C  
HETATM    6  C   UNL     3      -7.200  17.543  68.406  1.00  0.00    -0.226 C  
HETATM    7  H   UNL     3      -7.523  19.427  67.945  1.00  0.00     0.000 HD 
ENDROOT
BRANCH   5   8
HETATM    8  C   UNL     2     -10.533   9.441  67.124  1.00  0.00    -0.244 C  
HETATM    9  O   UNL     2     -11.595  10.034  67.863  1.00  0.00    -0.629 OA 
HETATM   10  H   UNL     2     -12.231  10.375  67.244  1.00  0.00     0.000 HD 
BRANCH   8  11
HETATM   11  C   UNL     2      -9.913  10.525  66.227  1.00  0.00    -0.221 C  
HETATM   12  H   UNL     2      -8.124  11.388  65.923  1.00  0.00     0.000 HD 
HETATM   13  O   UNL     2      -8.507  10.718  66.478  1.00  0.00    -0.136 OA 
BRANCH  11  14
HETATM   14  C   UNL     2     -10.145  10.476  64.696  1.00  0.00    -0.338 C  
HETATM   15  O   UNL     2      -9.402   9.411  64.126  1.00  0.00    -0.426 OA 
HETATM   16  H   UNL     2      -9.545   9.381  63.187  1.00  0.00     0.000 HD 
BRANCH  14  17
HETATM   17  C   UNL     2     -10.089  11.802  63.914  1.00  0.00    -0.368 C  
HETATM   18  H   UNL     2      -9.201  12.411  62.284  1.00  0.00     0.000 HD 
HETATM   19  O   UNL     2      -9.236  11.593  62.767  1.00  0.00    -0.346 OA 
BRANCH  17  20
HETATM   20  C   UNL     2     -11.437  12.403  63.517  1.00  0.00    -0.483 C  
HETATM   21  O   UNL     2     -12.338  11.393  63.012  1.00  0.00    -0.952 OA 
HETATM   22  C   UNL     2     -12.049  13.059  64.786  1.00  0.00    -0.415 C  
HETATM   23  H   UNL     2     -13.176  11.766  62.765  1.00  0.00     0.000 HD 
HETATM   24  O   UNL     2     -11.214  13.667  65.507  1.00  0.00    -0.292 OA 
HETATM   25  O   UNL     2     -13.287  12.856  64.907  1.00  0.00    -0.716 OA 
ENDBRANCH  17  20
ENDBRANCH  14  17
ENDBRANCH  11  14
ENDBRANCH   8  11
ENDBRANCH   5   8
BRANCH   6  26
HETATM   26  C   UNL     3      -7.174  16.194  67.674  1.00  0.00    -0.146 C  
HETATM   27  H   UNL     3      -5.838  14.850  67.369  1.00  0.00     0.000 HD 
HETATM   28  O   UNL     3      -5.854  15.684  67.821  1.00  0.00    -0.131 OA 
BRANCH  26  29
HETATM   29  C   UNL     3      -8.267  15.222  68.191  1.00  0.00    -0.141 C  
HETATM   30  O   UNL     3      -7.778  14.558  69.438  1.00  0.00    -0.306 OA 
HETATM   31  H   UNL     3      -8.447  13.963  69.754  1.00  0.00     0.000 HD 
BRANCH  29  32
HETATM   32  C   UNL     3      -9.559  15.918  68.671  1.00  0.00    -0.209 C  
HETATM   33  H   UNL     3     -10.729  15.736  70.245  1.00  0.00     0.000 HD 
HETATM   34  O   UNL     3      -9.935  15.307  69.949  1.00  0.00    -0.244 OA 
BRANCH  32  35
HETATM   35  C   UNL     3     -10.743  16.302  67.771  1.00  0.00    -0.325 C  
HETATM   36  H   UNL     3     -12.631  15.884  67.752  1.00  0.00     0.000 HD 
HETATM   37  O   UNL     3     -11.899  15.646  68.308  1.00  0.00    -0.318 OA 
BRANCH  35  38
HETATM   38  C   UNL     3     -10.976  17.792  67.544  1.00  0.00    -0.080 C  
HETATM   39  C   UNL     3     -10.366  18.241  66.191  1.00  0.00    -0.398 C  
HETATM   40  O   UNL     3     -10.380  18.573  68.599  1.00  0.00    -0.380 OA 
HETATM   41  O   UNL     3      -9.864  17.321  65.472  1.00  0.00    -0.541 OA 
HETATM   42  O   UNL     3     -10.237  19.492  66.082  1.00  0.00    -0.428 OA 
HETATM   43  H   UNL     3     -10.526  19.502  68.458  1.00  0.00     0.000 HD 
ENDBRANCH  35  38
ENDBRANCH  32  35
ENDBRANCH  29  32
ENDBRANCH  26  29
ENDBRANCH   6  26
TORSDOF 10
ENDMDL
MODEL       66
REMARK 921   NORMALIZED FREE ENERGY PREDICTED BY IDOCK:   -6.48 KCAL/MOL
REMARK 922        TOTAL FREE ENERGY PREDICTED BY IDOCK:  -12.77 KCAL/MOL
REMARK 923 INTER-LIGAND FREE ENERGY PREDICTED BY IDOCK:   -9.39 KCAL/MOL
REMARK 924 INTRA-LIGAND FREE ENERGY PREDICTED BY IDOCK:   -3.38 KCAL/MOL
REMARK 927      BINDING AFFINITY PREDICTED BY RF-SCORE:    0.00 PKD
ROOT
HETATM    1 CA   UNL     1     -11.082   9.758  67.439  1.00  0.00    -0.240 Ca 
HETATM    2  O   UNL     2      -8.850  14.874  66.109  1.00  0.00    -0.474 OA 
HETATM    3  O   UNL     3     -14.327   7.048  72.096  1.00  0.00    -0.613 OA 
HETATM    4  H   UNL     2      -7.928  14.733  66.289  1.00  0.00     0.000 HD 
HETATM    5  C   UNL     2      -9.573  13.694  66.457  1.00  0.00    -0.286 C  
HETATM    6  C   UNL     3     -12.995   7.218  71.616  1.00  0.00    -0.372 C  
HETATM    7  H   UNL     3     -14.510   6.127  72.234  1.00  0.00     0.000 HD 
ENDROOT
BRANCH   5   8
HETATM    8  C   UNL     2     -11.071  13.923  66.164  1.00  0.00    -0.299 C  
HETATM    9  O   UNL     2     -11.412  13.179  64.999  1.00  0.00    -0.298 OA 
HETATM   10  H   UNL     2     -12.334  13.319  64.819  1.00  0.00     0.000 HD 
BRANCH   8  11
HETATM   11  C   UNL     2     -11.949  13.422  67.323  1.00  0.00    -0.347 C  
HETATM   12  H   UNL     2     -12.783  11.704  67.948  1.00  0.00     0.000 HD 
HETATM   13  O   UNL     2     -12.240  12.014  67.232  1.00  0.00    -0.496 OA 
BRANCH  11  14
HETATM   14  C   UNL     2     -11.554  13.758  68.782  1.00  0.00    -0.328 C  
HETATM   15  O   UNL     2     -12.279  12.936  69.683  1.00  0.00    -0.245 OA 
HETATM   16  H   UNL     2     -12.036  13.142  70.578  1.00  0.00     0.000 HD 
BRANCH  14  17
HETATM   17  C   UNL     2     -11.463  15.242  69.183  1.00  0.00    -0.316 C  
HETATM   18  H   UNL     2     -12.453  16.413  70.394  1.00  0.00     0.000 HD 
HETATM   19  O   UNL     2     -12.509  15.497  70.147  1.00  0.00    -0.387 OA 
BRANCH  17  20
HETATM   20  C   UNL     2     -10.100  15.717  69.687  1.00  0.00    -0.289 C  
HETATM   21  O   UNL     2      -9.123  14.655  69.649  1.00  0.00    -0.406 OA 
HETATM   22  C   UNL     2      -9.640  16.881  68.764  1.00  0.00    -0.268 C  
HETATM   23  H   UNL     2      -8.276  14.950  69.962  1.00  0.00     0.000 HD 
HETATM   24  O   UNL     2     -10.562  17.672  68.432  1.00  0.00    -0.366 OA 
HETATM   25  O   UNL     2      -8.415  16.833  68.472  1.00  0.00    -0.223 OA 
ENDBRANCH  17  20
ENDBRANCH  14  17
ENDBRANCH  11  14
ENDBRANCH   8  11
ENDBRANCH   5   8
BRANCH   6  26
HETATM   26  C   UNL     3     -12.699   8.708  71.392  1.00  0.00    -0.276 C  
HETATM   27  H   UNL     3     -13.447  10.347  72.052  1.00  0.00     0.000 HD 
HETATM   28  O   UNL     3     -13.631   9.426  72.191  1.00  0.00    -0.425 OA 
BRANCH  26  29
HETATM   29  C   UNL     3     -11.221   9.066  71.702  1.00  0.00    -0.361 C  
HETATM   30  O   UNL     3     -10.444   7.803  71.892  1.00  0.00    -0.209 OA 
HETATM   31  H   UNL     3      -9.539   8.023  72.081  1.00  0.00     0.000 HD 
BRANCH  29  32
HETATM   32  C   UNL     3     -10.474   9.742  70.531  1.00  0.00    -0.301 C  
HETATM   33  H   UNL     3     -11.026  10.738  68.924  1.00  0.00     0.000 HD 
HETATM   34  O   UNL     3     -11.486  10.322  69.644  1.00  0.00    -0.248 OA 
BRANCH  32  35
HETATM   35  C   UNL     3      -9.247   9.160  69.813  1.00  0.00    -0.171 C  
HETATM   36  H   UNL     3      -8.982   7.837  68.428  1.00  0.00     0.000 HD 
HETATM   37  O   UNL     3      -9.740   8.197  68.872  1.00  0.00    -0.152 OA 
BRANCH  35  38
HETATM   38  C   UNL     3      -8.291  10.159  69.171  1.00  0.00    -0.154 C  
HETATM   39  C   UNL     3      -6.980  10.267  69.993  1.00  0.00    -0.151 C  
HETATM   40  O   UNL     3      -8.891  11.467  69.089  1.00  0.00    -0.378 OA 
HETATM   41  O   UNL     3      -6.876   9.477  70.984  1.00  0.00    -0.199 OA 
HETATM   42  O   UNL     3      -6.289  11.286  69.715  1.00  0.00    -0.108 OA 
HETATM   43  H   UNL     3      -8.295  12.090  68.689  1.00  0.00     0.000 HD 
ENDBRANCH  35  38
ENDBRANCH  32  35
ENDBRANCH  29  32
ENDBRANCH  26  29
ENDBRANCH   6  26
TORSDOF 10
ENDMDL
MODEL       67
REMARK 921   NORMALIZED FREE ENERGY PREDICTED BY IDOCK:   -6.48 KCAL/MOL
REMARK 922        TOTAL FREE ENERGY PREDICTED BY IDOCK:  -12.76 KCAL/MOL
REMARK 923 INTER-LIGAND FREE ENERGY PREDICTED BY IDOCK:   -9.53 KCAL/MOL
REMARK 924 INTRA-LIGAND FREE ENERGY PREDICTED BY IDOCK:   -3.23 KCAL/MOL
REMARK 927      BINDING AFFINITY PREDICTED BY RF-SCORE:    0.00 PKD
ROOT
HETATM    1 CA   UNL     1      -9.037  12.235  69.209  1.00  0.00    -0.360 Ca 
HETATM    2  O   UNL     2      -8.752  10.271  63.825  1.00  0.00    -0.176 OA 
HETATM    3  O   UNL     3     -12.962  15.500  72.881  1.00  0.00    -0.388 OA 
HETATM    4  H   UNL     2      -8.156  10.894  63.425  1.00  0.00     0.000 HD 
HETATM    5  C   UNL     2      -8.988  10.661  65.177  1.00  0.00    -0.198 C  
HETATM    6  C   UNL     3     -11.817  15.665  72.049  1.00  0.00    -0.459 C  
HETATM    7  H   UNL     3     -12.802  15.874  73.739  1.00  0.00     0.000 HD 
ENDROOT
BRANCH   5   8
HETATM    8  C   UNL     2      -9.955   9.649  65.827  1.00  0.00    -0.272 C  
HETATM    9  O   UNL     2      -9.510   8.338  65.496  1.00  0.00    -0.425 OA 
HETATM   10  H   UNL     2     -10.106   7.714  65.896  1.00  0.00     0.000 HD 
BRANCH   8  11
HETATM   11  C   UNL     2      -9.953   9.780  67.359  1.00  0.00    -0.191 C  
HETATM   12  H   UNL     2      -9.008  10.842  68.779  1.00  0.00     0.000 HD 
HETATM   13  O   UNL     2      -9.009  10.761  67.833  1.00  0.00    -0.135 OA 
BRANCH  11  14
HETATM   14  C   UNL     2     -11.293   9.972  68.111  1.00  0.00    -0.028 C  
HETATM   15  O   UNL     2     -11.817  11.264  67.850  1.00  0.00    -0.597 OA 
HETATM   16  H   UNL     2     -12.639  11.382  68.312  1.00  0.00     0.000 HD 
BRANCH  14  17
HETATM   17  C   UNL     2     -11.365   9.525  69.584  1.00  0.00    -0.035 C  
HETATM   18  H   UNL     2     -10.355   8.287  70.707  1.00  0.00     0.000 HD 
HETATM   19  O   UNL     2     -10.310   8.562  69.798  1.00  0.00    -0.203 OA 
BRANCH  17  20
HETATM   20  C   UNL     2     -11.332  10.644  70.625  1.00  0.00    -0.198 C  
HETATM   21  O   UNL     2     -11.081  11.929  70.013  1.00  0.00    -0.469 OA 
HETATM   22  C   UNL     2     -12.715  10.666  71.333  1.00  0.00    -0.440 C  
HETATM   23  H   UNL     2     -11.060  12.624  70.660  1.00  0.00     0.000 HD 
HETATM   24  O   UNL     2     -13.193   9.524  71.569  1.00  0.00    -0.355 OA 
HETATM   25  O   UNL     2     -13.155  11.829  71.537  1.00  0.00    -0.407 OA 
ENDBRANCH  17  20
ENDBRANCH  14  17
ENDBRANCH  11  14
ENDBRANCH   8  11
ENDBRANCH   5   8
BRANCH   6  26
HETATM   26  C   UNL     3     -12.078  15.061  70.662  1.00  0.00    -0.321 C  
HETATM   27  H   UNL     3     -13.593  14.984  69.487  1.00  0.00     0.000 HD 
HETATM   28  O   UNL     3     -13.432  15.357  70.345  1.00  0.00    -0.202 OA 
BRANCH  26  29
HETATM   29  C   UNL     3     -11.072  15.576  69.598  1.00  0.00    -0.279 C  
HETATM   30  O   UNL     3      -9.822  14.759  69.676  1.00  0.00    -0.415 OA 
HETATM   31  H   UNL     3      -9.207  15.074  69.024  1.00  0.00     0.000 HD 
BRANCH  29  32
HETATM   32  C   UNL     3     -11.524  15.353  68.139  1.00  0.00    -0.343 C  
HETATM   33  H   UNL     3     -12.415  13.887  67.171  1.00  0.00     0.000 HD 
HETATM   34  O   UNL     3     -12.137  14.024  68.069  1.00  0.00    -0.362 OA 
BRANCH  32  35
HETATM   35  C   UNL     3     -10.717  15.755  66.894  1.00  0.00    -0.299 C  
HETATM   36  H   UNL     3      -9.382  17.101  66.512  1.00  0.00     0.000 HD 
HETATM   37  O   UNL     3      -9.881  16.852  67.282  1.00  0.00    -0.253 OA 
BRANCH  35  38
HETATM   38  C   UNL     3      -9.933  14.647  66.199  1.00  0.00    -0.304 C  
HETATM   39  C   UNL     3     -10.559  14.318  64.818  1.00  0.00    -0.412 C  
HETATM   40  O   UNL     3      -9.921  13.446  66.996  1.00  0.00    -0.238 OA 
HETATM   41  O   UNL     3     -11.534  15.050  64.458  1.00  0.00    -0.373 OA 
HETATM   42  O   UNL     3     -10.172  13.219  64.334  1.00  0.00    -0.392 OA 
HETATM   43  H   UNL     3      -9.433  12.756  66.563  1.00  0.00     0.000 HD 
ENDBRANCH  35  38
ENDBRANCH  32  35
ENDBRANCH  29  32
ENDBRANCH  26  29
ENDBRANCH   6  26
TORSDOF 10
ENDMDL
MODEL       68
REMARK 921   NORMALIZED FREE ENERGY PREDICTED BY IDOCK:   -6.47 KCAL/MOL
REMARK 922        TOTAL FREE ENERGY PREDICTED BY IDOCK:  -12.75 KCAL/MOL
REMARK 923 INTER-LIGAND FREE ENERGY PREDICTED BY IDOCK:  -10.41 KCAL/MOL
REMARK 924 INTRA-LIGAND FREE ENERGY PREDICTED BY IDOCK:   -2.34 KCAL/MOL
REMARK 927      BINDING AFFINITY PREDICTED BY RF-SCORE:    0.00 PKD
ROOT
HETATM    1 CA   UNL     1     -11.033  12.834  68.499  1.00  0.00    -0.198 Ca 
HETATM    2  O   UNL     2     -12.494  14.660  63.259  1.00  0.00    -0.905 OA 
HETATM    3  O   UNL     3      -6.351   9.723  71.319  1.00  0.00    -0.249 OA 
HETATM    4  H   UNL     2     -13.148  14.018  63.008  1.00  0.00     0.000 HD 
HETATM    5  C   UNL     2     -11.969  14.308  64.538  1.00  0.00    -0.462 C  
HETATM    6  C   UNL     3      -7.643   9.519  70.754  1.00  0.00    -0.071 C  
HETATM    7  H   UNL     3      -6.319   9.368  72.199  1.00  0.00     0.000 HD 
ENDROOT
BRANCH   5   8
HETATM    8  C   UNL     2     -10.907  15.351  64.947  1.00  0.00    -0.425 C  
HETATM    9  O   UNL     2     -11.226  16.581  64.305  1.00  0.00    -1.251 OA 
HETATM   10  H   UNL     2     -10.572  17.223  64.556  1.00  0.00     0.000 HD 
BRANCH   8  11
HETATM   11  C   UNL     2     -10.915  15.590  66.465  1.00  0.00    -0.243 C  
HETATM   12  H   UNL     2     -11.785  14.824  68.106  1.00  0.00     0.000 HD 
HETATM   13  O   UNL     2     -11.781  14.676  67.168  1.00  0.00    -0.378 OA 
BRANCH  11  14
HETATM   14  C   UNL     2      -9.572  15.693  67.230  1.00  0.00    -0.217 C  
HETATM   15  O   UNL     2      -9.371  14.531  68.018  1.00  0.00    -0.191 OA 
HETATM   16  H   UNL     2      -8.547  14.595  68.488  1.00  0.00     0.000 HD 
BRANCH  14  17
HETATM   17  C   UNL     2      -9.242  17.023  67.933  1.00  0.00    -0.239 C  
HETATM   18  H   UNL     2      -7.995  17.578  69.332  1.00  0.00     0.000 HD 
HETATM   19  O   UNL     2      -8.199  16.757  68.898  1.00  0.00    -0.244 OA 
BRANCH  17  20
HETATM   20  C   UNL     2      -8.882  18.193  67.018  1.00  0.00    -0.262 C  
HETATM   21  O   UNL     2      -8.266  17.737  65.794  1.00  0.00    -0.538 OA 
HETATM   22  C   UNL     2     -10.200  18.949  66.687  1.00  0.00    -0.405 C  
HETATM   23  H   UNL     2      -8.042  18.465  65.225  1.00  0.00     0.000 HD 
HETATM   24  O   UNL     2     -10.991  19.059  67.661  1.00  0.00    -0.407 OA 
HETATM   25  O   UNL     2     -10.278  19.313  65.483  1.00  0.00    -0.422 OA 
ENDBRANCH  17  20
ENDBRANCH  14  17
ENDBRANCH  11  14
ENDBRANCH   8  11
ENDBRANCH   5   8
BRANCH   6  26
HETATM   26  C   UNL     3      -7.695  10.093  69.331  1.00  0.00    -0.138 C  
HETATM   27  H   UNL     3      -7.595   9.341  67.568  1.00  0.00     0.000 HD 
HETATM   28  O   UNL     3      -7.562   8.986  68.448  1.00  0.00    -0.088 OA 
BRANCH  26  29
HETATM   29  C   UNL     3      -8.979  10.927  69.079  1.00  0.00    -0.094 C  
HETATM   30  O   UNL     3      -8.956  11.444  67.676  1.00  0.00    -0.136 OA 
HETATM   31  H   UNL     3      -9.742  11.955  67.523  1.00  0.00     0.000 HD 
BRANCH  29  32
HETATM   32  C   UNL     3     -10.286  10.104  69.107  1.00  0.00    -0.214 C  
HETATM   33  H   UNL     3     -11.403   9.229  67.741  1.00  0.00     0.000 HD 
HETATM   34  O   UNL     3     -10.599   9.735  67.724  1.00  0.00    -0.233 OA 
BRANCH  32  35
HETATM   35  C   UNL     3     -11.510  10.420  69.981  1.00  0.00    -0.308 C  
HETATM   36  H   UNL     3     -13.259  11.176  69.650  1.00  0.00     0.000 HD 
HETATM   37  O   UNL     3     -12.502  10.981  69.111  1.00  0.00    -0.432 OA 
BRANCH  35  38
HETATM   38  C   UNL     3     -12.061   9.278  70.827  1.00  0.00    -0.171 C  
HETATM   39  C   UNL     3     -12.915   9.828  71.999  1.00  0.00    -0.423 C  
HETATM   40  O   UNL     3     -10.992   8.479  71.372  1.00  0.00    -0.237 OA 
HETATM   41  O   UNL     3     -13.087  11.088  72.021  1.00  0.00    -0.496 OA 
HETATM   42  O   UNL     3     -13.133   8.982  72.909  1.00  0.00    -0.334 OA 
HETATM   43  H   UNL     3     -11.336   7.767  71.900  1.00  0.00     0.000 HD 
ENDBRANCH  35  38
ENDBRANCH  32  35
ENDBRANCH  29  32
ENDBRANCH  26  29
ENDBRANCH   6  26
TORSDOF 10
ENDMDL
MODEL       69
REMARK 921   NORMALIZED FREE ENERGY PREDICTED BY IDOCK:   -6.47 KCAL/MOL
REMARK 922        TOTAL FREE ENERGY PREDICTED BY IDOCK:  -12.75 KCAL/MOL
REMARK 923 INTER-LIGAND FREE ENERGY PREDICTED BY IDOCK:   -9.91 KCAL/MOL
REMARK 924 INTRA-LIGAND FREE ENERGY PREDICTED BY IDOCK:   -2.84 KCAL/MOL
REMARK 927      BINDING AFFINITY PREDICTED BY RF-SCORE:    0.00 PKD
ROOT
HETATM    1 CA   UNL     1      -8.033  14.174  66.381  1.00  0.00    -0.365 Ca 
HETATM    2  O   UNL     2      -9.735   9.438  63.626  1.00  0.00    -0.338 OA 
HETATM    3  O   UNL     3     -10.477  19.532  68.588  1.00  0.00    -0.509 OA 
HETATM    4  H   UNL     2      -9.431   9.610  62.743  1.00  0.00     0.000 HD 
HETATM    5  C   UNL     2      -9.445  10.571  64.443  1.00  0.00    -0.281 C  
HETATM    6  C   UNL     3      -9.797  19.001  67.455  1.00  0.00    -0.324 C  
HETATM    7  H   UNL     3     -10.026  20.303  68.911  1.00  0.00     0.000 HD 
ENDROOT
BRANCH   5   8
HETATM    8  C   UNL     2      -9.939  10.291  65.879  1.00  0.00    -0.256 C  
HETATM    9  O   UNL     2     -10.215   8.898  65.988  1.00  0.00    -0.397 OA 
HETATM   10  H   UNL     2     -10.519   8.726  66.871  1.00  0.00     0.000 HD 
BRANCH   8  11
HETATM   11  C   UNL     2      -8.865  10.647  66.919  1.00  0.00    -0.138 C  
HETATM   12  H   UNL     2      -7.530  12.108  67.266  1.00  0.00     0.000 HD 
HETATM   13  O   UNL     2      -8.194  11.888  66.623  1.00  0.00    -0.163 OA 
BRANCH  11  14
HETATM   14  C   UNL     2      -9.219  10.617  68.426  1.00  0.00    -0.159 C  
HETATM   15  O   UNL     2      -8.796  11.819  69.048  1.00  0.00    -0.376 OA 
HETATM   16  H   UNL     2      -9.014  11.801  69.973  1.00  0.00     0.000 HD 
BRANCH  14  17
HETATM   17  C   UNL     2      -8.911   9.331  69.215  1.00  0.00    -0.147 C  
HETATM   18  H   UNL     2      -8.071   8.928  70.932  1.00  0.00     0.000 HD 
HETATM   19  O   UNL     2      -8.261   9.722  70.445  1.00  0.00    -0.187 OA 
BRANCH  17  20
HETATM   20  C   UNL     2     -10.098   8.403  69.472  1.00  0.00    -0.200 C  
HETATM   21  O   UNL     2     -11.333   8.976  68.989  1.00  0.00    -0.419 OA 
HETATM   22  C   UNL     2      -9.817   7.068  68.726  1.00  0.00    -0.152 C  
HETATM   23  H   UNL     2     -12.070   8.399  69.148  1.00  0.00     0.000 HD 
HETATM   24  O   UNL     2      -8.619   6.683  68.789  1.00  0.00    -0.122 OA 
HETATM   25  O   UNL     2     -10.833   6.593  68.151  1.00  0.00    -0.244 OA 
ENDBRANCH  17  20
ENDBRANCH  14  17
ENDBRANCH  11  14
ENDBRANCH   8  11
ENDBRANCH   5   8
BRANCH   6  26
HETATM   26  C   UNL     3     -10.527  17.756  66.934  1.00  0.00    -0.307 C  
HETATM   27  H   UNL     3     -11.002  17.098  65.195  1.00  0.00     0.000 HD 
HETATM   28  O   UNL     3     -10.551  17.869  65.517  1.00  0.00    -0.638 OA 
BRANCH  26  29
HETATM   29  C   UNL     3      -9.873  16.440  67.432  1.00  0.00    -0.244 C  
HETATM   30  O   UNL     3      -9.845  16.446  68.927  1.00  0.00    -0.238 OA 
HETATM   31  H   UNL     3      -9.445  15.641  69.232  1.00  0.00     0.000 HD 
BRANCH  29  32
HETATM   32  C   UNL     3     -10.692  15.168  67.122  1.00  0.00    -0.310 C  
HETATM   33  H   UNL     3     -10.766  13.349  67.874  1.00  0.00     0.000 HD 
HETATM   34  O   UNL     3     -10.262  14.131  68.065  1.00  0.00    -0.224 OA 
BRANCH  32  35
HETATM   35  C   UNL     3     -11.027  14.655  65.713  1.00  0.00    -0.330 C  
HETATM   36  H   UNL     3     -10.049  14.501  64.051  1.00  0.00     0.000 HD 
HETATM   37  O   UNL     3      -9.842  14.819  64.923  1.00  0.00    -0.200 OA 
BRANCH  35  38
HETATM   38  C   UNL     3     -11.597  13.244  65.615  1.00  0.00    -0.335 C  
HETATM   39  C   UNL     3     -12.516  13.111  64.373  1.00  0.00    -0.310 C  
HETATM   40  O   UNL     3     -12.363  12.915  66.791  1.00  0.00    -0.405 OA 
HETATM   41  O   UNL     3     -12.580  14.129  63.614  1.00  0.00    -0.831 OA 
HETATM   42  O   UNL     3     -13.264  12.094  64.400  1.00  0.00    -0.758 OA 
HETATM   43  H   UNL     3     -12.718  12.036  66.730  1.00  0.00     0.000 HD 
ENDBRANCH  35  38
ENDBRANCH  32  35
ENDBRANCH  29  32
ENDBRANCH  26  29
ENDBRANCH   6  26
TORSDOF 10
ENDMDL
MODEL       70
REMARK 921   NORMALIZED FREE ENERGY PREDICTED BY IDOCK:   -6.46 KCAL/MOL
REMARK 922        TOTAL FREE ENERGY PREDICTED BY IDOCK:  -12.73 KCAL/MOL
REMARK 923 INTER-LIGAND FREE ENERGY PREDICTED BY IDOCK:   -9.70 KCAL/MOL
REMARK 924 INTRA-LIGAND FREE ENERGY PREDICTED BY IDOCK:   -3.03 KCAL/MOL
REMARK 927      BINDING AFFINITY PREDICTED BY RF-SCORE:    0.00 PKD
ROOT
HETATM    1 CA   UNL     1     -10.506   9.738  64.881  1.00  0.00    -0.328 Ca 
HETATM    2  O   UNL     2     -11.077   5.825  69.038  1.00  0.00    -0.285 OA 
HETATM    3  O   UNL     3     -11.595  15.858  63.925  1.00  0.00    -1.093 OA 
HETATM    4  H   UNL     2     -11.851   5.353  68.753  1.00  0.00     0.000 HD 
HETATM    5  C   UNL     2     -10.830   6.898  68.131  1.00  0.00    -0.194 C  
HETATM    6  C   UNL     3     -12.180  14.575  63.715  1.00  0.00     0.081 C  
HETATM    7  H   UNL     3     -11.572  16.345  63.110  1.00  0.00     0.000 HD 
ENDROOT
BRANCH   5   8
HETATM    8  C   UNL     2      -9.573   7.664  68.595  1.00  0.00    -0.152 C  
HETATM    9  O   UNL     2      -8.544   7.449  67.635  1.00  0.00    -0.119 OA 
HETATM   10  H   UNL     2      -7.770   7.920  67.920  1.00  0.00     0.000 HD 
BRANCH   8  11
HETATM   11  C   UNL     2      -9.839   9.176  68.677  1.00  0.00    -0.164 C  
HETATM   12  H   UNL     2     -10.491  10.658  67.487  1.00  0.00     0.000 HD 
HETATM   13  O   UNL     2     -10.327   9.723  67.436  1.00  0.00    -0.208 OA 
BRANCH  11  14
HETATM   14  C   UNL     2     -10.691   9.740  69.841  1.00  0.00    -0.268 C  
HETATM   15  O   UNL     2     -10.418  11.121  70.018  1.00  0.00    -0.390 OA 
HETATM   16  H   UNL     2     -10.941  11.467  70.732  1.00  0.00     0.000 HD 
BRANCH  14  17
HETATM   17  C   UNL     2     -10.771   8.919  71.142  1.00  0.00    -0.263 C  
HETATM   18  H   UNL     2      -9.602   8.651  72.684  1.00  0.00     0.000 HD 
HETATM   19  O   UNL     2      -9.553   9.158  71.881  1.00  0.00    -0.310 OA 
BRANCH  17  20
HETATM   20  C   UNL     2     -12.012   9.151  72.004  1.00  0.00    -0.350 C  
HETATM   21  O   UNL     2     -12.577  10.461  71.777  1.00  0.00    -0.408 OA 
HETATM   22  C   UNL     2     -13.054   8.061  71.627  1.00  0.00    -0.329 C  
HETATM   23  H   UNL     2     -13.348  10.605  72.313  1.00  0.00     0.000 HD 
HETATM   24  O   UNL     2     -12.560   6.920  71.430  1.00  0.00    -0.367 OA 
HETATM   25  O   UNL     2     -14.233   8.501  71.552  1.00  0.00    -0.413 OA 
ENDBRANCH  17  20
ENDBRANCH  14  17
ENDBRANCH  11  14
ENDBRANCH   8  11
ENDBRANCH   5   8
BRANCH   6  26
HETATM   26  C   UNL     3     -12.216  13.787  65.032  1.00  0.00    -0.424 C  
HETATM   27  H   UNL     3     -13.297  12.360  65.722  1.00  0.00     0.000 HD 
HETATM   28  O   UNL     3     -13.275  12.848  64.907  1.00  0.00    -0.782 OA 
BRANCH  26  29
HETATM   29  C   UNL     3     -10.850  13.131  65.362  1.00  0.00    -0.282 C  
HETATM   30  O   UNL     3      -9.843  13.564  64.345  1.00  0.00    -0.659 OA 
HETATM   31  H   UNL     3      -9.007  13.162  64.547  1.00  0.00     0.000 HD 
BRANCH  29  32
HETATM   32  C   UNL     3     -10.215  13.617  66.684  1.00  0.00    -0.276 C  
HETATM   33  H   UNL     3     -10.878  13.908  68.516  1.00  0.00     0.000 HD 
HETATM   34  O   UNL     3     -11.268  13.610  67.703  1.00  0.00    -0.262 OA 
BRANCH  32  35
HETATM   35  C   UNL     3      -9.209  14.772  66.808  1.00  0.00    -0.260 C  
HETATM   36  H   UNL     3      -9.241  16.657  66.378  1.00  0.00     0.000 HD 
HETATM   37  O   UNL     3      -9.863  15.943  66.301  1.00  0.00    -0.262 OA 
BRANCH  35  38
HETATM   38  C   UNL     3      -8.597  15.002  68.185  1.00  0.00    -0.156 C  
HETATM   39  C   UNL     3      -7.070  15.244  68.071  1.00  0.00    -0.128 C  
HETATM   40  O   UNL     3      -8.819  13.866  69.044  1.00  0.00    -0.377 OA 
HETATM   41  O   UNL     3      -6.599  15.297  66.891  1.00  0.00    -0.167 OA 
HETATM   42  O   UNL     3      -6.453  15.124  69.166  1.00  0.00    -0.105 OA 
HETATM   43  H   UNL     3      -8.438  14.009  69.903  1.00  0.00     0.000 HD 
ENDBRANCH  35  38
ENDBRANCH  32  35
ENDBRANCH  29  32
ENDBRANCH  26  29
ENDBRANCH   6  26
TORSDOF 10
ENDMDL
MODEL       71
REMARK 921   NORMALIZED FREE ENERGY PREDICTED BY IDOCK:   -6.45 KCAL/MOL
REMARK 922        TOTAL FREE ENERGY PREDICTED BY IDOCK:  -12.71 KCAL/MOL
REMARK 923 INTER-LIGAND FREE ENERGY PREDICTED BY IDOCK:   -9.74 KCAL/MOL
REMARK 924 INTRA-LIGAND FREE ENERGY PREDICTED BY IDOCK:   -2.97 KCAL/MOL
REMARK 927      BINDING AFFINITY PREDICTED BY RF-SCORE:    0.00 PKD
ROOT
HETATM    1 CA   UNL     1     -11.566   7.698  67.693  1.00  0.00    -0.474 Ca 
HETATM    2  O   UNL     2     -13.914   8.678  72.835  1.00  0.00    -0.806 OA 
HETATM    3  O   UNL     3      -8.122  10.715  63.381  1.00  0.00    -0.304 OA 
HETATM    4  H   UNL     2     -14.827   8.808  72.607  1.00  0.00     0.000 HD 
HETATM    5  C   UNL     2     -13.163   8.485  71.638  1.00  0.00    -0.343 C  
HETATM    6  C   UNL     3      -9.472  10.386  63.698  1.00  0.00    -0.306 C  
HETATM    7  H   UNL     3      -7.921  10.453  62.491  1.00  0.00     0.000 HD 
ENDROOT
BRANCH   5   8
HETATM    8  C   UNL     2     -11.679   8.274  72.008  1.00  0.00    -0.346 C  
HETATM    9  O   UNL     2     -11.623   7.763  73.336  1.00  0.00    -0.623 OA 
HETATM   10  H   UNL     2     -10.710   7.633  73.563  1.00  0.00     0.000 HD 
BRANCH   8  11
HETATM   11  C   UNL     2     -11.011   7.251  71.075  1.00  0.00    -0.251 C  
HETATM   12  H   UNL     2     -11.416   6.287  69.359  1.00  0.00     0.000 HD 
HETATM   13  O   UNL     2     -11.829   6.919  69.936  1.00  0.00    -0.212 OA 
BRANCH  11  14
HETATM   14  C   UNL     2      -9.558   7.489  70.594  1.00  0.00    -0.171 C  
HETATM   15  O   UNL     2      -8.674   6.602  71.259  1.00  0.00    -0.129 OA 
HETATM   16  H   UNL     2      -7.783   6.748  70.963  1.00  0.00     0.000 HD 
BRANCH  14  17
HETATM   17  C   UNL     2      -9.062   8.944  70.487  1.00  0.00    -0.200 C  
HETATM   18  H   UNL     2      -7.392   9.871  70.893  1.00  0.00     0.000 HD 
HETATM   19  O   UNL     2      -7.697   8.973  70.960  1.00  0.00    -0.118 OA 
BRANCH  17  20
HETATM   20  C   UNL     2      -9.200   9.598  69.112  1.00  0.00    -0.168 C  
HETATM   21  O   UNL     2      -9.143   8.619  68.052  1.00  0.00    -0.140 OA 
HETATM   22  C   UNL     2     -10.574  10.325  69.076  1.00  0.00    -0.224 C  
HETATM   23  H   UNL     2      -9.229   9.026  67.198  1.00  0.00     0.000 HD 
HETATM   24  O   UNL     2     -10.876  10.913  70.149  1.00  0.00    -0.186 OA 
HETATM   25  O   UNL     2     -11.183  10.189  67.982  1.00  0.00    -0.270 OA 
ENDBRANCH  17  20
ENDBRANCH  14  17
ENDBRANCH  11  14
ENDBRANCH   8  11
ENDBRANCH   5   8
BRANCH   6  26
HETATM   26  C   UNL     3      -9.796  10.810  65.138  1.00  0.00    -0.277 C  
HETATM   27  H   UNL     3      -8.882  10.687  66.820  1.00  0.00     0.000 HD 
HETATM   28  O   UNL     3      -8.681  10.424  65.930  1.00  0.00    -0.147 OA 
BRANCH  26  29
HETATM   29  C   UNL     3     -10.130  12.322  65.244  1.00  0.00    -0.271 C  
HETATM   30  O   UNL     3      -9.830  12.979  63.935  1.00  0.00    -0.709 OA 
HETATM   31  H   UNL     3     -10.034  13.905  64.000  1.00  0.00     0.000 HD 
BRANCH  29  32
HETATM   32  C   UNL     3     -11.632  12.628  65.432  1.00  0.00    -0.363 C  
HETATM   33  H   UNL     3     -13.256  12.313  64.363  1.00  0.00     0.000 HD 
HETATM   34  O   UNL     3     -12.332  12.125  64.247  1.00  0.00    -0.403 OA 
BRANCH  32  35
HETATM   35  C   UNL     3     -12.201  13.933  66.009  1.00  0.00    -0.462 C  
HETATM   36  H   UNL     3     -13.861  14.905  65.799  1.00  0.00     0.000 HD 
HETATM   37  O   UNL     3     -13.508  14.098  65.442  1.00  0.00    -0.648 OA 
BRANCH  35  38
HETATM   38  C   UNL     3     -12.209  14.065  67.528  1.00  0.00    -0.223 C  
HETATM   39  C   UNL     3     -10.970  14.862  68.014  1.00  0.00    -0.279 C  
HETATM   40  O   UNL     3     -12.198  12.769  68.158  1.00  0.00    -0.198 OA 
HETATM   41  O   UNL     3     -10.218  15.334  67.104  1.00  0.00    -0.246 OA 
HETATM   42  O   UNL     3     -10.739  14.739  69.248  1.00  0.00    -0.246 OA 
HETATM   43  H   UNL     3     -12.202  12.851  69.105  1.00  0.00     0.000 HD 
ENDBRANCH  35  38
ENDBRANCH  32  35
ENDBRANCH  29  32
ENDBRANCH  26  29
ENDBRANCH   6  26
TORSDOF 10
ENDMDL
MODEL       72
REMARK 921   NORMALIZED FREE ENERGY PREDICTED BY IDOCK:   -6.44 KCAL/MOL
REMARK 922        TOTAL FREE ENERGY PREDICTED BY IDOCK:  -12.70 KCAL/MOL
REMARK 923 INTER-LIGAND FREE ENERGY PREDICTED BY IDOCK:   -9.21 KCAL/MOL
REMARK 924 INTRA-LIGAND FREE ENERGY PREDICTED BY IDOCK:   -3.49 KCAL/MOL
REMARK 927      BINDING AFFINITY PREDICTED BY RF-SCORE:    0.00 PKD
ROOT
HETATM    1 CA   UNL     1     -12.245   9.927  67.466  1.00  0.00    -0.215 Ca 
HETATM    2  O   UNL     2     -10.412  14.311  64.250  1.00  0.00    -0.532 OA 
HETATM    3  O   UNL     3     -11.650   7.761  73.340  1.00  0.00    -0.623 OA 
HETATM    4  H   UNL     2      -9.736  13.896  63.727  1.00  0.00     0.000 HD 
HETATM    5  C   UNL     2     -10.936  13.355  65.170  1.00  0.00    -0.303 C  
HETATM    6  C   UNL     3     -11.110   7.597  72.032  1.00  0.00    -0.255 C  
HETATM    7  H   UNL     3     -11.915   6.921  73.694  1.00  0.00     0.000 HD 
ENDROOT
BRANCH   5   8
HETATM    8  C   UNL     2     -12.034  14.030  66.020  1.00  0.00    -0.416 C  
HETATM    9  O   UNL     2     -13.294  13.739  65.425  1.00  0.00    -0.669 OA 
HETATM   10  H   UNL     2     -13.970  14.154  65.948  1.00  0.00     0.000 HD 
BRANCH   8  11
HETATM   11  C   UNL     2     -12.046  13.480  67.455  1.00  0.00    -0.318 C  
HETATM   12  H   UNL     2     -12.161  11.703  68.386  1.00  0.00     0.000 HD 
HETATM   13  O   UNL     2     -12.153  12.043  67.499  1.00  0.00    -0.555 OA 
BRANCH  11  14
HETATM   14  C   UNL     2     -10.953  13.930  68.456  1.00  0.00    -0.257 C  
HETATM   15  O   UNL     2     -11.244  13.430  69.751  1.00  0.00    -0.460 OA 
HETATM   16  H   UNL     2     -10.574  13.707  70.365  1.00  0.00     0.000 HD 
BRANCH  14  17
HETATM   17  C   UNL     2     -10.495  15.400  68.412  1.00  0.00    -0.239 C  
HETATM   18  H   UNL     2     -11.013  17.040  69.339  1.00  0.00     0.000 HD 
HETATM   19  O   UNL     2     -11.296  16.133  69.366  1.00  0.00    -0.328 OA 
BRANCH  17  20
HETATM   20  C   UNL     2      -9.000  15.642  68.623  1.00  0.00    -0.202 C  
HETATM   21  O   UNL     2      -8.436  14.690  69.551  1.00  0.00    -0.393 OA 
HETATM   22  C   UNL     2      -8.304  15.497  67.240  1.00  0.00    -0.193 C  
HETATM   23  H   UNL     2      -7.507  14.840  69.682  1.00  0.00     0.000 HD 
HETATM   24  O   UNL     2      -8.951  15.996  66.281  1.00  0.00    -0.288 OA 
HETATM   25  O   UNL     2      -7.208  14.877  67.295  1.00  0.00    -0.194 OA 
ENDBRANCH  17  20
ENDBRANCH  14  17
ENDBRANCH  11  14
ENDBRANCH   8  11
ENDBRANCH   5   8
BRANCH   6  26
HETATM   26  C   UNL     3     -10.682   8.956  71.461  1.00  0.00    -0.328 C  
HETATM   27  H   UNL     3      -9.079  10.010  71.541  1.00  0.00     0.000 HD 
HETATM   28  O   UNL     3      -9.344   9.169  71.895  1.00  0.00    -0.349 OA 
BRANCH  26  29
HETATM   29  C   UNL     3     -10.845   9.025  69.920  1.00  0.00    -0.218 C  
HETATM   30  O   UNL     3     -11.730  10.180  69.576  1.00  0.00    -0.425 OA 
HETATM   31  H   UNL     3     -11.830  10.222  68.632  1.00  0.00     0.000 HD 
BRANCH  29  32
HETATM   32  C   UNL     3      -9.545   9.365  69.158  1.00  0.00    -0.163 C  
HETATM   33  H   UNL     3      -8.716  11.028  68.504  1.00  0.00     0.000 HD 
HETATM   34  O   UNL     3      -9.516  10.818  68.972  1.00  0.00    -0.191 OA 
BRANCH  32  35
HETATM   35  C   UNL     3      -8.971   8.556  67.986  1.00  0.00    -0.141 C  
HETATM   36  H   UNL     3      -8.765   6.671  67.604  1.00  0.00     0.000 HD 
HETATM   37  O   UNL     3      -9.120   7.172  68.329  1.00  0.00    -0.135 OA 
BRANCH  35  38
HETATM   38  C   UNL     3      -9.523   8.871  66.600  1.00  0.00    -0.202 C  
HETATM   39  C   UNL     3      -8.398   8.805  65.535  1.00  0.00    -0.147 C  
HETATM   40  O   UNL     3     -10.112  10.186  66.567  1.00  0.00    -0.215 OA 
HETATM   41  O   UNL     3      -7.256   8.431  65.951  1.00  0.00    -0.071 OA 
HETATM   42  O   UNL     3      -8.702   9.356  64.441  1.00  0.00    -0.188 OA 
HETATM   43  H   UNL     3     -10.456  10.382  65.703  1.00  0.00     0.000 HD 
ENDBRANCH  35  38
ENDBRANCH  32  35
ENDBRANCH  29  32
ENDBRANCH  26  29
ENDBRANCH   6  26
TORSDOF 10
ENDMDL
MODEL       73
REMARK 921   NORMALIZED FREE ENERGY PREDICTED BY IDOCK:   -6.43 KCAL/MOL
REMARK 922        TOTAL FREE ENERGY PREDICTED BY IDOCK:  -12.69 KCAL/MOL
REMARK 923 INTER-LIGAND FREE ENERGY PREDICTED BY IDOCK:  -10.61 KCAL/MOL
REMARK 924 INTRA-LIGAND FREE ENERGY PREDICTED BY IDOCK:   -2.08 KCAL/MOL
REMARK 927      BINDING AFFINITY PREDICTED BY RF-SCORE:    0.00 PKD
ROOT
HETATM    1 CA   UNL     1      -8.506  13.533  65.853  1.00  0.00    -0.392 Ca 
HETATM    2  O   UNL     2      -8.431  18.791  68.149  1.00  0.00    -0.288 OA 
HETATM    3  O   UNL     3     -10.801   7.818  67.125  1.00  0.00    -0.485 OA 
HETATM    4  H   UNL     2      -7.554  18.829  68.512  1.00  0.00     0.000 HD 
HETATM    5  C   UNL     2      -8.642  17.497  67.586  1.00  0.00    -0.219 C  
HETATM    6  C   UNL     3      -9.615   8.597  67.254  1.00  0.00    -0.167 C  
HETATM    7  H   UNL     3     -10.606   6.991  66.701  1.00  0.00     0.000 HD 
ENDROOT
BRANCH   5   8
HETATM    8  C   UNL     2     -10.067  17.434  66.997  1.00  0.00    -0.313 C  
HETATM    9  O   UNL     2      -9.956  17.221  65.594  1.00  0.00    -0.553 OA 
HETATM   10  H   UNL     2     -10.833  17.183  65.231  1.00  0.00     0.000 HD 
BRANCH   8  11
HETATM   11  C   UNL     2     -10.868  16.266  67.594  1.00  0.00    -0.293 C  
HETATM   12  H   UNL     2     -10.745  14.265  67.721  1.00  0.00     0.000 HD 
HETATM   13  O   UNL     2     -10.250  14.987  67.352  1.00  0.00    -0.233 OA 
BRANCH  11  14
HETATM   14  C   UNL     2     -11.324  16.329  69.073  1.00  0.00    -0.301 C  
HETATM   15  O   UNL     2     -11.021  17.601  69.621  1.00  0.00    -0.130 OA 
HETATM   16  H   UNL     2     -11.301  17.640  70.529  1.00  0.00     0.000 HD 
BRANCH  14  17
HETATM   17  C   UNL     2     -10.991  15.131  69.983  1.00  0.00    -0.271 C  
HETATM   18  H   UNL     2      -9.355  14.381  70.741  1.00  0.00     0.000 HD 
HETATM   19  O   UNL     2      -9.560  15.120  70.180  1.00  0.00    -0.032 OA 
BRANCH  17  20
HETATM   20  C   UNL     2     -11.746  15.069  71.310  1.00  0.00    -0.347 C  
HETATM   21  O   UNL     2     -12.483  16.287  71.557  1.00  0.00    -0.564 OA 
HETATM   22  C   UNL     2     -12.733  13.870  71.231  1.00  0.00    -0.367 C  
HETATM   23  H   UNL     2     -12.952  16.248  72.382  1.00  0.00     0.000 HD 
HETATM   24  O   UNL     2     -12.262  12.850  70.662  1.00  0.00    -0.372 OA 
HETATM   25  O   UNL     2     -13.864  14.120  71.729  1.00  0.00    -0.385 OA 
ENDBRANCH  17  20
ENDBRANCH  14  17
ENDBRANCH  11  14
ENDBRANCH   8  11
ENDBRANCH   5   8
BRANCH   6  26
HETATM   26  C   UNL     3      -9.930   9.933  67.940  1.00  0.00    -0.160 C  
HETATM   27  H   UNL     3      -9.025  11.618  68.095  1.00  0.00     0.000 HD 
HETATM   28  O   UNL     3      -8.829  10.791  67.670  1.00  0.00    -0.131 OA 
BRANCH  26  29
HETATM   29  C   UNL     3     -11.292  10.521  67.485  1.00  0.00    -0.101 C  
HETATM   30  O   UNL     3     -12.066  10.946  68.692  1.00  0.00    -0.724 OA 
HETATM   31  H   UNL     3     -12.900  11.306  68.413  1.00  0.00     0.000 HD 
BRANCH  29  32
HETATM   32  C   UNL     3     -11.179  11.836  66.684  1.00  0.00    -0.323 C  
HETATM   33  H   UNL     3     -12.197  13.522  66.635  1.00  0.00     0.000 HD 
HETATM   34  O   UNL     3     -12.267  12.712  67.127  1.00  0.00    -0.445 OA 
BRANCH  32  35
HETATM   35  C   UNL     3     -10.847  11.933  65.187  1.00  0.00    -0.300 C  
HETATM   36  H   UNL     3     -10.209  10.688  63.851  1.00  0.00     0.000 HD 
HETATM   37  O   UNL     3     -10.415  10.629  64.777  1.00  0.00    -0.325 OA 
BRANCH  35  38
HETATM   38  C   UNL     3     -11.934  12.495  64.278  1.00  0.00    -0.408 C  
HETATM   39  C   UNL     3     -11.685  13.999  63.992  1.00  0.00    -0.248 C  
HETATM   40  O   UNL     3     -13.235  12.351  64.882  1.00  0.00    -0.714 OA 
HETATM   41  O   UNL     3     -10.612  14.487  64.469  1.00  0.00    -0.350 OA 
HETATM   42  O   UNL     3     -12.691  14.600  63.524  1.00  0.00    -0.670 OA 
HETATM   43  H   UNL     3     -13.913  12.701  64.315  1.00  0.00     0.000 HD 
ENDBRANCH  35  38
ENDBRANCH  32  35
ENDBRANCH  29  32
ENDBRANCH  26  29
ENDBRANCH   6  26
TORSDOF 10
ENDMDL
MODEL       74
REMARK 921   NORMALIZED FREE ENERGY PREDICTED BY IDOCK:   -6.42 KCAL/MOL
REMARK 922        TOTAL FREE ENERGY PREDICTED BY IDOCK:  -12.67 KCAL/MOL
REMARK 923 INTER-LIGAND FREE ENERGY PREDICTED BY IDOCK:   -9.31 KCAL/MOL
REMARK 924 INTRA-LIGAND FREE ENERGY PREDICTED BY IDOCK:   -3.37 KCAL/MOL
REMARK 927      BINDING AFFINITY PREDICTED BY RF-SCORE:    0.00 PKD
ROOT
HETATM    1 CA   UNL     1     -13.528  10.225  69.628  1.00  0.00    -0.592 Ca 
HETATM    2  O   UNL     2     -11.016   6.972  73.632  1.00  0.00    -0.543 OA 
HETATM    3  O   UNL     3     -12.106  12.977  64.154  1.00  0.00    -0.383 OA 
HETATM    4  H   UNL     2     -10.849   7.607  74.318  1.00  0.00     0.000 HD 
HETATM    5  C   UNL     2     -11.590   7.643  72.511  1.00  0.00    -0.330 C  
HETATM    6  C   UNL     3     -12.194  13.251  65.550  1.00  0.00    -0.457 C  
HETATM    7  H   UNL     3     -12.607  13.617  63.662  1.00  0.00     0.000 HD 
ENDROOT
BRANCH   5   8
HETATM    8  C   UNL     2     -11.861   6.611  71.396  1.00  0.00    -0.337 C  
HETATM    9  O   UNL     2     -12.887   7.128  70.555  1.00  0.00    -0.601 OA 
HETATM   10  H   UNL     2     -13.054   6.492  69.869  1.00  0.00     0.000 HD 
BRANCH   8  11
HETATM   11  C   UNL     2     -10.610   6.379  70.534  1.00  0.00    -0.239 C  
HETATM   12  H   UNL     2      -9.827   4.938  69.372  1.00  0.00     0.000 HD 
HETATM   13  O   UNL     2     -10.600   5.082  69.905  1.00  0.00    -0.237 OA 
BRANCH  11  14
HETATM   14  C   UNL     2     -10.192   7.443  69.490  1.00  0.00    -0.204 C  
HETATM   15  O   UNL     2     -11.056   7.386  68.366  1.00  0.00    -0.439 OA 
HETATM   16  H   UNL     2     -10.799   8.039  67.725  1.00  0.00     0.000 HD 
BRANCH  14  17
HETATM   17  C   UNL     2      -8.695   7.579  69.155  1.00  0.00    -0.136 C  
HETATM   18  H   UNL     2      -7.390   6.497  68.184  1.00  0.00     0.000 HD 
HETATM   19  O   UNL     2      -8.314   6.413  68.390  1.00  0.00    -0.115 OA 
BRANCH  17  20
HETATM   20  C   UNL     2      -8.279   8.874  68.459  1.00  0.00    -0.116 C  
HETATM   21  O   UNL     2      -9.202   9.228  67.405  1.00  0.00    -0.126 OA 
HETATM   22  C   UNL     2      -8.260   9.997  69.533  1.00  0.00    -0.167 C  
HETATM   23  H   UNL     2      -8.943  10.034  66.973  1.00  0.00     0.000 HD 
HETATM   24  O   UNL     2      -7.795   9.638  70.648  1.00  0.00    -0.231 OA 
HETATM   25  O   UNL     2      -8.739  11.089  69.125  1.00  0.00    -0.108 OA 
ENDBRANCH  17  20
ENDBRANCH  14  17
ENDBRANCH  11  14
ENDBRANCH   8  11
ENDBRANCH   5   8
BRANCH   6  26
HETATM   26  C   UNL     3     -11.383  12.217  66.344  1.00  0.00    -0.354 C  
HETATM   27  H   UNL     3      -9.561  12.093  66.933  1.00  0.00     0.000 HD 
HETATM   28  O   UNL     3     -10.062  12.733  66.441  1.00  0.00    -0.248 OA 
BRANCH  26  29
HETATM   29  C   UNL     3     -12.021  11.903  67.723  1.00  0.00    -0.079 C  
HETATM   30  O   UNL     3     -11.665  10.505  68.117  1.00  0.00    -0.706 OA 
HETATM   31  H   UNL     3     -12.056  10.313  68.961  1.00  0.00     0.000 HD 
BRANCH  29  32
HETATM   32  C   UNL     3     -11.447  12.732  68.892  1.00  0.00    -0.305 C  
HETATM   33  H   UNL     3     -11.435  12.544  70.853  1.00  0.00     0.000 HD 
HETATM   34  O   UNL     3     -11.789  12.034  70.134  1.00  0.00    -0.335 OA 
BRANCH  32  35
HETATM   35  C   UNL     3     -11.481  14.266  68.988  1.00  0.00    -0.284 C  
HETATM   36  H   UNL     3     -12.351  15.538  70.157  1.00  0.00     0.000 HD 
HETATM   37  O   UNL     3     -12.330  14.589  70.097  1.00  0.00    -0.320 OA 
BRANCH  35  38
HETATM   38  C   UNL     3     -10.135  14.978  69.062  1.00  0.00    -0.241 C  
HETATM   39  C   UNL     3      -9.983  15.983  67.891  1.00  0.00    -0.233 C  
HETATM   40  O   UNL     3      -9.048  14.033  69.000  1.00  0.00    -0.389 OA 
HETATM   41  O   UNL     3     -10.995  16.114  67.133  1.00  0.00    -0.266 OA 
HETATM   42  O   UNL     3      -8.796  16.367  67.701  1.00  0.00    -0.186 OA 
HETATM   43  H   UNL     3      -8.209  14.477  69.047  1.00  0.00     0.000 HD 
ENDBRANCH  35  38
ENDBRANCH  32  35
ENDBRANCH  29  32
ENDBRANCH  26  29
ENDBRANCH   6  26
TORSDOF 10
ENDMDL
MODEL       75
REMARK 921   NORMALIZED FREE ENERGY PREDICTED BY IDOCK:   -6.41 KCAL/MOL
REMARK 922        TOTAL FREE ENERGY PREDICTED BY IDOCK:  -12.66 KCAL/MOL
REMARK 923 INTER-LIGAND FREE ENERGY PREDICTED BY IDOCK:   -9.67 KCAL/MOL
REMARK 924 INTRA-LIGAND FREE ENERGY PREDICTED BY IDOCK:   -2.99 KCAL/MOL
REMARK 927      BINDING AFFINITY PREDICTED BY RF-SCORE:    0.00 PKD
ROOT
HETATM    1 CA   UNL     1     -11.645   9.502  67.495  1.00  0.00    -0.473 Ca 
HETATM    2  O   UNL     2     -10.081  14.079  64.409  1.00  0.00    -0.706 OA 
HETATM    3  O   UNL     3     -11.369   7.446  73.433  1.00  0.00    -0.589 OA 
HETATM    4  H   UNL     2      -9.307  13.754  63.962  1.00  0.00     0.000 HD 
HETATM    5  C   UNL     2     -10.566  13.065  65.288  1.00  0.00    -0.304 C  
HETATM    6  C   UNL     3     -10.684   7.350  72.187  1.00  0.00    -0.225 C  
HETATM    7  H   UNL     3     -11.557   6.579  73.771  1.00  0.00     0.000 HD 
ENDROOT
BRANCH   5   8
HETATM    8  C   UNL     2     -11.822  13.593  66.014  1.00  0.00    -0.385 C  
HETATM    9  O   UNL     2     -12.955  13.307  65.201  1.00  0.00    -0.705 OA 
HETATM   10  H   UNL     2     -13.728  13.632  65.648  1.00  0.00     0.000 HD 
BRANCH   8  11
HETATM   11  C   UNL     2     -12.019  12.894  67.369  1.00  0.00    -0.300 C  
HETATM   12  H   UNL     2     -11.821  11.058  68.159  1.00  0.00     0.000 HD 
HETATM   13  O   UNL     2     -11.699  11.490  67.322  1.00  0.00    -0.576 OA 
BRANCH  11  14
HETATM   14  C   UNL     2     -11.389  13.508  68.644  1.00  0.00    -0.288 C  
HETATM   15  O   UNL     2     -10.025  13.130  68.742  1.00  0.00    -0.399 OA 
HETATM   16  H   UNL     2      -9.639  13.507  69.524  1.00  0.00     0.000 HD 
BRANCH  14  17
HETATM   17  C   UNL     2     -12.186  13.417  69.959  1.00  0.00    -0.298 C  
HETATM   18  H   UNL     2     -12.663  11.980  71.193  1.00  0.00     0.000 HD 
HETATM   19  O   UNL     2     -12.171  12.035  70.381  1.00  0.00    -0.334 OA 
BRANCH  17  20
HETATM   20  C   UNL     2     -11.740  14.357  71.078  1.00  0.00    -0.194 C  
HETATM   21  O   UNL     2     -10.642  15.196  70.658  1.00  0.00    -0.514 OA 
HETATM   22  C   UNL     2     -12.958  15.245  71.456  1.00  0.00    -0.412 C  
HETATM   23  H   UNL     2     -10.364  15.780  71.354  1.00  0.00     0.000 HD 
HETATM   24  O   UNL     2     -14.059  14.632  71.474  1.00  0.00    -0.410 OA 
HETATM   25  O   UNL     2     -12.654  16.451  71.662  1.00  0.00    -0.107 OA 
ENDBRANCH  17  20
ENDBRANCH  14  17
ENDBRANCH  11  14
ENDBRANCH   8  11
ENDBRANCH   5   8
BRANCH   6  26
HETATM   26  C   UNL     3     -10.379   8.752  71.641  1.00  0.00    -0.321 C  
HETATM   27  H   UNL     3      -8.923   9.988  71.829  1.00  0.00     0.000 HD 
HETATM   28  O   UNL     3      -9.111   9.121  72.168  1.00  0.00    -0.312 OA 
BRANCH  26  29
HETATM   29  C   UNL     3     -10.438   8.805  70.091  1.00  0.00    -0.213 C  
HETATM   30  O   UNL     3     -10.059  10.179  69.637  1.00  0.00    -0.218 OA 
HETATM   31  H   UNL     3     -10.096  10.211  68.688  1.00  0.00     0.000 HD 
BRANCH  29  32
HETATM   32  C   UNL     3      -9.387   7.921  69.385  1.00  0.00    -0.152 C  
HETATM   33  H   UNL     3      -7.513   8.169  68.833  1.00  0.00     0.000 HD 
HETATM   34  O   UNL     3      -8.160   8.713  69.266  1.00  0.00    -0.107 OA 
BRANCH  32  35
HETATM   35  C   UNL     3      -9.670   6.993  68.195  1.00  0.00    -0.133 C  
HETATM   36  H   UNL     3     -11.125   5.818  67.700  1.00  0.00     0.000 HD 
HETATM   37  O   UNL     3     -10.950   6.393  68.436  1.00  0.00    -0.287 OA 
BRANCH  35  38
HETATM   38  C   UNL     3      -9.574   7.612  66.805  1.00  0.00    -0.209 C  
HETATM   39  C   UNL     3      -8.353   7.042  66.036  1.00  0.00    -0.134 C  
HETATM   40  O   UNL     3      -9.438   9.044  66.887  1.00  0.00    -0.148 OA 
HETATM   41  O   UNL     3      -7.701   6.124  66.625  1.00  0.00    -0.100 OA 
HETATM   42  O   UNL     3      -8.026   7.725  65.026  1.00  0.00    -0.121 OA 
HETATM   43  H   UNL     3      -9.378   9.430  66.021  1.00  0.00     0.000 HD 
ENDBRANCH  35  38
ENDBRANCH  32  35
ENDBRANCH  29  32
ENDBRANCH  26  29
ENDBRANCH   6  26
TORSDOF 10
ENDMDL
MODEL       76
REMARK 921   NORMALIZED FREE ENERGY PREDICTED BY IDOCK:   -6.41 KCAL/MOL
REMARK 922        TOTAL FREE ENERGY PREDICTED BY IDOCK:  -12.66 KCAL/MOL
REMARK 923 INTER-LIGAND FREE ENERGY PREDICTED BY IDOCK:   -9.43 KCAL/MOL
REMARK 924 INTRA-LIGAND FREE ENERGY PREDICTED BY IDOCK:   -3.23 KCAL/MOL
REMARK 927      BINDING AFFINITY PREDICTED BY RF-SCORE:    0.00 PKD
ROOT
HETATM    1 CA   UNL     1     -11.378   7.972  66.867  1.00  0.00    -0.379 Ca 
HETATM    2  O   UNL     2      -7.641  10.545  63.355  1.00  0.00    -0.295 OA 
HETATM    3  O   UNL     3     -13.386   8.393  72.812  1.00  0.00    -0.622 OA 
HETATM    4  H   UNL     2      -6.927   9.918  63.343  1.00  0.00     0.000 HD 
HETATM    5  C   UNL     2      -8.647  10.080  64.253  1.00  0.00    -0.189 C  
HETATM    6  C   UNL     3     -12.463   7.678  71.996  1.00  0.00    -0.270 C  
HETATM    7  H   UNL     3     -13.930   7.787  73.300  1.00  0.00     0.000 HD 
ENDROOT
BRANCH   5   8
HETATM    8  C   UNL     2      -9.807  11.098  64.274  1.00  0.00    -0.286 C  
HETATM    9  O   UNL     2     -10.553  10.943  63.071  1.00  0.00    -0.752 OA 
HETATM   10  H   UNL     2     -11.267  11.570  63.083  1.00  0.00     0.000 HD 
BRANCH   8  11
HETATM   11  C   UNL     2     -10.754  10.843  65.458  1.00  0.00    -0.112 C  
HETATM   12  H   UNL     2     -10.792   9.759  67.149  1.00  0.00     0.000 HD 
HETATM   13  O   UNL     2     -10.207   9.917  66.417  1.00  0.00    -0.242 OA 
BRANCH  11  14
HETATM   14  C   UNL     2     -11.369  12.044  66.218  1.00  0.00    -0.357 C  
HETATM   15  O   UNL     2     -12.097  11.584  67.345  1.00  0.00    -0.593 OA 
HETATM   16  H   UNL     2     -12.475  12.321  67.811  1.00  0.00     0.000 HD 
BRANCH  14  17
HETATM   17  C   UNL     2     -12.070  13.139  65.392  1.00  0.00    -0.433 C  
HETATM   18  H   UNL     2     -13.715  13.244  64.344  1.00  0.00     0.000 HD 
HETATM   19  O   UNL     2     -13.283  12.568  64.854  1.00  0.00    -0.787 OA 
BRANCH  17  20
HETATM   20  C   UNL     2     -12.337  14.457  66.118  1.00  0.00    -0.314 C  
HETATM   21  O   UNL     2     -12.457  14.260  67.544  1.00  0.00    -0.578 OA 
HETATM   22  C   UNL     2     -11.141  15.405  65.822  1.00  0.00    -0.260 C  
HETATM   23  H   UNL     2     -12.623  15.079  67.996  1.00  0.00     0.000 HD 
HETATM   24  O   UNL     2     -10.719  15.350  64.637  1.00  0.00    -0.367 OA 
HETATM   25  O   UNL     2     -10.765  16.065  66.828  1.00  0.00    -0.317 OA 
ENDBRANCH  17  20
ENDBRANCH  14  17
ENDBRANCH  11  14
ENDBRANCH   8  11
ENDBRANCH   5   8
BRANCH   6  26
HETATM   26  C   UNL     3     -11.583   8.658  71.207  1.00  0.00    -0.284 C  
HETATM   27  H   UNL     3      -9.953   9.602  71.571  1.00  0.00     0.000 HD 
HETATM   28  O   UNL     3     -10.497   8.996  72.060  1.00  0.00    -0.346 OA 
BRANCH  26  29
HETATM   29  C   UNL     3     -11.133   8.077  69.841  1.00  0.00    -0.108 C  
HETATM   30  O   UNL     3     -11.124   9.173  68.824  1.00  0.00    -0.444 OA 
HETATM   31  H   UNL     3     -10.848   8.817  67.988  1.00  0.00     0.000 HD 
BRANCH  29  32
HETATM   32  C   UNL     3      -9.669   7.586  69.812  1.00  0.00    -0.171 C  
HETATM   33  H   UNL     3      -7.928   8.437  69.455  1.00  0.00     0.000 HD 
HETATM   34  O   UNL     3      -8.829   8.738  69.473  1.00  0.00    -0.139 OA 
BRANCH  32  35
HETATM   35  C   UNL     3      -9.196   6.250  69.218  1.00  0.00    -0.133 C  
HETATM   36  H   UNL     3      -9.963   4.481  69.064  1.00  0.00     0.000 HD 
HETATM   37  O   UNL     3     -10.255   5.308  69.432  1.00  0.00    -0.223 OA 
BRANCH  35  38
HETATM   38  C   UNL     3      -8.727   6.273  67.767  1.00  0.00    -0.113 C  
HETATM   39  C   UNL     3      -7.178   6.250  67.694  1.00  0.00    -0.083 C  
HETATM   40  O   UNL     3      -9.201   7.454  67.091  1.00  0.00    -0.128 OA 
HETATM   41  O   UNL     3      -6.568   6.133  68.803  1.00  0.00    -0.050 OA 
HETATM   42  O   UNL     3      -6.718   6.585  66.567  1.00  0.00    -0.053 OA 
HETATM   43  H   UNL     3      -8.908   7.469  66.187  1.00  0.00     0.000 HD 
ENDBRANCH  35  38
ENDBRANCH  32  35
ENDBRANCH  29  32
ENDBRANCH  26  29
ENDBRANCH   6  26
TORSDOF 10
ENDMDL
MODEL       77
REMARK 921   NORMALIZED FREE ENERGY PREDICTED BY IDOCK:   -6.40 KCAL/MOL
REMARK 922        TOTAL FREE ENERGY PREDICTED BY IDOCK:  -12.65 KCAL/MOL
REMARK 923 INTER-LIGAND FREE ENERGY PREDICTED BY IDOCK:  -10.12 KCAL/MOL
REMARK 924 INTRA-LIGAND FREE ENERGY PREDICTED BY IDOCK:   -2.53 KCAL/MOL
REMARK 927      BINDING AFFINITY PREDICTED BY RF-SCORE:    0.00 PKD
ROOT
HETATM    1 CA   UNL     1     -12.242  13.152  69.000  1.00  0.00    -0.264 Ca 
HETATM    2  O   UNL     2     -12.361  14.265  63.372  1.00  0.00    -1.113 OA 
HETATM    3  O   UNL     3     -11.276   8.288  72.868  1.00  0.00    -0.337 OA 
HETATM    4  H   UNL     2     -13.295  14.311  63.205  1.00  0.00     0.000 HD 
HETATM    5  C   UNL     2     -12.153  13.922  64.741  1.00  0.00    -0.419 C  
HETATM    6  C   UNL     3     -12.324   9.021  72.240  1.00  0.00    -0.332 C  
HETATM    7  H   UNL     3     -11.430   8.233  73.804  1.00  0.00     0.000 HD 
ENDROOT
BRANCH   5   8
HETATM    8  C   UNL     2     -10.635  13.847  65.012  1.00  0.00    -0.404 C  
HETATM    9  O   UNL     2     -10.009  13.278  63.867  1.00  0.00    -0.753 OA 
HETATM   10  H   UNL     2      -9.075  13.232  64.034  1.00  0.00     0.000 HD 
BRANCH   8  11
HETATM   11  C   UNL     2     -10.038  15.246  65.236  1.00  0.00    -0.327 C  
HETATM   12  H   UNL     2     -10.488  17.160  64.820  1.00  0.00     0.000 HD 
HETATM   13  O   UNL     2     -10.857  16.295  64.682  1.00  0.00    -0.687 OA 
BRANCH  11  14
HETATM   14  C   UNL     2      -9.583  15.665  66.656  1.00  0.00    -0.248 C  
HETATM   15  O   UNL     2      -8.936  14.579  67.299  1.00  0.00    -0.189 OA 
HETATM   16  H   UNL     2      -8.657  14.836  68.170  1.00  0.00     0.000 HD 
BRANCH  14  17
HETATM   17  C   UNL     2     -10.580  16.442  67.535  1.00  0.00    -0.309 C  
HETATM   18  H   UNL     2     -12.153  15.971  68.593  1.00  0.00     0.000 HD 
HETATM   19  O   UNL     2     -11.538  15.491  68.050  1.00  0.00    -0.342 OA 
BRANCH  17  20
HETATM   20  C   UNL     2      -9.970  17.293  68.648  1.00  0.00    -0.327 C  
HETATM   21  O   UNL     2      -8.697  16.765  69.080  1.00  0.00    -0.250 OA 
HETATM   22  C   UNL     2      -9.774  18.729  68.086  1.00  0.00    -0.341 C  
HETATM   23  H   UNL     2      -8.317  17.293  69.772  1.00  0.00     0.000 HD 
HETATM   24  O   UNL     2     -10.719  19.131  67.356  1.00  0.00    -0.462 OA 
HETATM   25  O   UNL     2      -8.683  19.257  68.431  1.00  0.00    -0.332 OA 
ENDBRANCH  17  20
ENDBRANCH  14  17
ENDBRANCH  11  14
ENDBRANCH   8  11
ENDBRANCH   5   8
BRANCH   6  26
HETATM   26  C   UNL     3     -12.075   9.110  70.728  1.00  0.00    -0.149 C  
HETATM   27  H   UNL     3     -11.494  10.496  69.534  1.00  0.00     0.000 HD 
HETATM   28  O   UNL     3     -11.648  10.442  70.470  1.00  0.00    -0.296 OA 
BRANCH  26  29
HETATM   29  C   UNL     3     -11.069   8.037  70.233  1.00  0.00    -0.224 C  
HETATM   30  O   UNL     3     -11.812   6.771  69.946  1.00  0.00    -0.622 OA 
HETATM   31  H   UNL     3     -11.196   6.114  69.643  1.00  0.00     0.000 HD 
BRANCH  29  32
HETATM   32  C   UNL     3     -10.420   8.357  68.869  1.00  0.00    -0.189 C  
HETATM   33  H   UNL     3     -10.378   7.470  67.111  1.00  0.00     0.000 HD 
HETATM   34  O   UNL     3     -10.777   7.273  67.950  1.00  0.00    -0.213 OA 
BRANCH  32  35
HETATM   35  C   UNL     3      -9.004   8.923  68.676  1.00  0.00    -0.137 C  
HETATM   36  H   UNL     3      -7.390   8.288  67.820  1.00  0.00     0.000 HD 
HETATM   37  O   UNL     3      -8.266   7.939  67.940  1.00  0.00    -0.126 OA 
BRANCH  35  38
HETATM   38  C   UNL     3      -8.900  10.310  68.053  1.00  0.00    -0.122 C  
HETATM   39  C   UNL     3      -7.836  11.163  68.793  1.00  0.00    -0.142 C  
HETATM   40  O   UNL     3     -10.164  10.999  68.115  1.00  0.00    -0.172 OA 
HETATM   41  O   UNL     3      -7.183  10.569  69.708  1.00  0.00    -0.139 OA 
HETATM   42  O   UNL     3      -7.917  12.399  68.550  1.00  0.00    -0.149 OA 
HETATM   43  H   UNL     3     -10.099  11.864  67.727  1.00  0.00     0.000 HD 
ENDBRANCH  35  38
ENDBRANCH  32  35
ENDBRANCH  29  32
ENDBRANCH  26  29
ENDBRANCH   6  26
TORSDOF 10
ENDMDL
MODEL       78
REMARK 921   NORMALIZED FREE ENERGY PREDICTED BY IDOCK:   -6.40 KCAL/MOL
REMARK 922        TOTAL FREE ENERGY PREDICTED BY IDOCK:  -12.64 KCAL/MOL
REMARK 923 INTER-LIGAND FREE ENERGY PREDICTED BY IDOCK:  -10.66 KCAL/MOL
REMARK 924 INTRA-LIGAND FREE ENERGY PREDICTED BY IDOCK:   -1.97 KCAL/MOL
REMARK 927      BINDING AFFINITY PREDICTED BY RF-SCORE:    0.00 PKD
ROOT
HETATM    1 CA   UNL     1     -11.571   8.450  67.668  1.00  0.00    -0.487 Ca 
HETATM    2  O   UNL     2     -14.254   9.323  72.664  1.00  0.00    -0.765 OA 
HETATM    3  O   UNL     3      -9.133  11.790  62.929  1.00  0.00    -0.635 OA 
HETATM    4  H   UNL     2     -15.155   9.125  72.435  1.00  0.00     0.000 HD 
HETATM    5  C   UNL     2     -13.446   9.216  71.493  1.00  0.00    -0.356 C  
HETATM    6  C   UNL     3     -10.318  11.097  63.310  1.00  0.00    -0.308 C  
HETATM    7  H   UNL     3      -8.834  11.487  62.080  1.00  0.00     0.000 HD 
ENDROOT
BRANCH   5   8
HETATM    8  C   UNL     2     -11.983   9.537  71.864  1.00  0.00    -0.311 C  
HETATM    9  O   UNL     2     -11.463   8.437  72.603  1.00  0.00    -0.380 OA 
HETATM   10  H   UNL     2     -10.562   8.634  72.832  1.00  0.00     0.000 HD 
BRANCH   8  11
HETATM   11  C   UNL     2     -11.115   9.721  70.609  1.00  0.00    -0.332 C  
HETATM   12  H   UNL     2     -10.570  11.196  69.358  1.00  0.00     0.000 HD 
HETATM   13  O   UNL     2     -11.106  11.082  70.134  1.00  0.00    -0.237 OA 
BRANCH  11  14
HETATM   14  C   UNL     2      -9.665   9.178  70.595  1.00  0.00    -0.256 C  
HETATM   15  O   UNL     2      -8.747  10.247  70.436  1.00  0.00    -0.303 OA 
HETATM   16  H   UNL     2      -7.857   9.913  70.427  1.00  0.00     0.000 HD 
BRANCH  14  17
HETATM   17  C   UNL     2      -9.369   7.931  69.740  1.00  0.00    -0.153 C  
HETATM   18  H   UNL     2      -7.906   7.366  68.576  1.00  0.00     0.000 HD 
HETATM   19  O   UNL     2      -8.088   8.135  69.104  1.00  0.00    -0.117 OA 
BRANCH  17  20
HETATM   20  C   UNL     2      -9.434   6.589  70.468  1.00  0.00    -0.166 C  
HETATM   21  O   UNL     2      -9.084   6.726  71.863  1.00  0.00    -0.143 OA 
HETATM   22  C   UNL     2     -10.891   6.060  70.346  1.00  0.00    -0.318 C  
HETATM   23  H   UNL     2      -9.124   5.892  72.315  1.00  0.00     0.000 HD 
HETATM   24  O   UNL     2     -11.418   6.254  69.219  1.00  0.00    -0.411 OA 
HETATM   25  O   UNL     2     -11.325   5.541  71.409  1.00  0.00    -0.109 OA 
ENDBRANCH  17  20
ENDBRANCH  14  17
ENDBRANCH  11  14
ENDBRANCH   8  11
ENDBRANCH   5   8
BRANCH   6  26
HETATM   26  C   UNL     3     -10.801  11.587  64.683  1.00  0.00    -0.310 C  
HETATM   27  H   UNL     3      -9.941  11.998  66.348  1.00  0.00     0.000 HD 
HETATM   28  O   UNL     3      -9.642  11.694  65.499  1.00  0.00    -0.226 OA 
BRANCH  26  29
HETATM   29  C   UNL     3     -11.607  12.909  64.585  1.00  0.00    -0.346 C  
HETATM   30  O   UNL     3     -13.060  12.608  64.770  1.00  0.00    -0.852 OA 
HETATM   31  H   UNL     3     -13.553  13.418  64.710  1.00  0.00     0.000 HD 
BRANCH  29  32
HETATM   32  C   UNL     3     -11.327  13.909  65.728  1.00  0.00    -0.307 C  
HETATM   33  H   UNL     3     -12.349  14.562  67.280  1.00  0.00     0.000 HD 
HETATM   34  O   UNL     3     -12.521  13.947  66.577  1.00  0.00    -0.424 OA 
BRANCH  32  35
HETATM   35  C   UNL     3     -10.611  15.259  65.566  1.00  0.00    -0.373 C  
HETATM   36  H   UNL     3     -10.710  16.707  64.288  1.00  0.00     0.000 HD 
HETATM   37  O   UNL     3     -11.152  15.872  64.388  1.00  0.00    -0.486 OA 
BRANCH  35  38
HETATM   38  C   UNL     3     -10.634  16.195  66.769  1.00  0.00    -0.277 C  
HETATM   39  C   UNL     3      -9.342  17.052  66.819  1.00  0.00    -0.252 C  
HETATM   40  O   UNL     3     -10.740  15.451  67.999  1.00  0.00    -0.263 OA 
HETATM   41  O   UNL     3      -8.539  16.909  65.844  1.00  0.00    -0.514 OA 
HETATM   42  O   UNL     3      -9.144  17.607  67.935  1.00  0.00    -0.250 OA 
HETATM   43  H   UNL     3     -10.754  16.035  68.749  1.00  0.00     0.000 HD 
ENDBRANCH  35  38
ENDBRANCH  32  35
ENDBRANCH  29  32
ENDBRANCH  26  29
ENDBRANCH   6  26
TORSDOF 10
ENDMDL
MODEL       79
REMARK 921   NORMALIZED FREE ENERGY PREDICTED BY IDOCK:   -6.40 KCAL/MOL
REMARK 922        TOTAL FREE ENERGY PREDICTED BY IDOCK:  -12.64 KCAL/MOL
REMARK 923 INTER-LIGAND FREE ENERGY PREDICTED BY IDOCK:   -9.14 KCAL/MOL
REMARK 924 INTRA-LIGAND FREE ENERGY PREDICTED BY IDOCK:   -3.50 KCAL/MOL
REMARK 927      BINDING AFFINITY PREDICTED BY RF-SCORE:    0.00 PKD
ROOT
HETATM    1 CA   UNL     1     -13.158  10.570  69.249  1.00  0.00    -0.539 Ca 
HETATM    2  O   UNL     2     -11.158   5.664  71.452  1.00  0.00    -0.239 OA 
HETATM    3  O   UNL     3     -11.291  16.516  68.405  1.00  0.00    -0.348 OA 
HETATM    4  H   UNL     2     -11.615   5.627  72.285  1.00  0.00     0.000 HD 
HETATM    5  C   UNL     2     -11.499   6.882  70.792  1.00  0.00    -0.335 C  
HETATM    6  C   UNL     3     -12.041  15.700  69.300  1.00  0.00    -0.241 C  
HETATM    7  H   UNL     3     -11.806  17.268  68.138  1.00  0.00     0.000 HD 
ENDROOT
BRANCH   5   8
HETATM    8  C   UNL     2     -10.757   6.941  69.440  1.00  0.00    -0.246 C  
HETATM    9  O   UNL     2     -11.533   6.234  68.479  1.00  0.00    -0.481 OA 
HETATM   10  H   UNL     2     -11.077   6.270  67.646  1.00  0.00     0.000 HD 
BRANCH   8  11
HETATM   11  C   UNL     2     -10.600   8.391  68.952  1.00  0.00    -0.140 C  
HETATM   12  H   UNL     2     -10.971  10.251  69.614  1.00  0.00     0.000 HD 
HETATM   13  O   UNL     2     -11.068   9.355  69.915  1.00  0.00    -0.238 OA 
BRANCH  11  14
HETATM   14  C   UNL     2      -9.236   8.865  68.392  1.00  0.00    -0.140 C  
HETATM   15  O   UNL     2      -9.231   8.768  66.977  1.00  0.00    -0.135 OA 
HETATM   16  H   UNL     2      -8.395   9.059  66.634  1.00  0.00     0.000 HD 
BRANCH  14  17
HETATM   17  C   UNL     2      -7.956   8.361  69.085  1.00  0.00    -0.110 C  
HETATM   18  H   UNL     2      -6.096   8.108  68.542  1.00  0.00     0.000 HD 
HETATM   19  O   UNL     2      -6.886   8.419  68.115  1.00  0.00    -0.066 OA 
BRANCH  17  20
HETATM   20  C   UNL     2      -7.578   9.065  70.388  1.00  0.00    -0.100 C  
HETATM   21  O   UNL     2      -8.245  10.341  70.513  1.00  0.00    -0.365 OA 
HETATM   22  C   UNL     2      -8.005   8.138  71.560  1.00  0.00    -0.117 C  
HETATM   23  H   UNL     2      -8.010  10.778  71.323  1.00  0.00     0.000 HD 
HETATM   24  O   UNL     2      -7.790   6.914  71.356  1.00  0.00    -0.098 OA 
HETATM   25  O   UNL     2      -8.524   8.759  72.526  1.00  0.00    -0.403 OA 
ENDBRANCH  17  20
ENDBRANCH  14  17
ENDBRANCH  11  14
ENDBRANCH   8  11
ENDBRANCH   5   8
BRANCH   6  26
HETATM   26  C   UNL     3     -11.210  14.484  69.732  1.00  0.00    -0.234 C  
HETATM   27  H   UNL     3     -11.538  12.944  70.829  1.00  0.00     0.000 HD 
HETATM   28  O   UNL     3     -12.053  13.696  70.563  1.00  0.00    -0.338 OA 
BRANCH  26  29
HETATM   29  C   UNL     3     -10.639  13.701  68.520  1.00  0.00    -0.250 C  
HETATM   30  O   UNL     3     -10.073  12.403  69.001  1.00  0.00    -0.424 OA 
HETATM   31  H   UNL     3      -9.724  11.925  68.259  1.00  0.00     0.000 HD 
BRANCH  29  32
HETATM   32  C   UNL     3     -11.706  13.240  67.503  1.00  0.00    -0.366 C  
HETATM   33  H   UNL     3     -12.691  11.562  67.191  1.00  0.00     0.000 HD 
HETATM   34  O   UNL     3     -12.034  11.846  67.816  1.00  0.00    -0.559 OA 
BRANCH  32  35
HETATM   35  C   UNL     3     -11.703  13.578  66.004  1.00  0.00    -0.359 C  
HETATM   36  H   UNL     3     -11.452  15.195  64.974  1.00  0.00     0.000 HD 
HETATM   37  O   UNL     3     -11.454  14.986  65.901  1.00  0.00    -0.321 OA 
BRANCH  35  38
HETATM   38  C   UNL     3     -10.771  12.758  65.119  1.00  0.00    -0.294 C  
HETATM   39  C   UNL     3     -11.565  12.070  63.979  1.00  0.00    -0.411 C  
HETATM   40  O   UNL     3     -10.093  11.743  65.885  1.00  0.00    -0.219 OA 
HETATM   41  O   UNL     3     -12.803  12.352  63.911  1.00  0.00    -0.718 OA 
HETATM   42  O   UNL     3     -10.932  11.138  63.410  1.00  0.00    -0.303 OA 
HETATM   43  H   UNL     3      -9.512  11.232  65.334  1.00  0.00     0.000 HD 
ENDBRANCH  35  38
ENDBRANCH  32  35
ENDBRANCH  29  32
ENDBRANCH  26  29
ENDBRANCH   6  26
TORSDOF 10
ENDMDL
MODEL       80
REMARK 921   NORMALIZED FREE ENERGY PREDICTED BY IDOCK:   -6.39 KCAL/MOL
REMARK 922        TOTAL FREE ENERGY PREDICTED BY IDOCK:  -12.63 KCAL/MOL
REMARK 923 INTER-LIGAND FREE ENERGY PREDICTED BY IDOCK:   -9.51 KCAL/MOL
REMARK 924 INTRA-LIGAND FREE ENERGY PREDICTED BY IDOCK:   -3.12 KCAL/MOL
REMARK 927      BINDING AFFINITY PREDICTED BY RF-SCORE:    0.00 PKD
ROOT
HETATM    1 CA   UNL     1     -11.770   8.480  67.223  1.00  0.00    -0.386 Ca 
HETATM    2  O   UNL     2      -9.691  12.628  63.847  1.00  0.00    -0.658 OA 
HETATM    3  O   UNL     3     -11.348   6.545  73.192  1.00  0.00    -0.465 OA 
HETATM    4  H   UNL     2      -9.030  12.159  63.352  1.00  0.00     0.000 HD 
HETATM    5  C   UNL     2     -10.271  11.739  64.800  1.00  0.00    -0.282 C  
HETATM    6  C   UNL     3     -10.801   6.299  71.899  1.00  0.00    -0.242 C  
HETATM    7  H   UNL     3     -11.657   5.734  73.578  1.00  0.00     0.000 HD 
ENDROOT
BRANCH   5   8
HETATM    8  C   UNL     2     -11.345  12.501  65.606  1.00  0.00    -0.335 C  
HETATM    9  O   UNL     2     -11.887  11.609  66.574  1.00  0.00    -0.500 OA 
HETATM   10  H   UNL     2     -12.548  12.079  67.069  1.00  0.00     0.000 HD 
BRANCH   8  11
HETATM   11  C   UNL     2     -10.737  13.701  66.350  1.00  0.00    -0.281 C  
HETATM   12  H   UNL     2      -8.933  14.333  66.971  1.00  0.00     0.000 HD 
HETATM   13  O   UNL     2      -9.309  13.591  66.510  1.00  0.00    -0.257 OA 
BRANCH  11  14
HETATM   14  C   UNL     2     -11.079  15.140  65.891  1.00  0.00    -0.319 C  
HETATM   15  O   UNL     2     -10.486  15.400  64.629  1.00  0.00    -0.529 OA 
HETATM   16  H   UNL     2     -10.696  16.283  64.347  1.00  0.00     0.000 HD 
BRANCH  14  17
HETATM   17  C   UNL     2     -10.946  16.278  66.920  1.00  0.00    -0.059 C  
HETATM   18  H   UNL     2     -11.305  16.465  68.831  1.00  0.00     0.000 HD 
HETATM   19  O   UNL     2     -11.387  15.763  68.196  1.00  0.00    -0.350 OA 
BRANCH  17  20
HETATM   20  C   UNL     2      -9.570  16.934  67.019  1.00  0.00    -0.248 C  
HETATM   21  O   UNL     2      -8.641  16.360  66.073  1.00  0.00    -0.358 OA 
HETATM   22  C   UNL     2      -9.751  18.449  66.717  1.00  0.00    -0.326 C  
HETATM   23  H   UNL     2      -7.785  16.769  66.134  1.00  0.00     0.000 HD 
HETATM   24  O   UNL     2     -10.789  18.955  67.219  1.00  0.00    -0.458 OA 
HETATM   25  O   UNL     2      -8.838  18.927  65.991  1.00  0.00    -0.464 OA 
ENDBRANCH  17  20
ENDBRANCH  14  17
ENDBRANCH  11  14
ENDBRANCH   8  11
ENDBRANCH   5   8
BRANCH   6  26
HETATM   26  C   UNL     3     -10.301   7.610  71.277  1.00  0.00    -0.198 C  
HETATM   27  H   UNL     3      -8.843   8.087  70.124  1.00  0.00     0.000 HD 
HETATM   28  O   UNL     3      -9.152   7.276  70.510  1.00  0.00    -0.156 OA 
BRANCH  26  29
HETATM   29  C   UNL     3     -11.402   8.327  70.452  1.00  0.00    -0.175 C  
HETATM   30  O   UNL     3     -12.734   8.051  71.074  1.00  0.00    -0.499 OA 
HETATM   31  H   UNL     3     -13.408   8.490  70.568  1.00  0.00     0.000 HD 
BRANCH  29  32
HETATM   32  C   UNL     3     -11.328   9.868  70.499  1.00  0.00    -0.327 C  
HETATM   33  H   UNL     3     -12.497  11.292  71.196  1.00  0.00     0.000 HD 
HETATM   34  O   UNL     3     -12.543  10.344  71.166  1.00  0.00    -0.338 OA 
BRANCH  32  35
HETATM   35  C   UNL     3     -10.832  10.765  69.354  1.00  0.00    -0.244 C  
HETATM   36  H   UNL     3     -11.131  12.604  68.838  1.00  0.00     0.000 HD 
HETATM   37  O   UNL     3     -11.437  12.050  69.546  1.00  0.00    -0.284 OA 
BRANCH  35  38
HETATM   38  C   UNL     3      -9.323  10.859  69.162  1.00  0.00    -0.078 C  
HETATM   39  C   UNL     3      -8.879  10.056  67.911  1.00  0.00    -0.125 C  
HETATM   40  O   UNL     3      -8.624  10.341  70.311  1.00  0.00    -0.325 OA 
HETATM   41  O   UNL     3      -9.813   9.537  67.221  1.00  0.00    -0.159 OA 
HETATM   42  O   UNL     3      -7.639   9.823  67.870  1.00  0.00    -0.086 OA 
HETATM   43  H   UNL     3      -7.683  10.400  70.192  1.00  0.00     0.000 HD 
ENDBRANCH  35  38
ENDBRANCH  32  35
ENDBRANCH  29  32
ENDBRANCH  26  29
ENDBRANCH   6  26
TORSDOF 10
ENDMDL
MODEL       81
REMARK 921   NORMALIZED FREE ENERGY PREDICTED BY IDOCK:   -6.39 KCAL/MOL
REMARK 922        TOTAL FREE ENERGY PREDICTED BY IDOCK:  -12.63 KCAL/MOL
REMARK 923 INTER-LIGAND FREE ENERGY PREDICTED BY IDOCK:   -9.46 KCAL/MOL
REMARK 924 INTRA-LIGAND FREE ENERGY PREDICTED BY IDOCK:   -3.16 KCAL/MOL
REMARK 927      BINDING AFFINITY PREDICTED BY RF-SCORE:    0.00 PKD
ROOT
HETATM    1 CA   UNL     1     -11.903   9.917  67.510  1.00  0.00    -0.474 Ca 
HETATM    2  O   UNL     2     -14.085   8.125  72.504  1.00  0.00    -0.582 OA 
HETATM    3  O   UNL     3     -11.100  15.276  64.318  1.00  0.00    -0.665 OA 
HETATM    4  H   UNL     2     -14.916   7.754  72.229  1.00  0.00     0.000 HD 
HETATM    5  C   UNL     2     -13.431   8.687  71.368  1.00  0.00    -0.232 C  
HETATM    6  C   UNL     3     -11.988  14.167  64.429  1.00  0.00    -0.457 C  
HETATM    7  H   UNL     3     -10.836  15.396  63.414  1.00  0.00     0.000 HD 
ENDROOT
BRANCH   5   8
HETATM    8  C   UNL     2     -12.081   9.288  71.815  1.00  0.00    -0.387 C  
HETATM    9  O   UNL     2     -11.537   8.447  72.827  1.00  0.00    -0.358 OA 
HETATM   10  H   UNL     2     -10.706   8.818  73.103  1.00  0.00     0.000 HD 
BRANCH   8  11
HETATM   11  C   UNL     2     -11.080   9.342  70.650  1.00  0.00    -0.276 C  
HETATM   12  H   UNL     2     -10.461  10.649  69.255  1.00  0.00     0.000 HD 
HETATM   13  O   UNL     2     -11.080  10.616  69.976  1.00  0.00    -0.281 OA 
BRANCH  11  14
HETATM   14  C   UNL     2      -9.614   8.898  70.880  1.00  0.00    -0.238 C  
HETATM   15  O   UNL     2      -8.731   9.967  70.584  1.00  0.00    -0.345 OA 
HETATM   16  H   UNL     2      -7.831   9.695  70.725  1.00  0.00     0.000 HD 
BRANCH  14  17
HETATM   17  C   UNL     2      -9.181   7.524  70.334  1.00  0.00    -0.157 C  
HETATM   18  H   UNL     2      -7.543   6.796  69.560  1.00  0.00     0.000 HD 
HETATM   19  O   UNL     2      -7.809   7.644  69.897  1.00  0.00    -0.098 OA 
BRANCH  17  20
HETATM   20  C   UNL     2      -9.374   6.338  71.278  1.00  0.00    -0.156 C  
HETATM   21  O   UNL     2      -9.107   6.705  72.650  1.00  0.00    -0.134 OA 
HETATM   22  C   UNL     2     -10.849   5.867  71.143  1.00  0.00    -0.269 C  
HETATM   23  H   UNL     2      -9.226   5.967  73.237  1.00  0.00     0.000 HD 
HETATM   24  O   UNL     2     -11.290   5.882  69.963  1.00  0.00    -0.352 OA 
HETATM   25  O   UNL     2     -11.381   5.567  72.245  1.00  0.00    -0.255 OA 
ENDBRANCH  17  20
ENDBRANCH  14  17
ENDBRANCH  11  14
ENDBRANCH   8  11
ENDBRANCH   5   8
BRANCH   6  26
HETATM   26  C   UNL     3     -12.415  13.975  65.890  1.00  0.00    -0.481 C  
HETATM   27  H   UNL     3     -12.673  12.454  67.032  1.00  0.00     0.000 HD 
HETATM   28  O   UNL     3     -12.409  12.573  66.128  1.00  0.00    -0.596 OA 
BRANCH  26  29
HETATM   29  C   UNL     3     -11.516  14.767  66.876  1.00  0.00    -0.347 C  
HETATM   30  O   UNL     3     -12.356  15.260  68.011  1.00  0.00    -0.408 OA 
HETATM   31  H   UNL     3     -11.805  15.746  68.614  1.00  0.00     0.000 HD 
BRANCH  29  32
HETATM   32  C   UNL     3     -10.455  13.909  67.597  1.00  0.00    -0.245 C  
HETATM   33  H   UNL     3      -9.699  13.877  69.416  1.00  0.00     0.000 HD 
HETATM   34  O   UNL     3     -10.351  14.406  68.972  1.00  0.00    -0.232 OA 
BRANCH  32  35
HETATM   35  C   UNL     3      -9.126  13.445  66.981  1.00  0.00    -0.243 C  
HETATM   36  H   UNL     3      -7.434  14.298  66.592  1.00  0.00     0.000 HD 
HETATM   37  O   UNL     3      -8.256  14.585  66.973  1.00  0.00    -0.200 OA 
BRANCH  35  38
HETATM   38  C   UNL     3      -8.470  12.220  67.609  1.00  0.00    -0.166 C  
HETATM   39  C   UNL     3      -8.909  10.927  66.873  1.00  0.00    -0.142 C  
HETATM   40  O   UNL     3      -8.826  12.101  69.000  1.00  0.00    -0.365 OA 
HETATM   41  O   UNL     3      -9.647  11.090  65.852  1.00  0.00    -0.201 OA 
HETATM   42  O   UNL     3      -8.670   9.870  67.519  1.00  0.00    -0.122 OA 
HETATM   43  H   UNL     3      -8.417  11.338  69.392  1.00  0.00     0.000 HD 
ENDBRANCH  35  38
ENDBRANCH  32  35
ENDBRANCH  29  32
ENDBRANCH  26  29
ENDBRANCH   6  26
TORSDOF 10
ENDMDL
MODEL       82
REMARK 921   NORMALIZED FREE ENERGY PREDICTED BY IDOCK:   -6.38 KCAL/MOL
REMARK 922        TOTAL FREE ENERGY PREDICTED BY IDOCK:  -12.60 KCAL/MOL
REMARK 923 INTER-LIGAND FREE ENERGY PREDICTED BY IDOCK:   -9.97 KCAL/MOL
REMARK 924 INTRA-LIGAND FREE ENERGY PREDICTED BY IDOCK:   -2.63 KCAL/MOL
REMARK 927      BINDING AFFINITY PREDICTED BY RF-SCORE:    0.00 PKD
ROOT
HETATM    1 CA   UNL     1     -12.849  11.424  68.456  1.00  0.00    -0.167 Ca 
HETATM    2  O   UNL     2     -12.554  13.926  63.301  1.00  0.00    -1.049 OA 
HETATM    3  O   UNL     3      -8.991   9.066  72.827  1.00  0.00    -0.185 OA 
HETATM    4  H   UNL     2     -12.800  13.211  62.726  1.00  0.00     0.000 HD 
HETATM    5  C   UNL     2     -12.512  13.446  64.644  1.00  0.00    -0.331 C  
HETATM    6  C   UNL     3      -9.795   8.670  71.720  1.00  0.00    -0.295 C  
HETATM    7  H   UNL     3      -9.206   8.546  73.592  1.00  0.00     0.000 HD 
ENDROOT
BRANCH   5   8
HETATM    8  C   UNL     2     -12.114  14.609  65.577  1.00  0.00    -0.222 C  
HETATM    9  O   UNL     2     -11.640  14.052  66.799  1.00  0.00    -0.348 OA 
HETATM   10  H   UNL     2     -11.395  14.767  67.374  1.00  0.00     0.000 HD 
BRANCH   8  11
HETATM   11  C   UNL     2     -10.983  15.452  64.968  1.00  0.00    -0.436 C  
HETATM   12  H   UNL     2     -10.771  17.132  63.886  1.00  0.00     0.000 HD 
HETATM   13  O   UNL     2     -11.471  16.611  64.263  1.00  0.00    -1.075 OA 
BRANCH  11  14
HETATM   14  C   UNL     2      -9.782  15.874  65.851  1.00  0.00    -0.351 C  
HETATM   15  O   UNL     2      -9.052  14.728  66.257  1.00  0.00    -0.410 OA 
HETATM   16  H   UNL     2      -8.315  14.987  66.799  1.00  0.00     0.000 HD 
BRANCH  14  17
HETATM   17  C   UNL     2     -10.031  16.915  66.959  1.00  0.00    -0.279 C  
HETATM   18  H   UNL     2     -10.014  16.890  68.912  1.00  0.00     0.000 HD 
HETATM   19  O   UNL     2      -9.860  16.247  68.228  1.00  0.00    -0.220 OA 
BRANCH  17  20
HETATM   20  C   UNL     2      -9.198  18.194  66.875  1.00  0.00    -0.278 C  
HETATM   21  O   UNL     2      -8.354  18.199  65.702  1.00  0.00    -0.396 OA 
HETATM   22  C   UNL     2     -10.186  19.392  66.810  1.00  0.00    -0.420 C  
HETATM   23  H   UNL     2      -7.836  18.994  65.650  1.00  0.00     0.000 HD 
HETATM   24  O   UNL     2     -11.189  19.276  67.563  1.00  0.00    -0.326 OA 
HETATM   25  O   UNL     2      -9.838  20.284  65.991  1.00  0.00    -0.401 OA 
ENDBRANCH  17  20
ENDBRANCH  14  17
ENDBRANCH  11  14
ENDBRANCH   8  11
ENDBRANCH   5   8
BRANCH   6  26
HETATM   26  C   UNL     3      -9.447   9.510  70.484  1.00  0.00    -0.246 C  
HETATM   27  H   UNL     3      -8.482   9.183  68.857  1.00  0.00     0.000 HD 
HETATM   28  O   UNL     3      -8.697   8.663  69.622  1.00  0.00    -0.128 OA 
BRANCH  26  29
HETATM   29  C   UNL     3     -10.707  10.113  69.808  1.00  0.00    -0.279 C  
HETATM   30  O   UNL     3     -11.420  10.980  70.794  1.00  0.00    -0.398 OA 
HETATM   31  H   UNL     3     -12.192  11.349  70.380  1.00  0.00     0.000 HD 
BRANCH  29  32
HETATM   32  C   UNL     3     -10.401  11.099  68.660  1.00  0.00    -0.203 C  
HETATM   33  H   UNL     3     -10.859  12.978  68.286  1.00  0.00     0.000 HD 
HETATM   34  O   UNL     3     -11.048  12.370  68.992  1.00  0.00    -0.242 OA 
BRANCH  32  35
HETATM   35  C   UNL     3     -10.411  10.745  67.165  1.00  0.00    -0.224 C  
HETATM   36  H   UNL     3     -11.677  10.971  65.720  1.00  0.00     0.000 HD 
HETATM   37  O   UNL     3     -11.671  11.190  66.645  1.00  0.00    -0.289 OA 
BRANCH  35  38
HETATM   38  C   UNL     3      -9.233  11.244  66.334  1.00  0.00    -0.192 C  
HETATM   39  C   UNL     3      -8.370  10.054  65.840  1.00  0.00    -0.127 C  
HETATM   40  O   UNL     3      -8.397  12.129  67.106  1.00  0.00    -0.170 OA 
HETATM   41  O   UNL     3      -8.806   8.893  66.119  1.00  0.00    -0.142 OA 
HETATM   42  O   UNL     3      -7.226  10.393  65.429  1.00  0.00    -0.143 OA 
HETATM   43  H   UNL     3      -7.664  12.440  66.588  1.00  0.00     0.000 HD 
ENDBRANCH  35  38
ENDBRANCH  32  35
ENDBRANCH  29  32
ENDBRANCH  26  29
ENDBRANCH   6  26
TORSDOF 10
ENDMDL
MODEL       83
REMARK 921   NORMALIZED FREE ENERGY PREDICTED BY IDOCK:   -6.36 KCAL/MOL
REMARK 922        TOTAL FREE ENERGY PREDICTED BY IDOCK:  -12.58 KCAL/MOL
REMARK 923 INTER-LIGAND FREE ENERGY PREDICTED BY IDOCK:   -9.97 KCAL/MOL
REMARK 924 INTRA-LIGAND FREE ENERGY PREDICTED BY IDOCK:   -2.60 KCAL/MOL
REMARK 927      BINDING AFFINITY PREDICTED BY RF-SCORE:    0.00 PKD
ROOT
HETATM    1 CA   UNL     1     -12.156   9.966  67.099  1.00  0.00    -0.020 Ca 
HETATM    2  O   UNL     2     -12.423  14.103  63.133  1.00  0.00    -1.126 OA 
HETATM    3  O   UNL     3      -7.890   7.169  70.777  1.00  0.00    -0.093 OA 
HETATM    4  H   UNL     2     -12.479  13.597  62.331  1.00  0.00     0.000 HD 
HETATM    5  C   UNL     2     -12.280  13.208  64.235  1.00  0.00    -0.396 C  
HETATM    6  C   UNL     3      -8.560   7.012  69.530  1.00  0.00    -0.134 C  
HETATM    7  H   UNL     3      -7.980   6.381  71.300  1.00  0.00     0.000 HD 
ENDROOT
BRANCH   5   8
HETATM    8  C   UNL     2     -12.189  14.031  65.538  1.00  0.00    -0.439 C  
HETATM    9  O   UNL     2     -12.156  13.122  66.633  1.00  0.00    -0.391 OA 
HETATM   10  H   UNL     2     -12.100  13.629  67.435  1.00  0.00     0.000 HD 
BRANCH   8  11
HETATM   11  C   UNL     2     -10.904  14.874  65.578  1.00  0.00    -0.356 C  
HETATM   12  H   UNL     2     -10.192  16.574  64.779  1.00  0.00     0.000 HD 
HETATM   13  O   UNL     2     -10.987  16.054  64.754  1.00  0.00    -0.551 OA 
BRANCH  11  14
HETATM   14  C   UNL     2     -10.286  15.260  66.944  1.00  0.00    -0.268 C  
HETATM   15  O   UNL     2      -9.707  14.119  67.556  1.00  0.00    -0.227 OA 
HETATM   16  H   UNL     2      -9.327  14.356  68.394  1.00  0.00     0.000 HD 
BRANCH  14  17
HETATM   17  C   UNL     2     -11.115  16.154  67.885  1.00  0.00    -0.293 C  
HETATM   18  H   UNL     2     -12.505  15.844  69.222  1.00  0.00     0.000 HD 
HETATM   19  O   UNL     2     -11.993  15.292  68.641  1.00  0.00    -0.320 OA 
BRANCH  17  20
HETATM   20  C   UNL     2     -10.317  17.089  68.795  1.00  0.00    -0.336 C  
HETATM   21  O   UNL     2      -9.089  16.473  69.241  1.00  0.00    -0.216 OA 
HETATM   22  C   UNL     2      -9.990  18.370  67.978  1.00  0.00    -0.351 C  
HETATM   23  H   UNL     2      -8.594  17.053  69.806  1.00  0.00     0.000 HD 
HETATM   24  O   UNL     2     -10.932  18.769  67.242  1.00  0.00    -0.412 OA 
HETATM   25  O   UNL     2      -8.818  18.795  68.162  1.00  0.00    -0.288 OA 
ENDBRANCH  17  20
ENDBRANCH  14  17
ENDBRANCH  11  14
ENDBRANCH   8  11
ENDBRANCH   5   8
BRANCH   6  26
HETATM   26  C   UNL     3      -8.413   8.286  68.686  1.00  0.00    -0.125 C  
HETATM   27  H   UNL     3      -7.733   8.673  66.933  1.00  0.00     0.000 HD 
HETATM   28  O   UNL     3      -7.824   7.885  67.455  1.00  0.00    -0.117 OA 
BRANCH  26  29
HETATM   29  C   UNL     3      -9.762   9.030  68.505  1.00  0.00    -0.159 C  
HETATM   30  O   UNL     3     -10.882   8.050  68.649  1.00  0.00    -0.405 OA 
HETATM   31  H   UNL     3     -11.708   8.506  68.538  1.00  0.00     0.000 HD 
BRANCH  29  32
HETATM   32  C   UNL     3     -10.075  10.055  69.617  1.00  0.00    -0.236 C  
HETATM   33  H   UNL     3      -9.342  10.426  71.408  1.00  0.00     0.000 HD 
HETATM   34  O   UNL     3      -9.150   9.795  70.724  1.00  0.00    -0.127 OA 
BRANCH  32  35
HETATM   35  C   UNL     3     -11.485  10.490  70.047  1.00  0.00    -0.316 C  
HETATM   36  H   UNL     3     -13.037  11.181  69.123  1.00  0.00     0.000 HD 
HETATM   37  O   UNL     3     -12.165  10.912  68.858  1.00  0.00    -0.494 OA 
BRANCH  35  38
HETATM   38  C   UNL     3     -12.297   9.481  70.851  1.00  0.00    -0.228 C  
HETATM   39  C   UNL     3     -13.184  10.205  71.898  1.00  0.00    -0.452 C  
HETATM   40  O   UNL     3     -11.433   8.557  71.542  1.00  0.00    -0.258 OA 
HETATM   41  O   UNL     3     -13.162  11.475  71.866  1.00  0.00    -0.485 OA 
HETATM   42  O   UNL     3     -13.632   9.442  72.798  1.00  0.00    -0.355 OA 
HETATM   43  H   UNL     3     -11.940   7.928  72.043  1.00  0.00     0.000 HD 
ENDBRANCH  35  38
ENDBRANCH  32  35
ENDBRANCH  29  32
ENDBRANCH  26  29
ENDBRANCH   6  26
TORSDOF 10
ENDMDL
MODEL       84
REMARK 921   NORMALIZED FREE ENERGY PREDICTED BY IDOCK:   -6.36 KCAL/MOL
REMARK 922        TOTAL FREE ENERGY PREDICTED BY IDOCK:  -12.57 KCAL/MOL
REMARK 923 INTER-LIGAND FREE ENERGY PREDICTED BY IDOCK:   -9.01 KCAL/MOL
REMARK 924 INTRA-LIGAND FREE ENERGY PREDICTED BY IDOCK:   -3.56 KCAL/MOL
REMARK 927      BINDING AFFINITY PREDICTED BY RF-SCORE:    0.00 PKD
ROOT
HETATM    1 CA   UNL     1      -9.645  13.771  69.319  1.00  0.00    -0.326 Ca 
HETATM    2  O   UNL     2      -5.239  10.438  70.868  1.00  0.00    -0.062 OA 
HETATM    3  O   UNL     3     -10.932  18.345  65.198  1.00  0.00    -0.604 OA 
HETATM    4  H   UNL     2      -4.957  10.856  71.673  1.00  0.00     0.000 HD 
HETATM    5  C   UNL     2      -6.309  11.197  70.305  1.00  0.00    -0.097 C  
HETATM    6  C   UNL     3     -10.545  18.143  66.555  1.00  0.00    -0.272 C  
HETATM    7  H   UNL     3     -11.695  18.909  65.155  1.00  0.00     0.000 HD 
ENDROOT
BRANCH   5   8
HETATM    8  C   UNL     2      -6.768  10.518  68.997  1.00  0.00    -0.063 C  
HETATM    9  O   UNL     2      -7.331   9.254  69.329  1.00  0.00    -0.067 OA 
HETATM   10  H   UNL     2      -7.614   8.836  68.524  1.00  0.00     0.000 HD 
BRANCH   8  11
HETATM   11  C   UNL     2      -7.848  11.349  68.286  1.00  0.00    -0.132 C  
HETATM   12  H   UNL     2      -8.154  13.253  67.719  1.00  0.00     0.000 HD 
HETATM   13  O   UNL     2      -7.486  12.739  68.158  1.00  0.00    -0.102 OA 
BRANCH  11  14
HETATM   14  C   UNL     2      -8.426  10.858  66.936  1.00  0.00    -0.135 C  
HETATM   15  O   UNL     2      -8.379  11.902  65.978  1.00  0.00    -0.387 OA 
HETATM   16  H   UNL     2      -8.734  11.601  65.150  1.00  0.00     0.000 HD 
BRANCH  14  17
HETATM   17  C   UNL     2      -9.741  10.056  66.963  1.00  0.00    -0.181 C  
HETATM   18  H   UNL     2     -11.641  10.512  66.974  1.00  0.00     0.000 HD 
HETATM   19  O   UNL     2     -10.829  11.007  66.958  1.00  0.00    -0.260 OA 
BRANCH  17  20
HETATM   20  C   UNL     2      -9.905   9.002  65.868  1.00  0.00    -0.187 C  
HETATM   21  O   UNL     2      -9.363   9.459  64.609  1.00  0.00    -0.411 OA 
HETATM   22  C   UNL     2      -9.146   7.727  66.330  1.00  0.00    -0.178 C  
HETATM   23  H   UNL     2      -9.465   8.803  63.929  1.00  0.00     0.000 HD 
HETATM   24  O   UNL     2      -9.271   7.466  67.556  1.00  0.00    -0.130 OA 
HETATM   25  O   UNL     2      -8.501   7.166  65.404  1.00  0.00    -0.137 OA 
ENDBRANCH  17  20
ENDBRANCH  14  17
ENDBRANCH  11  14
ENDBRANCH   8  11
ENDBRANCH   5   8
BRANCH   6  26
HETATM   26  C   UNL     3      -9.312  17.232  66.624  1.00  0.00    -0.260 C  
HETATM   27  H   UNL     3      -8.323  16.405  68.046  1.00  0.00     0.000 HD 
HETATM   28  O   UNL     3      -9.086  16.969  68.003  1.00  0.00    -0.227 OA 
BRANCH  26  29
HETATM   29  C   UNL     3      -9.483  15.945  65.775  1.00  0.00    -0.281 C  
HETATM   30  O   UNL     3      -8.589  14.879  66.322  1.00  0.00    -0.445 OA 
HETATM   31  H   UNL     3      -8.694  14.091  65.802  1.00  0.00     0.000 HD 
BRANCH  29  32
HETATM   32  C   UNL     3     -10.879  15.294  65.884  1.00  0.00    -0.342 C  
HETATM   33  H   UNL     3     -11.683  13.922  67.046  1.00  0.00     0.000 HD 
HETATM   34  O   UNL     3     -10.824  14.322  66.979  1.00  0.00    -0.290 OA 
BRANCH  32  35
HETATM   35  C   UNL     3     -11.751  14.870  64.692  1.00  0.00    -0.404 C  
HETATM   36  H   UNL     3     -12.613  15.804  63.234  1.00  0.00     0.000 HD 
HETATM   37  O   UNL     3     -12.074  16.067  63.972  1.00  0.00    -0.810 OA 
BRANCH  35  38
HETATM   38  C   UNL     3     -11.188  13.782  63.783  1.00  0.00     0.227 C  
HETATM   39  C   UNL     3     -12.051  12.496  63.871  1.00  0.00    -0.498 C  
HETATM   40  O   UNL     3      -9.834  13.453  64.152  1.00  0.00    -0.735 OA 
HETATM   41  O   UNL     3     -13.097  12.573  64.589  1.00  0.00    -0.845 OA 
HETATM   42  O   UNL     3     -11.480  11.470  63.408  1.00  0.00    -0.372 OA 
HETATM   43  H   UNL     3      -9.483  12.776  63.586  1.00  0.00     0.000 HD 
ENDBRANCH  35  38
ENDBRANCH  32  35
ENDBRANCH  29  32
ENDBRANCH  26  29
ENDBRANCH   6  26
TORSDOF 10
ENDMDL
MODEL       85
REMARK 921   NORMALIZED FREE ENERGY PREDICTED BY IDOCK:   -6.36 KCAL/MOL
REMARK 922        TOTAL FREE ENERGY PREDICTED BY IDOCK:  -12.57 KCAL/MOL
REMARK 923 INTER-LIGAND FREE ENERGY PREDICTED BY IDOCK:   -9.54 KCAL/MOL
REMARK 924 INTRA-LIGAND FREE ENERGY PREDICTED BY IDOCK:   -3.03 KCAL/MOL
REMARK 927      BINDING AFFINITY PREDICTED BY RF-SCORE:    0.00 PKD
ROOT
HETATM    1 CA   UNL     1     -13.060  10.711  68.883  1.00  0.00    -0.424 Ca 
HETATM    2  O   UNL     2      -9.947   8.144  72.962  1.00  0.00    -0.285 OA 
HETATM    3  O   UNL     3     -12.195  14.281  63.778  1.00  0.00    -0.893 OA 
HETATM    4  H   UNL     2     -10.073   8.731  73.698  1.00  0.00     0.000 HD 
HETATM    5  C   UNL     2     -10.614   8.682  71.822  1.00  0.00    -0.325 C  
HETATM    6  C   UNL     3     -12.498  14.377  65.167  1.00  0.00    -0.357 C  
HETATM    7  H   UNL     3     -12.841  14.756  63.268  1.00  0.00     0.000 HD 
ENDROOT
BRANCH   5   8
HETATM    8  C   UNL     2     -10.409   7.728  70.626  1.00  0.00    -0.202 C  
HETATM    9  O   UNL     2     -11.677   7.499  70.021  1.00  0.00    -0.491 OA 
HETATM   10  H   UNL     2     -11.550   6.911  69.285  1.00  0.00     0.000 HD 
BRANCH   8  11
HETATM   11  C   UNL     2      -9.481   8.349  69.569  1.00  0.00    -0.166 C  
HETATM   12  H   UNL     2      -7.556   8.242  69.005  1.00  0.00     0.000 HD 
HETATM   13  O   UNL     2      -8.129   7.858  69.658  1.00  0.00    -0.113 OA 
BRANCH  11  14
HETATM   14  C   UNL     2      -9.913   8.357  68.082  1.00  0.00    -0.191 C  
HETATM   15  O   UNL     2     -11.151   9.035  67.939  1.00  0.00    -0.506 OA 
HETATM   16  H   UNL     2     -11.416   9.039  67.027  1.00  0.00     0.000 HD 
BRANCH  14  17
HETATM   17  C   UNL     2      -9.795   7.042  67.289  1.00  0.00    -0.166 C  
HETATM   18  H   UNL     2     -11.043   5.649  66.723  1.00  0.00     0.000 HD 
HETATM   19  O   UNL     2     -11.116   6.461  67.212  1.00  0.00    -0.368 OA 
BRANCH  17  20
HETATM   20  C   UNL     2      -9.142   7.147  65.912  1.00  0.00    -0.013 C  
HETATM   21  O   UNL     2      -9.250   8.484  65.376  1.00  0.00    -0.403 OA 
HETATM   22  C   UNL     2      -7.642   6.772  66.076  1.00  0.00    -0.086 C  
HETATM   23  H   UNL     2      -8.844   8.550  64.519  1.00  0.00     0.000 HD 
HETATM   24  O   UNL     2      -7.433   5.810  66.862  1.00  0.00    -0.082 OA 
HETATM   25  O   UNL     2      -6.866   7.511  65.412  1.00  0.00    -0.047 OA 
ENDBRANCH  17  20
ENDBRANCH  14  17
ENDBRANCH  11  14
ENDBRANCH   8  11
ENDBRANCH   5   8
BRANCH   6  26
HETATM   26  C   UNL     3     -11.454  13.610  65.991  1.00  0.00    -0.324 C  
HETATM   27  H   UNL     3      -9.755  14.053  66.767  1.00  0.00     0.000 HD 
HETATM   28  O   UNL     3     -10.401  14.528  66.257  1.00  0.00    -0.279 OA 
BRANCH  26  29
HETATM   29  C   UNL     3     -12.061  12.985  67.274  1.00  0.00    -0.245 C  
HETATM   30  O   UNL     3     -12.031  11.495  67.150  1.00  0.00    -0.581 OA 
HETATM   31  H   UNL     3     -12.403  11.112  67.936  1.00  0.00     0.000 HD 
BRANCH  29  32
HETATM   32  C   UNL     3     -11.230  13.227  68.553  1.00  0.00    -0.271 C  
HETATM   33  H   UNL     3     -10.154  12.087  69.745  1.00  0.00     0.000 HD 
HETATM   34  O   UNL     3     -10.666  11.938  68.958  1.00  0.00    -0.214 OA 
BRANCH  32  35
HETATM   35  C   UNL     3     -11.646  14.140  69.717  1.00  0.00    -0.290 C  
HETATM   36  H   UNL     3     -12.257  15.970  69.861  1.00  0.00     0.000 HD 
HETATM   37  O   UNL     3     -12.000  15.405  69.141  1.00  0.00    -0.335 OA 
BRANCH  35  38
HETATM   38  C   UNL     3     -12.727  13.609  70.652  1.00  0.00    -0.233 C  
HETATM   39  C   UNL     3     -12.756  14.424  71.972  1.00  0.00    -0.328 C  
HETATM   40  O   UNL     3     -12.494  12.223  70.973  1.00  0.00    -0.370 OA 
HETATM   41  O   UNL     3     -11.968  15.419  72.031  1.00  0.00    -0.344 OA 
HETATM   42  O   UNL     3     -13.388  13.855  72.905  1.00  0.00    -0.604 OA 
HETATM   43  H   UNL     3     -13.167  11.892  71.557  1.00  0.00     0.000 HD 
ENDBRANCH  35  38
ENDBRANCH  32  35
ENDBRANCH  29  32
ENDBRANCH  26  29
ENDBRANCH   6  26
TORSDOF 10
ENDMDL
MODEL       86
REMARK 921   NORMALIZED FREE ENERGY PREDICTED BY IDOCK:   -6.35 KCAL/MOL
REMARK 922        TOTAL FREE ENERGY PREDICTED BY IDOCK:  -12.56 KCAL/MOL
REMARK 923 INTER-LIGAND FREE ENERGY PREDICTED BY IDOCK:   -9.67 KCAL/MOL
REMARK 924 INTRA-LIGAND FREE ENERGY PREDICTED BY IDOCK:   -2.89 KCAL/MOL
REMARK 927      BINDING AFFINITY PREDICTED BY RF-SCORE:    0.00 PKD
ROOT
HETATM    1 CA   UNL     1     -13.630  10.541  69.709  1.00  0.00    -0.416 Ca 
HETATM    2  O   UNL     2     -11.056   7.130  73.538  1.00  0.00    -0.564 OA 
HETATM    3  O   UNL     3     -12.356  13.355  64.231  1.00  0.00    -0.530 OA 
HETATM    4  H   UNL     2     -10.839   7.746  74.229  1.00  0.00     0.000 HD 
HETATM    5  C   UNL     2     -11.656   7.841  72.457  1.00  0.00    -0.367 C  
HETATM    6  C   UNL     3     -12.374  13.603  65.634  1.00  0.00    -0.478 C  
HETATM    7  H   UNL     3     -12.857  14.020  63.773  1.00  0.00     0.000 HD 
ENDROOT
BRANCH   5   8
HETATM    8  C   UNL     2     -12.009   6.841  71.336  1.00  0.00    -0.355 C  
HETATM    9  O   UNL     2     -13.112   7.366  70.606  1.00  0.00    -0.569 OA 
HETATM   10  H   UNL     2     -13.329   6.750  69.915  1.00  0.00     0.000 HD 
BRANCH   8  11
HETATM   11  C   UNL     2     -10.835   6.659  70.360  1.00  0.00    -0.266 C  
HETATM   12  H   UNL     2     -10.399   5.600  68.708  1.00  0.00     0.000 HD 
HETATM   13  O   UNL     2     -11.125   5.713  69.311  1.00  0.00    -0.274 OA 
BRANCH  11  14
HETATM   14  C   UNL     2     -10.159   7.904  69.736  1.00  0.00    -0.199 C  
HETATM   15  O   UNL     2     -10.965   8.422  68.689  1.00  0.00    -0.428 OA 
HETATM   16  H   UNL     2     -10.550   9.186  68.306  1.00  0.00     0.000 HD 
BRANCH  14  17
HETATM   17  C   UNL     2      -8.653   7.828  69.421  1.00  0.00    -0.135 C  
HETATM   18  H   UNL     2      -7.580   7.780  67.790  1.00  0.00     0.000 HD 
HETATM   19  O   UNL     2      -8.509   7.828  67.983  1.00  0.00    -0.123 OA 
BRANCH  17  20
HETATM   20  C   UNL     2      -7.777   8.894  70.078  1.00  0.00    -0.078 C  
HETATM   21  O   UNL     2      -8.451  10.170  70.136  1.00  0.00    -0.344 OA 
HETATM   22  C   UNL     2      -7.454   8.410  71.520  1.00  0.00    -0.098 C  
HETATM   23  H   UNL     2      -7.906  10.833  70.545  1.00  0.00     0.000 HD 
HETATM   24  O   UNL     2      -7.215   7.176  71.609  1.00  0.00    -0.072 OA 
HETATM   25  O   UNL     2      -7.506   9.329  72.380  1.00  0.00    -0.124 OA 
ENDBRANCH  17  20
ENDBRANCH  14  17
ENDBRANCH  11  14
ENDBRANCH   8  11
ENDBRANCH   5   8
BRANCH   6  26
HETATM   26  C   UNL     3     -11.565  12.529  66.373  1.00  0.00    -0.391 C  
HETATM   27  H   UNL     3      -9.721  12.329  66.867  1.00  0.00     0.000 HD 
HETATM   28  O   UNL     3     -10.222  12.994  66.409  1.00  0.00    -0.267 OA 
BRANCH  26  29
HETATM   29  C   UNL     3     -12.145  12.217  67.778  1.00  0.00     0.037 C  
HETATM   30  O   UNL     3     -12.135  10.737  67.991  1.00  0.00    -0.778 OA 
HETATM   31  H   UNL     3     -12.491  10.547  68.851  1.00  0.00     0.000 HD 
BRANCH  29  32
HETATM   32  C   UNL     3     -11.277  12.726  68.949  1.00  0.00    -0.283 C  
HETATM   33  H   UNL     3     -10.267  11.863  70.404  1.00  0.00     0.000 HD 
HETATM   34  O   UNL     3     -10.801  11.550  69.683  1.00  0.00    -0.139 OA 
BRANCH  32  35
HETATM   35  C   UNL     3     -11.606  13.942  69.829  1.00  0.00    -0.270 C  
HETATM   36  H   UNL     3     -11.978  15.809  69.486  1.00  0.00     0.000 HD 
HETATM   37  O   UNL     3     -11.774  15.057  68.943  1.00  0.00    -0.307 OA 
BRANCH  35  38
HETATM   38  C   UNL     3     -12.773  13.792  70.798  1.00  0.00    -0.290 C  
HETATM   39  C   UNL     3     -12.658  14.817  71.956  1.00  0.00    -0.328 C  
HETATM   40  O   UNL     3     -12.808  12.465  71.360  1.00  0.00    -0.367 OA 
HETATM   41  O   UNL     3     -11.697  15.645  71.875  1.00  0.00    -0.375 OA 
HETATM   42  O   UNL     3     -13.392  14.548  72.947  1.00  0.00    -0.488 OA 
HETATM   43  H   UNL     3     -13.535  12.371  71.964  1.00  0.00     0.000 HD 
ENDBRANCH  35  38
ENDBRANCH  32  35
ENDBRANCH  29  32
ENDBRANCH  26  29
ENDBRANCH   6  26
TORSDOF 10
ENDMDL
MODEL       87
REMARK 921   NORMALIZED FREE ENERGY PREDICTED BY IDOCK:   -6.35 KCAL/MOL
REMARK 922        TOTAL FREE ENERGY PREDICTED BY IDOCK:  -12.56 KCAL/MOL
REMARK 923 INTER-LIGAND FREE ENERGY PREDICTED BY IDOCK:   -9.92 KCAL/MOL
REMARK 924 INTRA-LIGAND FREE ENERGY PREDICTED BY IDOCK:   -2.64 KCAL/MOL
REMARK 927      BINDING AFFINITY PREDICTED BY RF-SCORE:    0.00 PKD
ROOT
HETATM    1 CA   UNL     1      -9.850  13.721  69.277  1.00  0.00    -0.306 Ca 
HETATM    2  O   UNL     2      -5.609  10.131  70.707  1.00  0.00    -0.064 OA 
HETATM    3  O   UNL     3     -10.976  18.366  65.189  1.00  0.00    -0.604 OA 
HETATM    4  H   UNL     2      -5.280  10.530  71.503  1.00  0.00     0.000 HD 
HETATM    5  C   UNL     2      -6.646  10.952  70.173  1.00  0.00    -0.120 C  
HETATM    6  C   UNL     3     -10.565  18.141  66.534  1.00  0.00    -0.272 C  
HETATM    7  H   UNL     3     -11.705  18.974  65.166  1.00  0.00     0.000 HD 
ENDROOT
BRANCH   5   8
HETATM    8  C   UNL     2      -7.181  10.303  68.879  1.00  0.00    -0.086 C  
HETATM    9  O   UNL     2      -7.438   8.928  69.148  1.00  0.00    -0.070 OA 
HETATM   10  H   UNL     2      -7.768   8.529  68.351  1.00  0.00     0.000 HD 
BRANCH   8  11
HETATM   11  C   UNL     2      -8.499  10.955  68.430  1.00  0.00    -0.141 C  
HETATM   12  H   UNL     2      -9.301  11.738  66.762  1.00  0.00     0.000 HD 
HETATM   13  O   UNL     2      -8.486  11.334  67.039  1.00  0.00    -0.140 OA 
BRANCH  11  14
HETATM   14  C   UNL     2      -9.844  10.257  68.745  1.00  0.00    -0.180 C  
HETATM   15  O   UNL     2      -9.900   8.995  68.099  1.00  0.00    -0.156 OA 
HETATM   16  H   UNL     2     -10.726   8.567  68.292  1.00  0.00     0.000 HD 
BRANCH  14  17
HETATM   17  C   UNL     2     -11.133  11.095  68.650  1.00  0.00    -0.239 C  
HETATM   18  H   UNL     2     -12.344  11.615  67.208  1.00  0.00     0.000 HD 
HETATM   19  O   UNL     2     -11.549  11.098  67.266  1.00  0.00    -0.514 OA 
BRANCH  17  20
HETATM   20  C   UNL     2     -12.271  10.680  69.582  1.00  0.00    -0.206 C  
HETATM   21  O   UNL     2     -12.025   9.386  70.175  1.00  0.00    -0.467 OA 
HETATM   22  C   UNL     2     -12.374  11.755  70.702  1.00  0.00    -0.328 C  
HETATM   23  H   UNL     2     -12.733   9.129  70.755  1.00  0.00     0.000 HD 
HETATM   24  O   UNL     2     -12.214  12.938  70.298  1.00  0.00    -0.339 OA 
HETATM   25  O   UNL     2     -12.576  11.267  71.846  1.00  0.00    -0.252 OA 
ENDBRANCH  17  20
ENDBRANCH  14  17
ENDBRANCH  11  14
ENDBRANCH   8  11
ENDBRANCH   5   8
BRANCH   6  26
HETATM   26  C   UNL     3      -9.386  17.157  66.570  1.00  0.00    -0.265 C  
HETATM   27  H   UNL     3      -8.480  16.187  67.956  1.00  0.00     0.000 HD 
HETATM   28  O   UNL     3      -9.209  16.795  67.933  1.00  0.00    -0.219 OA 
BRANCH  26  29
HETATM   29  C   UNL     3      -9.608  15.939  65.636  1.00  0.00    -0.231 C  
HETATM   30  O   UNL     3      -8.675  14.842  66.038  1.00  0.00    -0.410 OA 
HETATM   31  H   UNL     3      -8.811  14.096  65.465  1.00  0.00     0.000 HD 
BRANCH  29  32
HETATM   32  C   UNL     3     -10.991  15.268  65.785  1.00  0.00    -0.338 C  
HETATM   33  H   UNL     3     -11.722  13.835  66.921  1.00  0.00     0.000 HD 
HETATM   34  O   UNL     3     -10.871  14.247  66.829  1.00  0.00    -0.292 OA 
BRANCH  32  35
HETATM   35  C   UNL     3     -11.920  14.890  64.621  1.00  0.00    -0.401 C  
HETATM   36  H   UNL     3     -12.704  15.852  63.137  1.00  0.00     0.000 HD 
HETATM   37  O   UNL     3     -12.130  16.085  63.858  1.00  0.00    -0.880 OA 
BRANCH  35  38
HETATM   38  C   UNL     3     -11.484  13.717  63.750  1.00  0.00    -0.069 C  
HETATM   39  C   UNL     3     -12.325  12.454  64.073  1.00  0.00    -0.488 C  
HETATM   40  O   UNL     3     -10.092  13.408  63.961  1.00  0.00    -0.764 OA 
HETATM   41  O   UNL     3     -13.264  12.610  64.916  1.00  0.00    -0.819 OA 
HETATM   42  O   UNL     3     -11.822  11.383  63.635  1.00  0.00    -0.254 OA 
HETATM   43  H   UNL     3      -9.821  12.677  63.418  1.00  0.00     0.000 HD 
ENDBRANCH  35  38
ENDBRANCH  32  35
ENDBRANCH  29  32
ENDBRANCH  26  29
ENDBRANCH   6  26
TORSDOF 10
ENDMDL
MODEL       88
REMARK 921   NORMALIZED FREE ENERGY PREDICTED BY IDOCK:   -6.32 KCAL/MOL
REMARK 922        TOTAL FREE ENERGY PREDICTED BY IDOCK:  -12.52 KCAL/MOL
REMARK 923 INTER-LIGAND FREE ENERGY PREDICTED BY IDOCK:  -10.56 KCAL/MOL
REMARK 924 INTRA-LIGAND FREE ENERGY PREDICTED BY IDOCK:   -1.95 KCAL/MOL
REMARK 927      BINDING AFFINITY PREDICTED BY RF-SCORE:    0.00 PKD
ROOT
HETATM    1 CA   UNL     1      -8.035  11.247  67.278  1.00  0.00    -0.109 Ca 
HETATM    2  O   UNL     2      -7.513   6.714  70.757  1.00  0.00    -0.083 OA 
HETATM    3  O   UNL     3     -12.499  14.266  64.034  1.00  0.00    -0.705 OA 
HETATM    4  H   UNL     2      -7.130   6.069  70.175  1.00  0.00     0.000 HD 
HETATM    5  C   UNL     2      -7.775   7.906  70.017  1.00  0.00    -0.089 C  
HETATM    6  C   UNL     3     -11.485  13.276  63.880  1.00  0.00    -0.362 C  
HETATM    7  H   UNL     3     -12.400  14.942  63.375  1.00  0.00     0.000 HD 
ENDROOT
BRANCH   5   8
HETATM    8  C   UNL     2      -8.397   8.954  70.963  1.00  0.00    -0.191 C  
HETATM    9  O   UNL     2      -7.779  10.209  70.699  1.00  0.00    -0.428 OA 
HETATM   10  H   UNL     2      -8.162  10.855  71.282  1.00  0.00     0.000 HD 
BRANCH   8  11
HETATM   11  C   UNL     2      -9.907   9.105  70.713  1.00  0.00    -0.270 C  
HETATM   12  H   UNL     2     -11.223   8.817  69.223  1.00  0.00     0.000 HD 
HETATM   13  O   UNL     2     -10.290   8.724  69.377  1.00  0.00    -0.206 OA 
BRANCH  11  14
HETATM   14  C   UNL     2     -10.913   8.490  71.717  1.00  0.00    -0.306 C  
HETATM   15  O   UNL     2     -10.299   7.430  72.432  1.00  0.00    -0.203 OA 
HETATM   16  H   UNL     2     -10.917   7.052  73.048  1.00  0.00     0.000 HD 
BRANCH  14  17
HETATM   17  C   UNL     2     -12.342   8.199  71.221  1.00  0.00    -0.265 C  
HETATM   18  H   UNL     2     -13.493   6.622  71.159  1.00  0.00     0.000 HD 
HETATM   19  O   UNL     2     -12.611   6.801  71.465  1.00  0.00    -0.361 OA 
BRANCH  17  20
HETATM   20  C   UNL     2     -13.442   9.096  71.788  1.00  0.00    -0.416 C  
HETATM   21  O   UNL     2     -13.451   9.074  73.232  1.00  0.00    -0.945 OA 
HETATM   22  C   UNL     2     -13.169  10.543  71.291  1.00  0.00    -0.306 C  
HETATM   23  H   UNL     2     -14.135   9.631  73.584  1.00  0.00     0.000 HD 
HETATM   24  O   UNL     2     -12.775  10.614  70.097  1.00  0.00    -0.308 OA 
HETATM   25  O   UNL     2     -13.361  11.420  72.175  1.00  0.00    -0.469 OA 
ENDBRANCH  17  20
ENDBRANCH  14  17
ENDBRANCH  11  14
ENDBRANCH   8  11
ENDBRANCH   5   8
BRANCH   6  26
HETATM   26  C   UNL     3     -11.646  12.183  64.946  1.00  0.00    -0.316 C  
HETATM   27  H   UNL     3     -10.546  10.742  65.578  1.00  0.00     0.000 HD 
HETATM   28  O   UNL     3     -10.447  11.418  64.918  1.00  0.00    -0.276 OA 
BRANCH  26  29
HETATM   29  C   UNL     3     -11.967  12.769  66.346  1.00  0.00    -0.375 C  
HETATM   30  O   UNL     3     -11.958  11.661  67.351  1.00  0.00    -0.621 OA 
HETATM   31  H   UNL     3     -12.155  12.020  68.208  1.00  0.00     0.000 HD 
BRANCH  29  32
HETATM   32  C   UNL     3     -10.887  13.725  66.897  1.00  0.00    -0.285 C  
HETATM   33  H   UNL     3      -9.427  13.559  68.209  1.00  0.00     0.000 HD 
HETATM   34  O   UNL     3     -10.093  12.971  67.871  1.00  0.00    -0.222 OA 
BRANCH  32  35
HETATM   35  C   UNL     3     -11.115  15.201  67.259  1.00  0.00    -0.332 C  
HETATM   36  H   UNL     3     -11.935  16.127  68.745  1.00  0.00     0.000 HD 
HETATM   37  O   UNL     3     -11.794  15.214  68.521  1.00  0.00    -0.329 OA 
BRANCH  35  38
HETATM   38  C   UNL     3      -9.887  16.105  67.252  1.00  0.00    -0.241 C  
HETATM   39  C   UNL     3      -9.795  16.891  65.918  1.00  0.00    -0.215 C  
HETATM   40  O   UNL     3      -8.680  15.336  67.417  1.00  0.00    -0.163 OA 
HETATM   41  O   UNL     3     -10.761  16.731  65.108  1.00  0.00    -0.641 OA 
HETATM   42  O   UNL     3      -8.661  17.405  65.709  1.00  0.00    -0.526 OA 
HETATM   43  H   UNL     3      -7.915  15.899  67.413  1.00  0.00     0.000 HD 
ENDBRANCH  35  38
ENDBRANCH  32  35
ENDBRANCH  29  32
ENDBRANCH  26  29
ENDBRANCH   6  26
TORSDOF 10
ENDMDL
MODEL       89
REMARK 921   NORMALIZED FREE ENERGY PREDICTED BY IDOCK:   -6.30 KCAL/MOL
REMARK 922        TOTAL FREE ENERGY PREDICTED BY IDOCK:  -12.48 KCAL/MOL
REMARK 923 INTER-LIGAND FREE ENERGY PREDICTED BY IDOCK:   -9.49 KCAL/MOL
REMARK 924 INTRA-LIGAND FREE ENERGY PREDICTED BY IDOCK:   -2.99 KCAL/MOL
REMARK 927      BINDING AFFINITY PREDICTED BY RF-SCORE:    0.00 PKD
ROOT
HETATM    1 CA   UNL     1     -11.494   8.218  67.737  1.00  0.00    -0.476 Ca 
HETATM    2  O   UNL     2     -13.394   8.715  73.129  1.00  0.00    -0.865 OA 
HETATM    3  O   UNL     3      -9.257  11.863  63.126  1.00  0.00    -0.641 OA 
HETATM    4  H   UNL     2     -14.334   8.653  73.007  1.00  0.00     0.000 HD 
HETATM    5  C   UNL     2     -12.760   8.676  71.851  1.00  0.00    -0.366 C  
HETATM    6  C   UNL     3     -10.465  11.263  63.586  1.00  0.00    -0.405 C  
HETATM    7  H   UNL     3      -9.109  11.643  62.214  1.00  0.00     0.000 HD 
ENDROOT
BRANCH   5   8
HETATM    8  C   UNL     2     -11.233   8.777  72.049  1.00  0.00    -0.373 C  
HETATM    9  O   UNL     2     -10.854   7.847  73.057  1.00  0.00    -0.383 OA 
HETATM   10  H   UNL     2      -9.914   7.910  73.179  1.00  0.00     0.000 HD 
BRANCH   8  11
HETATM   11  C   UNL     2     -10.478   8.416  70.759  1.00  0.00    -0.197 C  
HETATM   12  H   UNL     2     -10.786   7.357  69.079  1.00  0.00     0.000 HD 
HETATM   13  O   UNL     2     -11.253   7.581  69.876  1.00  0.00    -0.216 OA 
BRANCH  11  14
HETATM   14  C   UNL     2      -9.807   9.535  69.926  1.00  0.00    -0.226 C  
HETATM   15  O   UNL     2     -10.721  10.043  68.968  1.00  0.00    -0.204 OA 
HETATM   16  H   UNL     2     -10.309  10.730  68.457  1.00  0.00     0.000 HD 
BRANCH  14  17
HETATM   17  C   UNL     2      -8.381   9.287  69.398  1.00  0.00    -0.127 C  
HETATM   18  H   UNL     2      -7.594   8.153  68.017  1.00  0.00     0.000 HD 
HETATM   19  O   UNL     2      -8.473   8.306  68.342  1.00  0.00    -0.127 OA 
BRANCH  17  20
HETATM   20  C   UNL     2      -7.607  10.528  68.953  1.00  0.00    -0.108 C  
HETATM   21  O   UNL     2      -8.378  11.733  69.154  1.00  0.00    -0.362 OA 
HETATM   22  C   UNL     2      -6.305  10.596  69.801  1.00  0.00    -0.099 C  
HETATM   23  H   UNL     2      -7.897  12.504  68.877  1.00  0.00     0.000 HD 
HETATM   24  O   UNL     2      -5.756   9.479  69.995  1.00  0.00    -0.034 OA 
HETATM   25  O   UNL     2      -6.017  11.762  70.182  1.00  0.00    -0.139 OA 
ENDBRANCH  17  20
ENDBRANCH  14  17
ENDBRANCH  11  14
ENDBRANCH   8  11
ENDBRANCH   5   8
BRANCH   6  26
HETATM   26  C   UNL     3     -10.705  11.618  65.060  1.00  0.00    -0.296 C  
HETATM   27  H   UNL     3      -9.832  11.181  66.713  1.00  0.00     0.000 HD 
HETATM   28  O   UNL     3      -9.684  10.961  65.801  1.00  0.00    -0.203 OA 
BRANCH  26  29
HETATM   29  C   UNL     3     -10.745  13.150  65.298  1.00  0.00    -0.303 C  
HETATM   30  O   UNL     3     -11.194  13.825  64.041  1.00  0.00    -0.580 OA 
HETATM   31  H   UNL     3     -11.219  14.764  64.187  1.00  0.00     0.000 HD 
BRANCH  29  32
HETATM   32  C   UNL     3     -11.810  13.607  66.318  1.00  0.00    -0.392 C  
HETATM   33  H   UNL     3     -13.419  14.741  66.230  1.00  0.00     0.000 HD 
HETATM   34  O   UNL     3     -12.763  14.460  65.603  1.00  0.00    -0.407 OA 
BRANCH  32  35
HETATM   35  C   UNL     3     -11.521  14.039  67.764  1.00  0.00    -0.322 C  
HETATM   36  H   UNL     3     -10.840  13.149  69.340  1.00  0.00     0.000 HD 
HETATM   37  O   UNL     3     -11.020  12.882  68.446  1.00  0.00    -0.236 OA 
BRANCH  35  38
HETATM   38  C   UNL     3     -10.620  15.255  67.948  1.00  0.00    -0.260 C  
HETATM   39  C   UNL     3     -10.894  15.935  69.315  1.00  0.00    -0.276 C  
HETATM   40  O   UNL     3     -10.839  16.222  66.902  1.00  0.00    -0.271 OA 
HETATM   41  O   UNL     3     -11.729  15.349  70.073  1.00  0.00    -0.277 OA 
HETATM   42  O   UNL     3     -10.430  17.106  69.401  1.00  0.00    -0.321 OA 
HETATM   43  H   UNL     3     -10.278  16.980  67.017  1.00  0.00     0.000 HD 
ENDBRANCH  35  38
ENDBRANCH  32  35
ENDBRANCH  29  32
ENDBRANCH  26  29
ENDBRANCH   6  26
TORSDOF 10
ENDMDL
MODEL       90
REMARK 921   NORMALIZED FREE ENERGY PREDICTED BY IDOCK:   -6.29 KCAL/MOL
REMARK 922        TOTAL FREE ENERGY PREDICTED BY IDOCK:  -12.47 KCAL/MOL
REMARK 923 INTER-LIGAND FREE ENERGY PREDICTED BY IDOCK:   -9.42 KCAL/MOL
REMARK 924 INTRA-LIGAND FREE ENERGY PREDICTED BY IDOCK:   -3.05 KCAL/MOL
REMARK 927      BINDING AFFINITY PREDICTED BY RF-SCORE:    0.00 PKD
ROOT
HETATM    1 CA   UNL     1     -10.331   7.005  65.632  1.00  0.00    -0.412 Ca 
HETATM    2  O   UNL     2      -9.461  11.901  62.771  1.00  0.00    -0.533 OA 
HETATM    3  O   UNL     3      -9.462   4.643  71.396  1.00  0.00    -0.141 OA 
HETATM    4  H   UNL     2      -8.688  11.691  62.261  1.00  0.00     0.000 HD 
HETATM    5  C   UNL     2      -9.780  10.790  63.607  1.00  0.00    -0.327 C  
HETATM    6  C   UNL     3      -8.851   4.698  70.110  1.00  0.00    -0.086 C  
HETATM    7  H   UNL     3      -9.536   3.742  71.687  1.00  0.00     0.000 HD 
ENDROOT
BRANCH   5   8
HETATM    8  C   UNL     2     -11.036  11.132  64.435  1.00  0.00    -0.200 C  
HETATM    9  O   UNL     2     -10.782  10.775  65.790  1.00  0.00    -0.179 OA 
HETATM   10  H   UNL     2     -11.556  10.986  66.300  1.00  0.00     0.000 HD 
BRANCH   8  11
HETATM   11  C   UNL     2     -11.343  12.638  64.389  1.00  0.00    -0.344 C  
HETATM   12  H   UNL     2     -12.164  13.969  63.127  1.00  0.00     0.000 HD 
HETATM   13  O   UNL     2     -11.974  13.039  63.156  1.00  0.00    -0.534 OA 
BRANCH  11  14
HETATM   14  C   UNL     2     -12.088  13.303  65.572  1.00  0.00    -0.435 C  
HETATM   15  O   UNL     2     -13.205  14.035  65.092  1.00  0.00    -0.768 OA 
HETATM   16  H   UNL     2     -13.663  14.443  65.818  1.00  0.00     0.000 HD 
BRANCH  14  17
HETATM   17  C   UNL     2     -11.247  14.026  66.641  1.00  0.00    -0.323 C  
HETATM   18  H   UNL     2     -11.302  15.783  67.492  1.00  0.00     0.000 HD 
HETATM   19  O   UNL     2     -11.821  15.338  66.832  1.00  0.00    -0.112 OA 
BRANCH  17  20
HETATM   20  C   UNL     2     -11.072  13.285  67.967  1.00  0.00    -0.256 C  
HETATM   21  O   UNL     2     -11.863  12.078  68.007  1.00  0.00    -0.428 OA 
HETATM   22  C   UNL     2      -9.566  12.926  68.106  1.00  0.00    -0.223 C  
HETATM   23  H   UNL     2     -11.754  11.618  68.831  1.00  0.00     0.000 HD 
HETATM   24  O   UNL     2      -8.780  13.831  67.717  1.00  0.00    -0.161 OA 
HETATM   25  O   UNL     2      -9.368  11.769  68.565  1.00  0.00    -0.198 OA 
ENDBRANCH  17  20
ENDBRANCH  14  17
ENDBRANCH  11  14
ENDBRANCH   8  11
ENDBRANCH   5   8
BRANCH   6  26
HETATM   26  C   UNL     3      -8.733   6.155  69.641  1.00  0.00    -0.135 C  
HETATM   27  H   UNL     3      -7.643   7.075  68.358  1.00  0.00     0.000 HD 
HETATM   28  O   UNL     3      -7.716   6.174  68.648  1.00  0.00    -0.096 OA 
BRANCH  26  29
HETATM   29  C   UNL     3     -10.087   6.724  69.143  1.00  0.00    -0.171 C  
HETATM   30  O   UNL     3     -11.192   5.831  69.611  1.00  0.00    -0.353 OA 
HETATM   31  H   UNL     3     -12.021   6.180  69.305  1.00  0.00     0.000 HD 
BRANCH  29  32
HETATM   32  C   UNL     3     -10.473   8.083  69.767  1.00  0.00    -0.227 C  
HETATM   33  H   UNL     3      -9.485   9.717  70.250  1.00  0.00     0.000 HD 
HETATM   34  O   UNL     3      -9.248   8.881  69.867  1.00  0.00    -0.154 OA 
BRANCH  32  35
HETATM   35  C   UNL     3     -11.460   8.273  70.929  1.00  0.00    -0.274 C  
HETATM   36  H   UNL     3     -11.702   7.443  72.659  1.00  0.00     0.000 HD 
HETATM   37  O   UNL     3     -11.091   7.325  71.940  1.00  0.00    -0.231 OA 
BRANCH  35  38
HETATM   38  C   UNL     3     -11.601   9.686  71.483  1.00  0.00    -0.381 C  
HETATM   39  C   UNL     3     -13.082   9.991  71.831  1.00  0.00    -0.460 C  
HETATM   40  O   UNL     3     -11.143  10.663  70.528  1.00  0.00    -0.422 OA 
HETATM   41  O   UNL     3     -13.899   9.028  71.686  1.00  0.00    -0.390 OA 
HETATM   42  O   UNL     3     -13.323  11.220  71.988  1.00  0.00    -0.462 OA 
HETATM   43  H   UNL     3     -11.231  11.543  70.874  1.00  0.00     0.000 HD 
ENDBRANCH  35  38
ENDBRANCH  32  35
ENDBRANCH  29  32
ENDBRANCH  26  29
ENDBRANCH   6  26
TORSDOF 10
ENDMDL
MODEL       91
REMARK 921   NORMALIZED FREE ENERGY PREDICTED BY IDOCK:   -6.28 KCAL/MOL
REMARK 922        TOTAL FREE ENERGY PREDICTED BY IDOCK:  -12.45 KCAL/MOL
REMARK 923 INTER-LIGAND FREE ENERGY PREDICTED BY IDOCK:   -9.79 KCAL/MOL
REMARK 924 INTRA-LIGAND FREE ENERGY PREDICTED BY IDOCK:   -2.65 KCAL/MOL
REMARK 927      BINDING AFFINITY PREDICTED BY RF-SCORE:    0.00 PKD
ROOT
HETATM    1 CA   UNL     1      -9.315  13.113  69.503  1.00  0.00    -0.356 Ca 
HETATM    2  O   UNL     2      -9.649  10.852  64.240  1.00  0.00    -0.231 OA 
HETATM    3  O   UNL     3     -13.066  15.812  73.769  1.00  0.00    -0.646 OA 
HETATM    4  H   UNL     2      -9.280  11.548  63.709  1.00  0.00     0.000 HD 
HETATM    5  C   UNL     2      -9.702  11.287  65.598  1.00  0.00    -0.230 C  
HETATM    6  C   UNL     3     -12.156  16.136  72.721  1.00  0.00    -0.553 C  
HETATM    7  H   UNL     3     -12.827  16.272  74.565  1.00  0.00     0.000 HD 
ENDROOT
BRANCH   5   8
HETATM    8  C   UNL     2     -10.301  10.156  66.462  1.00  0.00    -0.202 C  
HETATM    9  O   UNL     2      -9.917   8.911  65.888  1.00  0.00    -0.441 OA 
HETATM   10  H   UNL     2     -10.286   8.215  66.419  1.00  0.00     0.000 HD 
BRANCH   8  11
HETATM   11  C   UNL     2      -9.760  10.205  67.900  1.00  0.00    -0.146 C  
HETATM   12  H   UNL     2      -8.454  11.283  68.982  1.00  0.00     0.000 HD 
HETATM   13  O   UNL     2      -8.788  11.252  68.093  1.00  0.00    -0.145 OA 
BRANCH  11  14
HETATM   14  C   UNL     2     -10.751  10.218  69.090  1.00  0.00    -0.228 C  
HETATM   15  O   UNL     2     -10.873  11.533  69.606  1.00  0.00    -0.438 OA 
HETATM   16  H   UNL     2     -11.481  11.541  70.337  1.00  0.00     0.000 HD 
BRANCH  14  17
HETATM   17  C   UNL     2     -10.619   9.110  70.152  1.00  0.00    -0.228 C  
HETATM   18  H   UNL     2      -9.335   8.692  71.563  1.00  0.00     0.000 HD 
HETATM   19  O   UNL     2      -9.416   9.376  70.908  1.00  0.00    -0.257 OA 
BRANCH  17  20
HETATM   20  C   UNL     2     -11.829   8.909  71.064  1.00  0.00    -0.276 C  
HETATM   21  O   UNL     2     -12.961   9.690  70.620  1.00  0.00    -0.546 OA 
HETATM   22  C   UNL     2     -12.193   7.398  71.030  1.00  0.00    -0.282 C  
HETATM   23  H   UNL     2     -13.713   9.565  71.187  1.00  0.00     0.000 HD 
HETATM   24  O   UNL     2     -11.198   6.627  71.033  1.00  0.00    -0.268 OA 
HETATM   25  O   UNL     2     -13.434   7.184  70.981  1.00  0.00    -0.249 OA 
ENDBRANCH  17  20
ENDBRANCH  14  17
ENDBRANCH  11  14
ENDBRANCH   8  11
ENDBRANCH   5   8
BRANCH   6  26
HETATM   26  C   UNL     3     -12.543  15.393  71.435  1.00  0.00    -0.405 C  
HETATM   27  H   UNL     3     -14.089  15.376  70.299  1.00  0.00     0.000 HD 
HETATM   28  O   UNL     3     -13.850  15.836  71.095  1.00  0.00    -0.537 OA 
BRANCH  26  29
HETATM   29  C   UNL     3     -11.508  15.605  70.299  1.00  0.00    -0.349 C  
HETATM   30  O   UNL     3     -10.235  14.911  70.665  1.00  0.00    -0.415 OA 
HETATM   31  H   UNL     3      -9.601  15.042  69.969  1.00  0.00     0.000 HD 
BRANCH  29  32
HETATM   32  C   UNL     3     -11.883  14.926  68.964  1.00  0.00    -0.301 C  
HETATM   33  H   UNL     3     -12.727  13.218  68.465  1.00  0.00     0.000 HD 
HETATM   34  O   UNL     3     -12.496  13.635  69.287  1.00  0.00    -0.214 OA 
BRANCH  32  35
HETATM   35  C   UNL     3     -11.012  14.925  67.698  1.00  0.00    -0.300 C  
HETATM   36  H   UNL     3     -11.281  14.385  65.861  1.00  0.00     0.000 HD 
HETATM   37  O   UNL     3     -11.820  14.386  66.643  1.00  0.00    -0.389 OA 
BRANCH  35  38
HETATM   38  C   UNL     3     -10.363  16.249  67.311  1.00  0.00    -0.285 C  
HETATM   39  C   UNL     3      -8.856  16.248  67.679  1.00  0.00    -0.190 C  
HETATM   40  O   UNL     3     -11.000  17.352  67.986  1.00  0.00    -0.341 OA 
HETATM   41  O   UNL     3      -8.397  15.159  68.147  1.00  0.00    -0.141 OA 
HETATM   42  O   UNL     3      -8.335  17.397  67.687  1.00  0.00    -0.207 OA 
HETATM   43  H   UNL     3     -10.596  18.177  67.745  1.00  0.00     0.000 HD 
ENDBRANCH  35  38
ENDBRANCH  32  35
ENDBRANCH  29  32
ENDBRANCH  26  29
ENDBRANCH   6  26
TORSDOF 10
ENDMDL
MODEL       92
REMARK 921   NORMALIZED FREE ENERGY PREDICTED BY IDOCK:   -6.27 KCAL/MOL
REMARK 922        TOTAL FREE ENERGY PREDICTED BY IDOCK:  -12.43 KCAL/MOL
REMARK 923 INTER-LIGAND FREE ENERGY PREDICTED BY IDOCK:   -9.97 KCAL/MOL
REMARK 924 INTRA-LIGAND FREE ENERGY PREDICTED BY IDOCK:   -2.47 KCAL/MOL
REMARK 927      BINDING AFFINITY PREDICTED BY RF-SCORE:    0.00 PKD
ROOT
HETATM    1 CA   UNL     1     -11.682   8.585  66.863  1.00  0.00    -0.197 Ca 
HETATM    2  O   UNL     2      -7.867  10.899  63.256  1.00  0.00    -0.362 OA 
HETATM    3  O   UNL     3     -14.074   9.647  72.582  1.00  0.00    -0.666 OA 
HETATM    4  H   UNL     2      -7.123  10.318  63.365  1.00  0.00     0.000 HD 
HETATM    5  C   UNL     2      -8.903  10.496  64.151  1.00  0.00    -0.194 C  
HETATM    6  C   UNL     3     -13.067   8.888  71.919  1.00  0.00    -0.386 C  
HETATM    7  H   UNL     3     -14.617   9.078  73.115  1.00  0.00     0.000 HD 
ENDROOT
BRANCH   5   8
HETATM    8  C   UNL     2     -10.111  11.439  63.973  1.00  0.00    -0.320 C  
HETATM    9  O   UNL     2     -10.977  10.869  62.998  1.00  0.00    -0.738 OA 
HETATM   10  H   UNL     2     -11.721  11.450  62.889  1.00  0.00     0.000 HD 
BRANCH   8  11
HETATM   11  C   UNL     2     -10.901  11.588  65.284  1.00  0.00    -0.259 C  
HETATM   12  H   UNL     2     -10.535  11.862  67.240  1.00  0.00     0.000 HD 
HETATM   13  O   UNL     2     -10.047  11.770  66.430  1.00  0.00    -0.203 OA 
BRANCH  11  14
HETATM   14  C   UNL     2     -12.067  12.603  65.363  1.00  0.00    -0.462 C  
HETATM   15  O   UNL     2     -13.169  12.138  64.601  1.00  0.00    -0.659 OA 
HETATM   16  H   UNL     2     -13.885  12.762  64.650  1.00  0.00     0.000 HD 
BRANCH  14  17
HETATM   17  C   UNL     2     -11.737  14.098  65.186  1.00  0.00    -0.361 C  
HETATM   18  H   UNL     2     -12.427  15.546  64.071  1.00  0.00     0.000 HD 
HETATM   19  O   UNL     2     -12.631  14.624  64.180  1.00  0.00    -0.766 OA 
BRANCH  17  20
HETATM   20  C   UNL     2     -11.757  14.943  66.460  1.00  0.00    -0.199 C  
HETATM   21  O   UNL     2     -12.405  14.246  67.547  1.00  0.00    -0.600 OA 
HETATM   22  C   UNL     2     -10.281  15.246  66.843  1.00  0.00    -0.268 C  
HETATM   23  H   UNL     2     -12.418  14.772  68.338  1.00  0.00     0.000 HD 
HETATM   24  O   UNL     2      -9.535  15.504  65.861  1.00  0.00    -0.331 OA 
HETATM   25  O   UNL     2     -10.058  15.161  68.080  1.00  0.00    -0.219 OA 
ENDBRANCH  17  20
ENDBRANCH  14  17
ENDBRANCH  11  14
ENDBRANCH   8  11
ENDBRANCH   5   8
BRANCH   6  26
HETATM   26  C   UNL     3     -12.191   9.808  71.058  1.00  0.00    -0.347 C  
HETATM   27  H   UNL     3     -12.069  11.707  70.805  1.00  0.00     0.000 HD 
HETATM   28  O   UNL     3     -12.611  11.137  71.337  1.00  0.00    -0.385 OA 
BRANCH  26  29
HETATM   29  C   UNL     3     -10.676   9.579  71.307  1.00  0.00    -0.316 C  
HETATM   30  O   UNL     3     -10.486   8.243  71.950  1.00  0.00    -0.232 OA 
HETATM   31  H   UNL     3      -9.558   8.103  72.103  1.00  0.00     0.000 HD 
BRANCH  29  32
HETATM   32  C   UNL     3      -9.834   9.450  70.019  1.00  0.00    -0.221 C  
HETATM   33  H   UNL     3     -10.098   8.581  68.271  1.00  0.00     0.000 HD 
HETATM   34  O   UNL     3     -10.616   8.661  69.063  1.00  0.00    -0.217 OA 
BRANCH  32  35
HETATM   35  C   UNL     3      -8.320   9.194  69.976  1.00  0.00    -0.150 C  
HETATM   36  H   UNL     3      -6.882   9.308  71.265  1.00  0.00     0.000 HD 
HETATM   37  O   UNL     3      -7.819   9.467  71.291  1.00  0.00    -0.335 OA 
BRANCH  35  38
HETATM   38  C   UNL     3      -7.869   7.833  69.456  1.00  0.00    -0.111 C  
HETATM   39  C   UNL     3      -7.679   7.872  67.917  1.00  0.00    -0.125 C  
HETATM   40  O   UNL     3      -8.838   6.814  69.773  1.00  0.00    -0.140 OA 
HETATM   41  O   UNL     3      -7.837   9.005  67.363  1.00  0.00    -0.099 OA 
HETATM   42  O   UNL     3      -7.621   6.729  67.384  1.00  0.00    -0.100 OA 
HETATM   43  H   UNL     3      -8.557   5.966  69.449  1.00  0.00     0.000 HD 
ENDBRANCH  35  38
ENDBRANCH  32  35
ENDBRANCH  29  32
ENDBRANCH  26  29
ENDBRANCH   6  26
TORSDOF 10
ENDMDL
MODEL       93
REMARK 921   NORMALIZED FREE ENERGY PREDICTED BY IDOCK:   -6.27 KCAL/MOL
REMARK 922        TOTAL FREE ENERGY PREDICTED BY IDOCK:  -12.43 KCAL/MOL
REMARK 923 INTER-LIGAND FREE ENERGY PREDICTED BY IDOCK:   -9.42 KCAL/MOL
REMARK 924 INTRA-LIGAND FREE ENERGY PREDICTED BY IDOCK:   -3.01 KCAL/MOL
REMARK 927      BINDING AFFINITY PREDICTED BY RF-SCORE:    0.00 PKD
ROOT
HETATM    1 CA   UNL     1     -10.952  10.489  65.517  1.00  0.00    -0.231 Ca 
HETATM    2  O   UNL     2     -11.915  15.879  63.800  1.00  0.00    -1.238 OA 
HETATM    3  O   UNL     3      -7.282   7.367  69.559  1.00  0.00    -0.078 OA 
HETATM    4  H   UNL     2     -11.461  15.898  62.965  1.00  0.00     0.000 HD 
HETATM    5  C   UNL     2     -11.714  14.602  64.404  1.00  0.00    -0.346 C  
HETATM    6  C   UNL     3      -7.358   7.748  68.188  1.00  0.00    -0.106 C  
HETATM    7  H   UNL     3      -7.140   6.431  69.632  1.00  0.00     0.000 HD 
ENDROOT
BRANCH   5   8
HETATM    8  C   UNL     2     -12.451  14.571  65.761  1.00  0.00    -0.208 C  
HETATM    9  O   UNL     2     -13.765  14.070  65.539  1.00  0.00    -0.538 OA 
HETATM   10  H   UNL     2     -14.218  14.051  66.374  1.00  0.00     0.000 HD 
BRANCH   8  11
HETATM   11  C   UNL     2     -11.746  13.636  66.757  1.00  0.00    -0.392 C  
HETATM   12  H   UNL     2     -11.726  11.685  67.235  1.00  0.00     0.000 HD 
HETATM   13  O   UNL     2     -12.161  12.262  66.620  1.00  0.00    -0.612 OA 
BRANCH  11  14
HETATM   14  C   UNL     2     -10.204  13.681  66.889  1.00  0.00    -0.261 C  
HETATM   15  O   UNL     2      -9.671  12.368  66.819  1.00  0.00    -0.212 OA 
HETATM   16  H   UNL     2      -8.725  12.396  66.899  1.00  0.00     0.000 HD 
BRANCH  14  17
HETATM   17  C   UNL     2      -9.598  14.572  67.990  1.00  0.00    -0.217 C  
HETATM   18  H   UNL     2      -8.034  14.463  69.155  1.00  0.00     0.000 HD 
HETATM   19  O   UNL     2      -8.407  13.913  68.475  1.00  0.00    -0.155 OA 
BRANCH  17  20
HETATM   20  C   UNL     2      -9.324  16.024  67.601  1.00  0.00    -0.214 C  
HETATM   21  O   UNL     2      -9.255  16.184  66.167  1.00  0.00    -0.298 OA 
HETATM   22  C   UNL     2     -10.488  16.887  68.165  1.00  0.00    -0.350 C  
HETATM   23  H   UNL     2      -9.085  17.087  65.926  1.00  0.00     0.000 HD 
HETATM   24  O   UNL     2     -10.873  16.546  69.316  1.00  0.00    -0.309 OA 
HETATM   25  O   UNL     2     -10.881  17.780  67.368  1.00  0.00    -0.318 OA 
ENDBRANCH  17  20
ENDBRANCH  14  17
ENDBRANCH  11  14
ENDBRANCH   8  11
ENDBRANCH   5   8
BRANCH   6  26
HETATM   26  C   UNL     3      -7.587   9.261  68.070  1.00  0.00    -0.084 C  
HETATM   27  H   UNL     3      -8.448  10.400  66.788  1.00  0.00     0.000 HD 
HETATM   28  O   UNL     3      -8.306   9.464  66.860  1.00  0.00    -0.124 OA 
BRANCH  26  29
HETATM   29  C   UNL     3      -8.304   9.847  69.315  1.00  0.00    -0.151 C  
HETATM   30  O   UNL     3      -8.119  11.330  69.330  1.00  0.00    -0.369 OA 
HETATM   31  H   UNL     3      -8.558  11.688  70.093  1.00  0.00     0.000 HD 
BRANCH  29  32
HETATM   32  C   UNL     3      -9.842   9.705  69.287  1.00  0.00    -0.189 C  
HETATM   33  H   UNL     3     -11.350  10.971  69.250  1.00  0.00     0.000 HD 
HETATM   34  O   UNL     3     -10.404  11.058  69.268  1.00  0.00    -0.214 OA 
BRANCH  32  35
HETATM   35  C   UNL     3     -10.650   8.685  70.103  1.00  0.00    -0.225 C  
HETATM   36  H   UNL     3     -10.208   7.333  71.413  1.00  0.00     0.000 HD 
HETATM   37  O   UNL     3      -9.709   7.964  70.908  1.00  0.00    -0.164 OA 
BRANCH  35  38
HETATM   38  C   UNL     3     -11.814   9.231  70.923  1.00  0.00    -0.282 C  
HETATM   39  C   UNL     3     -12.699   8.074  71.454  1.00  0.00    -0.280 C  
HETATM   40  O   UNL     3     -12.635  10.111  70.129  1.00  0.00    -0.522 OA 
HETATM   41  O   UNL     3     -12.286   6.897  71.207  1.00  0.00    -0.359 OA 
HETATM   42  O   UNL     3     -13.834   8.448  71.860  1.00  0.00    -0.374 OA 
HETATM   43  H   UNL     3     -13.361  10.451  70.640  1.00  0.00     0.000 HD 
ENDBRANCH  35  38
ENDBRANCH  32  35
ENDBRANCH  29  32
ENDBRANCH  26  29
ENDBRANCH   6  26
TORSDOF 10
ENDMDL
MODEL       94
REMARK 921   NORMALIZED FREE ENERGY PREDICTED BY IDOCK:   -6.26 KCAL/MOL
REMARK 922        TOTAL FREE ENERGY PREDICTED BY IDOCK:  -12.42 KCAL/MOL
REMARK 923 INTER-LIGAND FREE ENERGY PREDICTED BY IDOCK:  -10.11 KCAL/MOL
REMARK 924 INTRA-LIGAND FREE ENERGY PREDICTED BY IDOCK:   -2.31 KCAL/MOL
REMARK 927      BINDING AFFINITY PREDICTED BY RF-SCORE:    0.00 PKD
ROOT
HETATM    1 CA   UNL     1     -12.412  13.561  69.532  1.00  0.00    -0.282 Ca 
HETATM    2  O   UNL     2     -13.525   9.283  73.191  1.00  0.00    -0.821 OA 
HETATM    3  O   UNL     3      -7.501  16.104  66.538  1.00  0.00    -0.211 OA 
HETATM    4  H   UNL     2     -13.630   9.754  74.010  1.00  0.00     0.000 HD 
HETATM    5  C   UNL     2     -13.171  10.212  72.167  1.00  0.00    -0.362 C  
HETATM    6  C   UNL     3      -8.298  16.266  67.708  1.00  0.00    -0.161 C  
HETATM    7  H   UNL     3      -7.456  16.922  66.056  1.00  0.00     0.000 HD 
ENDROOT
BRANCH   5   8
HETATM    8  C   UNL     2     -13.000   9.448  70.837  1.00  0.00    -0.068 C  
HETATM    9  O   UNL     2     -12.708  10.397  69.817  1.00  0.00    -0.563 OA 
HETATM   10  H   UNL     2     -12.603   9.927  68.998  1.00  0.00     0.000 HD 
BRANCH   8  11
HETATM   11  C   UNL     2     -11.831   8.453  70.911  1.00  0.00    -0.217 C  
HETATM   12  H   UNL     2     -10.152   8.178  71.980  1.00  0.00     0.000 HD 
HETATM   13  O   UNL     2     -10.875   8.793  71.934  1.00  0.00    -0.314 OA 
BRANCH  11  14
HETATM   14  C   UNL     2     -12.124   6.934  70.986  1.00  0.00    -0.380 C  
HETATM   15  O   UNL     2     -12.260   6.531  72.339  1.00  0.00    -0.507 OA 
HETATM   16  H   UNL     2     -12.439   5.599  72.385  1.00  0.00     0.000 HD 
BRANCH  14  17
HETATM   17  C   UNL     2     -11.280   5.991  70.107  1.00  0.00    -0.342 C  
HETATM   18  H   UNL     2     -10.958   5.804  68.190  1.00  0.00     0.000 HD 
HETATM   19  O   UNL     2     -11.479   6.386  68.732  1.00  0.00    -0.283 OA 
BRANCH  17  20
HETATM   20  C   UNL     2      -9.796   5.897  70.461  1.00  0.00    -0.183 C  
HETATM   21  O   UNL     2      -9.578   6.064  71.879  1.00  0.00    -0.152 OA 
HETATM   22  C   UNL     2      -9.299   4.491  70.020  1.00  0.00    -0.153 C  
HETATM   23  H   UNL     2      -8.656   6.005  72.098  1.00  0.00     0.000 HD 
HETATM   24  O   UNL     2      -9.767   4.100  68.918  1.00  0.00    -0.166 OA 
HETATM   25  O   UNL     2      -8.521   3.952  70.852  1.00  0.00    -0.069 OA 
ENDBRANCH  17  20
ENDBRANCH  14  17
ENDBRANCH  11  14
ENDBRANCH   8  11
ENDBRANCH   5   8
BRANCH   6  26
HETATM   26  C   UNL     3      -8.370  14.945  68.487  1.00  0.00    -0.160 C  
HETATM   27  H   UNL     3      -7.965  14.415  70.286  1.00  0.00     0.000 HD 
HETATM   28  O   UNL     3      -7.921  15.232  69.805  1.00  0.00    -0.204 OA 
BRANCH  26  29
HETATM   29  C   UNL     3      -9.786  14.313  68.445  1.00  0.00    -0.233 C  
HETATM   30  O   UNL     3     -10.403  14.414  69.804  1.00  0.00    -0.438 OA 
HETATM   31  H   UNL     3     -11.271  14.027  69.778  1.00  0.00     0.000 HD 
BRANCH  29  32
HETATM   32  C   UNL     3     -10.797  15.079  67.565  1.00  0.00    -0.297 C  
HETATM   33  H   UNL     3     -12.566  15.891  67.869  1.00  0.00     0.000 HD 
HETATM   34  O   UNL     3     -11.944  15.419  68.411  1.00  0.00    -0.301 OA 
BRANCH  32  35
HETATM   35  C   UNL     3     -11.153  14.721  66.113  1.00  0.00    -0.339 C  
HETATM   36  H   UNL     3     -10.216  14.798  64.423  1.00  0.00     0.000 HD 
HETATM   37  O   UNL     3      -9.996  15.019  65.321  1.00  0.00    -0.341 OA 
BRANCH  35  38
HETATM   38  C   UNL     3     -11.678  13.312  65.864  1.00  0.00    -0.365 C  
HETATM   39  C   UNL     3     -12.527  13.266  64.567  1.00  0.00    -0.319 C  
HETATM   40  O   UNL     3     -12.495  12.864  66.964  1.00  0.00    -0.273 OA 
HETATM   41  O   UNL     3     -12.579  14.344  63.896  1.00  0.00    -0.814 OA 
HETATM   42  O   UNL     3     -13.246  12.233  64.467  1.00  0.00    -0.799 OA 
HETATM   43  H   UNL     3     -12.822  11.986  66.809  1.00  0.00     0.000 HD 
ENDBRANCH  35  38
ENDBRANCH  32  35
ENDBRANCH  29  32
ENDBRANCH  26  29
ENDBRANCH   6  26
TORSDOF 10
ENDMDL
MODEL       95
REMARK 921   NORMALIZED FREE ENERGY PREDICTED BY IDOCK:   -6.24 KCAL/MOL
REMARK 922        TOTAL FREE ENERGY PREDICTED BY IDOCK:  -12.38 KCAL/MOL
REMARK 923 INTER-LIGAND FREE ENERGY PREDICTED BY IDOCK:  -10.58 KCAL/MOL
REMARK 924 INTRA-LIGAND FREE ENERGY PREDICTED BY IDOCK:   -1.80 KCAL/MOL
REMARK 927      BINDING AFFINITY PREDICTED BY RF-SCORE:    0.00 PKD
ROOT
HETATM    1 CA   UNL     1      -9.525  12.073  69.256  1.00  0.00    -0.351 Ca 
HETATM    2  O   UNL     2     -13.077  14.932  72.739  1.00  0.00    -0.390 OA 
HETATM    3  O   UNL     3      -9.376   6.713  65.970  1.00  0.00    -0.337 OA 
HETATM    4  H   UNL     2     -12.697  14.751  73.591  1.00  0.00     0.000 HD 
HETATM    5  C   UNL     2     -12.337  14.226  71.744  1.00  0.00    -0.281 C  
HETATM    6  C   UNL     3      -8.968   7.267  67.217  1.00  0.00    -0.123 C  
HETATM    7  H   UNL     3      -8.638   6.302  65.536  1.00  0.00     0.000 HD 
ENDROOT
BRANCH   5   8
HETATM    8  C   UNL     2     -12.954  14.520  70.360  1.00  0.00    -0.179 C  
HETATM    9  O   UNL     2     -13.735  15.706  70.468  1.00  0.00    -0.835 OA 
HETATM   10  H   UNL     2     -14.115  15.887  69.616  1.00  0.00     0.000 HD 
BRANCH   8  11
HETATM   11  C   UNL     2     -11.864  14.761  69.303  1.00  0.00    -0.318 C  
HETATM   12  H   UNL     2      -9.859  14.767  69.181  1.00  0.00     0.000 HD 
HETATM   13  O   UNL     2     -10.532  14.618  69.834  1.00  0.00    -0.083 OA 
BRANCH  11  14
HETATM   14  C   UNL     2     -11.942  14.025  67.943  1.00  0.00    -0.351 C  
HETATM   15  O   UNL     2     -11.864  12.623  68.145  1.00  0.00    -0.329 OA 
HETATM   16  H   UNL     2     -11.911  12.171  67.310  1.00  0.00     0.000 HD 
BRANCH  14  17
HETATM   17  C   UNL     2     -11.089  14.564  66.780  1.00  0.00    -0.325 C  
HETATM   18  H   UNL     2      -9.235  14.346  66.205  1.00  0.00     0.000 HD 
HETATM   19  O   UNL     2      -9.761  14.013  66.923  1.00  0.00    -0.253 OA 
BRANCH  17  20
HETATM   20  C   UNL     2     -11.649  14.335  65.376  1.00  0.00    -0.346 C  
HETATM   21  O   UNL     2     -13.004  13.837  65.423  1.00  0.00    -0.706 OA 
HETATM   22  C   UNL     2     -11.622  15.700  64.633  1.00  0.00    -0.249 C  
HETATM   23  H   UNL     2     -13.353  13.694  64.550  1.00  0.00     0.000 HD 
HETATM   24  O   UNL     2     -10.591  16.389  64.855  1.00  0.00    -0.677 OA 
HETATM   25  O   UNL     2     -12.654  15.914  63.942  1.00  0.00    -0.719 OA 
ENDBRANCH  17  20
ENDBRANCH  14  17
ENDBRANCH  11  14
ENDBRANCH   8  11
ENDBRANCH   5   8
BRANCH   6  26
HETATM   26  C   UNL     3     -10.161   7.931  67.918  1.00  0.00    -0.191 C  
HETATM   27  H   UNL     3     -11.623   9.032  67.342  1.00  0.00     0.000 HD 
HETATM   28  O   UNL     3     -10.885   8.621  66.908  1.00  0.00    -0.178 OA 
BRANCH  26  29
HETATM   29  C   UNL     3     -11.025   6.910  68.703  1.00  0.00    -0.145 C  
HETATM   30  O   UNL     3     -10.587   5.525  68.345  1.00  0.00    -0.197 OA 
HETATM   31  H   UNL     3     -11.117   4.900  68.825  1.00  0.00     0.000 HD 
BRANCH  29  32
HETATM   32  C   UNL     3     -10.811   6.939  70.232  1.00  0.00    -0.257 C  
HETATM   33  H   UNL     3      -9.698   5.918  71.496  1.00  0.00     0.000 HD 
HETATM   34  O   UNL     3      -9.830   5.900  70.556  1.00  0.00    -0.173 OA 
BRANCH  32  35
HETATM   35  C   UNL     3     -11.923   7.120  71.276  1.00  0.00    -0.337 C  
HETATM   36  H   UNL     3     -12.518   6.117  72.819  1.00  0.00     0.000 HD 
HETATM   37  O   UNL     3     -11.831   6.005  72.173  1.00  0.00    -0.312 OA 
BRANCH  35  38
HETATM   38  C   UNL     3     -11.960   8.454  72.014  1.00  0.00    -0.357 C  
HETATM   39  C   UNL     3     -13.392   9.050  71.995  1.00  0.00    -0.438 C  
HETATM   40  O   UNL     3     -11.059   9.403  71.409  1.00  0.00    -0.335 OA 
HETATM   41  O   UNL     3     -14.291   8.325  71.465  1.00  0.00    -0.433 OA 
HETATM   42  O   UNL     3     -13.436  10.275  72.296  1.00  0.00    -0.377 OA 
HETATM   43  H   UNL     3     -11.082  10.234  71.868  1.00  0.00     0.000 HD 
ENDBRANCH  35  38
ENDBRANCH  32  35
ENDBRANCH  29  32
ENDBRANCH  26  29
ENDBRANCH   6  26
TORSDOF 10
ENDMDL
MODEL       96
REMARK 921   NORMALIZED FREE ENERGY PREDICTED BY IDOCK:   -6.23 KCAL/MOL
REMARK 922        TOTAL FREE ENERGY PREDICTED BY IDOCK:  -12.38 KCAL/MOL
REMARK 923 INTER-LIGAND FREE ENERGY PREDICTED BY IDOCK:   -9.16 KCAL/MOL
REMARK 924 INTRA-LIGAND FREE ENERGY PREDICTED BY IDOCK:   -3.22 KCAL/MOL
REMARK 927      BINDING AFFINITY PREDICTED BY RF-SCORE:    0.00 PKD
ROOT
HETATM    1 CA   UNL     1     -12.090   9.758  67.955  1.00  0.00    -0.531 Ca 
HETATM    2  O   UNL     2     -13.695  12.584  72.684  1.00  0.00    -0.601 OA 
HETATM    3  O   UNL     3      -6.830   7.653  65.226  1.00  0.00    -0.047 OA 
HETATM    4  H   UNL     2     -13.862  13.455  72.340  1.00  0.00     0.000 HD 
HETATM    5  C   UNL     2     -13.213  11.755  71.628  1.00  0.00    -0.266 C  
HETATM    6  C   UNL     3      -7.730   8.757  65.207  1.00  0.00    -0.098 C  
HETATM    7  H   UNL     3      -6.711   7.311  64.348  1.00  0.00     0.000 HD 
ENDROOT
BRANCH   5   8
HETATM    8  C   UNL     2     -12.941  10.342  72.186  1.00  0.00    -0.292 C  
HETATM    9  O   UNL     2     -14.177   9.804  72.645  1.00  0.00    -0.599 OA 
HETATM   10  H   UNL     2     -14.010   8.934  72.989  1.00  0.00     0.000 HD 
BRANCH   8  11
HETATM   11  C   UNL     2     -12.390   9.408  71.097  1.00  0.00    -0.308 C  
HETATM   12  H   UNL     2     -10.977   9.429  69.669  1.00  0.00     0.000 HD 
HETATM   13  O   UNL     2     -11.318  10.006  70.342  1.00  0.00    -0.273 OA 
BRANCH  11  14
HETATM   14  C   UNL     2     -11.993   7.957  71.464  1.00  0.00    -0.301 C  
HETATM   15  O   UNL     2     -12.892   7.436  72.429  1.00  0.00    -0.502 OA 
HETATM   16  H   UNL     2     -12.648   6.545  72.655  1.00  0.00     0.000 HD 
BRANCH  14  17
HETATM   17  C   UNL     2     -10.505   7.661  71.733  1.00  0.00    -0.205 C  
HETATM   18  H   UNL     2      -9.354   7.673  73.312  1.00  0.00     0.000 HD 
HETATM   19  O   UNL     2     -10.272   7.856  73.146  1.00  0.00    -0.312 OA 
BRANCH  17  20
HETATM   20  C   UNL     2      -9.997   6.300  71.258  1.00  0.00    -0.180 C  
HETATM   21  O   UNL     2     -10.903   5.238  71.629  1.00  0.00    -0.203 OA 
HETATM   22  C   UNL     2      -9.874   6.362  69.709  1.00  0.00    -0.165 C  
HETATM   23  H   UNL     2     -10.586   4.392  71.333  1.00  0.00     0.000 HD 
HETATM   24  O   UNL     2      -9.424   7.453  69.270  1.00  0.00    -0.154 OA 
HETATM   25  O   UNL     2     -10.270   5.313  69.134  1.00  0.00    -0.205 OA 
ENDBRANCH  17  20
ENDBRANCH  14  17
ENDBRANCH  11  14
ENDBRANCH   8  11
ENDBRANCH   5   8
BRANCH   6  26
HETATM   26  C   UNL     3      -7.921   9.309  66.627  1.00  0.00    -0.108 C  
HETATM   27  H   UNL     3      -6.925  10.497  67.759  1.00  0.00     0.000 HD 
HETATM   28  O   UNL     3      -6.807  10.155  66.881  1.00  0.00    -0.081 OA 
BRANCH  26  29
HETATM   29  C   UNL     3      -9.287  10.024  66.802  1.00  0.00    -0.160 C  
HETATM   30  O   UNL     3      -9.474  10.368  68.245  1.00  0.00    -0.143 OA 
HETATM   31  H   UNL     3     -10.311  10.806  68.351  1.00  0.00     0.000 HD 
BRANCH  29  32
HETATM   32  C   UNL     3      -9.372  11.406  66.117  1.00  0.00    -0.215 C  
HETATM   33  H   UNL     3      -9.335  13.271  66.750  1.00  0.00     0.000 HD 
HETATM   34  O   UNL     3      -9.283  12.421  67.171  1.00  0.00    -0.186 OA 
BRANCH  32  35
HETATM   35  C   UNL     3     -10.318  11.762  64.960  1.00  0.00    -0.281 C  
HETATM   36  H   UNL     3     -10.826  10.903  63.304  1.00  0.00     0.000 HD 
HETATM   37  O   UNL     3     -10.240  10.683  64.019  1.00  0.00    -0.341 OA 
BRANCH  35  38
HETATM   38  C   UNL     3     -11.756  12.104  65.332  1.00  0.00    -0.321 C  
HETATM   39  C   UNL     3     -12.079  13.576  64.968  1.00  0.00    -0.397 C  
HETATM   40  O   UNL     3     -11.982  11.919  66.743  1.00  0.00    -0.613 OA 
HETATM   41  O   UNL     3     -11.162  14.216  64.364  1.00  0.00    -0.356 OA 
HETATM   42  O   UNL     3     -13.121  14.020  65.526  1.00  0.00    -0.713 OA 
HETATM   43  H   UNL     3     -12.878  12.132  66.975  1.00  0.00     0.000 HD 
ENDBRANCH  35  38
ENDBRANCH  32  35
ENDBRANCH  29  32
ENDBRANCH  26  29
ENDBRANCH   6  26
TORSDOF 10
ENDMDL
MODEL       97
REMARK 921   NORMALIZED FREE ENERGY PREDICTED BY IDOCK:   -6.23 KCAL/MOL
REMARK 922        TOTAL FREE ENERGY PREDICTED BY IDOCK:  -12.36 KCAL/MOL
REMARK 923 INTER-LIGAND FREE ENERGY PREDICTED BY IDOCK:   -9.17 KCAL/MOL
REMARK 924 INTRA-LIGAND FREE ENERGY PREDICTED BY IDOCK:   -3.20 KCAL/MOL
REMARK 927      BINDING AFFINITY PREDICTED BY RF-SCORE:    0.00 PKD
ROOT
HETATM    1 CA   UNL     1     -12.215  10.580  67.769  1.00  0.00    -0.306 Ca 
HETATM    2  O   UNL     2     -12.463  14.013  63.177  1.00  0.00    -1.137 OA 
HETATM    3  O   UNL     3      -7.914   7.562  71.226  1.00  0.00    -0.093 OA 
HETATM    4  H   UNL     2     -12.756  13.410  62.503  1.00  0.00     0.000 HD 
HETATM    5  C   UNL     2     -12.282  13.291  64.395  1.00  0.00    -0.390 C  
HETATM    6  C   UNL     3      -8.820   7.356  70.145  1.00  0.00    -0.147 C  
HETATM    7  H   UNL     3      -8.047   6.901  71.895  1.00  0.00     0.000 HD 
ENDROOT
BRANCH   5   8
HETATM    8  C   UNL     2     -11.807  14.269  65.490  1.00  0.00    -0.363 C  
HETATM    9  O   UNL     2     -11.010  13.540  66.418  1.00  0.00    -0.291 OA 
HETATM   10  H   UNL     2     -10.718  14.142  67.092  1.00  0.00     0.000 HD 
BRANCH   8  11
HETATM   11  C   UNL     2     -10.940  15.392  64.897  1.00  0.00    -0.437 C  
HETATM   12  H   UNL     2     -11.180  17.071  63.820  1.00  0.00     0.000 HD 
HETATM   13  O   UNL     2     -11.716  16.377  64.186  1.00  0.00    -0.921 OA 
BRANCH  11  14
HETATM   14  C   UNL     2      -9.912  16.120  65.797  1.00  0.00    -0.340 C  
HETATM   15  O   UNL     2      -8.918  15.209  66.237  1.00  0.00    -0.358 OA 
HETATM   16  H   UNL     2      -8.288  15.656  66.789  1.00  0.00     0.000 HD 
BRANCH  14  17
HETATM   17  C   UNL     2     -10.449  17.072  66.883  1.00  0.00    -0.268 C  
HETATM   18  H   UNL     2     -11.084  16.861  68.718  1.00  0.00     0.000 HD 
HETATM   19  O   UNL     2     -10.752  16.274  68.049  1.00  0.00    -0.308 OA 
BRANCH  17  20
HETATM   20  C   UNL     2      -9.557  18.264  67.229  1.00  0.00    -0.281 C  
HETATM   21  O   UNL     2      -8.181  17.863  67.402  1.00  0.00    -0.216 OA 
HETATM   22  C   UNL     2      -9.660  19.280  66.056  1.00  0.00    -0.194 C  
HETATM   23  H   UNL     2      -7.627  18.604  67.617  1.00  0.00     0.000 HD 
HETATM   24  O   UNL     2     -10.820  19.407  65.582  1.00  0.00    -0.442 OA 
HETATM   25  O   UNL     2      -8.554  19.801  65.748  1.00  0.00    -0.377 OA 
ENDBRANCH  17  20
ENDBRANCH  14  17
ENDBRANCH  11  14
ENDBRANCH   8  11
ENDBRANCH   5   8
BRANCH   6  26
HETATM   26  C   UNL     3      -8.606   8.424  69.063  1.00  0.00    -0.131 C  
HETATM   27  H   UNL     3      -9.082   8.583  67.211  1.00  0.00     0.000 HD 
HETATM   28  O   UNL     3      -9.214   7.922  67.880  1.00  0.00    -0.135 OA 
BRANCH  26  29
HETATM   29  C   UNL     3      -9.150   9.812  69.491  1.00  0.00    -0.216 C  
HETATM   30  O   UNL     3      -8.207  10.420  70.480  1.00  0.00    -0.303 OA 
HETATM   31  H   UNL     3      -8.541  11.271  70.741  1.00  0.00     0.000 HD 
BRANCH  29  32
HETATM   32  C   UNL     3      -9.167  10.863  68.360  1.00  0.00    -0.168 C  
HETATM   33  H   UNL     3     -10.317  12.398  67.909  1.00  0.00     0.000 HD 
HETATM   34  O   UNL     3     -10.307  11.751  68.605  1.00  0.00    -0.215 OA 
BRANCH  32  35
HETATM   35  C   UNL     3      -8.889  10.570  66.877  1.00  0.00    -0.137 C  
HETATM   36  H   UNL     3      -9.982  10.440  65.287  1.00  0.00     0.000 HD 
HETATM   37  O   UNL     3     -10.154  10.621  66.204  1.00  0.00    -0.231 OA 
BRANCH  35  38
HETATM   38  C   UNL     3      -7.834  11.433  66.194  1.00  0.00     0.048 C  
HETATM   39  C   UNL     3      -6.487  10.671  66.091  1.00  0.00    -0.131 C  
HETATM   40  O   UNL     3      -7.615  12.655  66.927  1.00  0.00    -0.373 OA 
HETATM   41  O   UNL     3      -6.495   9.466  66.496  1.00  0.00    -0.065 OA 
HETATM   42  O   UNL     3      -5.500  11.415  65.836  1.00  0.00    -0.243 OA 
HETATM   43  H   UNL     3      -6.957  13.193  66.501  1.00  0.00     0.000 HD 
ENDBRANCH  35  38
ENDBRANCH  32  35
ENDBRANCH  29  32
ENDBRANCH  26  29
ENDBRANCH   6  26
TORSDOF 10
ENDMDL
MODEL       98
REMARK 921   NORMALIZED FREE ENERGY PREDICTED BY IDOCK:   -6.22 KCAL/MOL
REMARK 922        TOTAL FREE ENERGY PREDICTED BY IDOCK:  -12.35 KCAL/MOL
REMARK 923 INTER-LIGAND FREE ENERGY PREDICTED BY IDOCK:  -10.38 KCAL/MOL
REMARK 924 INTRA-LIGAND FREE ENERGY PREDICTED BY IDOCK:   -1.97 KCAL/MOL
REMARK 927      BINDING AFFINITY PREDICTED BY RF-SCORE:    0.00 PKD
ROOT
HETATM    1 CA   UNL     1     -11.630   8.163  67.861  1.00  0.00    -0.443 Ca 
HETATM    2  O   UNL     2     -14.349   8.803  72.872  1.00  0.00    -1.023 OA 
HETATM    3  O   UNL     3      -9.037  11.717  63.366  1.00  0.00    -0.497 OA 
HETATM    4  H   UNL     2     -15.252   8.647  72.622  1.00  0.00     0.000 HD 
HETATM    5  C   UNL     2     -13.530   8.746  71.706  1.00  0.00    -0.393 C  
HETATM    6  C   UNL     3     -10.247  11.037  63.690  1.00  0.00    -0.372 C  
HETATM    7  H   UNL     3      -8.737  11.458  62.503  1.00  0.00     0.000 HD 
ENDROOT
BRANCH   5   8
HETATM    8  C   UNL     2     -12.063   9.000  72.112  1.00  0.00    -0.342 C  
HETATM    9  O   UNL     2     -11.662   7.957  72.994  1.00  0.00    -0.604 OA 
HETATM   10  H   UNL     2     -10.758   8.113  73.244  1.00  0.00     0.000 HD 
BRANCH   8  11
HETATM   11  C   UNL     2     -11.132   8.975  70.889  1.00  0.00    -0.280 C  
HETATM   12  H   UNL     2     -10.300  10.276  69.603  1.00  0.00     0.000 HD 
HETATM   13  O   UNL     2     -10.875  10.291  70.359  1.00  0.00    -0.294 OA 
BRANCH  11  14
HETATM   14  C   UNL     2      -9.796   8.196  70.961  1.00  0.00    -0.179 C  
HETATM   15  O   UNL     2      -8.974   8.733  71.986  1.00  0.00    -0.304 OA 
HETATM   16  H   UNL     2      -8.154   8.255  72.030  1.00  0.00     0.000 HD 
BRANCH  14  17
HETATM   17  C   UNL     2      -9.069   7.885  69.639  1.00  0.00    -0.153 C  
HETATM   18  H   UNL     2      -7.671   8.757  68.589  1.00  0.00     0.000 HD 
HETATM   19  O   UNL     2      -8.120   8.949  69.405  1.00  0.00    -0.100 OA 
BRANCH  17  20
HETATM   20  C   UNL     2      -8.412   6.508  69.545  1.00  0.00    -0.131 C  
HETATM   21  O   UNL     2      -8.032   6.013  70.847  1.00  0.00    -0.110 OA 
HETATM   22  C   UNL     2      -9.444   5.541  68.901  1.00  0.00    -0.129 C  
HETATM   23  H   UNL     2      -7.623   5.157  70.788  1.00  0.00     0.000 HD 
HETATM   24  O   UNL     2     -10.111   6.048  67.960  1.00  0.00    -0.136 OA 
HETATM   25  O   UNL     2      -9.469   4.403  69.442  1.00  0.00    -0.147 OA 
ENDBRANCH  17  20
ENDBRANCH  14  17
ENDBRANCH  11  14
ENDBRANCH   8  11
ENDBRANCH   5   8
BRANCH   6  26
HETATM   26  C   UNL     3     -10.732  11.455  65.085  1.00  0.00    -0.269 C  
HETATM   27  H   UNL     3     -10.079  11.207  66.873  1.00  0.00     0.000 HD 
HETATM   28  O   UNL     3      -9.778  10.948  66.010  1.00  0.00    -0.206 OA 
BRANCH  26  29
HETATM   29  C   UNL     3     -10.943  12.988  65.200  1.00  0.00    -0.295 C  
HETATM   30  O   UNL     3     -11.309  13.530  63.855  1.00  0.00    -0.571 OA 
HETATM   31  H   UNL     3     -11.437  14.469  63.925  1.00  0.00     0.000 HD 
BRANCH  29  32
HETATM   32  C   UNL     3     -12.155  13.399  66.063  1.00  0.00    -0.438 C  
HETATM   33  H   UNL     3     -13.807  14.421  65.738  1.00  0.00     0.000 HD 
HETATM   34  O   UNL     3     -13.061  14.168  65.206  1.00  0.00    -0.763 OA 
BRANCH  32  35
HETATM   35  C   UNL     3     -12.078  13.888  67.518  1.00  0.00    -0.331 C  
HETATM   36  H   UNL     3     -11.949  13.019  69.241  1.00  0.00     0.000 HD 
HETATM   37  O   UNL     3     -11.997  12.717  68.341  1.00  0.00    -0.317 OA 
BRANCH  35  38
HETATM   38  C   UNL     3     -10.986  14.901  67.844  1.00  0.00    -0.286 C  
HETATM   39  C   UNL     3     -11.296  15.630  69.177  1.00  0.00    -0.338 C  
HETATM   40  O   UNL     3     -10.868  15.886  66.798  1.00  0.00    -0.309 OA 
HETATM   41  O   UNL     3     -12.324  15.227  69.807  1.00  0.00    -0.311 OA 
HETATM   42  O   UNL     3     -10.625  16.685  69.347  1.00  0.00    -0.312 OA 
HETATM   43  H   UNL     3     -10.187  16.517  67.001  1.00  0.00     0.000 HD 
ENDBRANCH  35  38
ENDBRANCH  32  35
ENDBRANCH  29  32
ENDBRANCH  26  29
ENDBRANCH   6  26
TORSDOF 10
ENDMDL
MODEL       99
REMARK 921   NORMALIZED FREE ENERGY PREDICTED BY IDOCK:   -6.21 KCAL/MOL
REMARK 922        TOTAL FREE ENERGY PREDICTED BY IDOCK:  -12.35 KCAL/MOL
REMARK 923 INTER-LIGAND FREE ENERGY PREDICTED BY IDOCK:   -9.20 KCAL/MOL
REMARK 924 INTRA-LIGAND FREE ENERGY PREDICTED BY IDOCK:   -3.14 KCAL/MOL
REMARK 927      BINDING AFFINITY PREDICTED BY RF-SCORE:    0.00 PKD
ROOT
HETATM    1 CA   UNL     1      -9.579  11.977  69.329  1.00  0.00    -0.350 Ca 
HETATM    2  O   UNL     2     -13.063  15.346  72.402  1.00  0.00    -0.343 OA 
HETATM    3  O   UNL     3      -9.796   6.567  66.130  1.00  0.00    -0.389 OA 
HETATM    4  H   UNL     2     -12.797  15.137  73.290  1.00  0.00     0.000 HD 
HETATM    5  C   UNL     2     -12.325  14.528  71.495  1.00  0.00    -0.361 C  
HETATM    6  C   UNL     3      -9.446   7.094  67.407  1.00  0.00    -0.131 C  
HETATM    7  H   UNL     3      -9.078   6.055  65.778  1.00  0.00     0.000 HD 
ENDROOT
BRANCH   5   8
HETATM    8  C   UNL     2     -12.757  14.866  70.053  1.00  0.00    -0.153 C  
HETATM    9  O   UNL     2     -12.705  16.280  69.896  1.00  0.00    -0.435 OA 
HETATM   10  H   UNL     2     -12.971  16.489  69.008  1.00  0.00     0.000 HD 
BRANCH   8  11
HETATM   11  C   UNL     2     -11.805  14.237  69.022  1.00  0.00    -0.335 C  
HETATM   12  H   UNL     2     -11.515  12.462  68.127  1.00  0.00     0.000 HD 
HETATM   13  O   UNL     2     -12.103  12.851  68.764  1.00  0.00    -0.280 OA 
BRANCH  11  14
HETATM   14  C   UNL     2     -11.556  14.955  67.673  1.00  0.00    -0.339 C  
HETATM   15  O   UNL     2     -12.344  14.360  66.654  1.00  0.00    -0.506 OA 
HETATM   16  H   UNL     2     -12.191  14.801  65.826  1.00  0.00     0.000 HD 
BRANCH  14  17
HETATM   17  C   UNL     2     -10.100  15.261  67.275  1.00  0.00    -0.236 C  
HETATM   18  H   UNL     2      -8.415  14.276  67.324  1.00  0.00     0.000 HD 
HETATM   19  O   UNL     2      -9.313  14.086  67.569  1.00  0.00    -0.197 OA 
BRANCH  17  20
HETATM   20  C   UNL     2      -9.885  15.744  65.841  1.00  0.00    -0.349 C  
HETATM   21  O   UNL     2     -10.496  14.849  64.885  1.00  0.00    -0.421 OA 
HETATM   22  C   UNL     2     -10.529  17.153  65.720  1.00  0.00    -0.233 C  
HETATM   23  H   UNL     2     -10.362  15.149  63.993  1.00  0.00     0.000 HD 
HETATM   24  O   UNL     2     -10.350  17.891  66.725  1.00  0.00    -0.345 OA 
HETATM   25  O   UNL     2     -11.154  17.327  64.639  1.00  0.00    -1.052 OA 
ENDBRANCH  17  20
ENDBRANCH  14  17
ENDBRANCH  11  14
ENDBRANCH   8  11
ENDBRANCH   5   8
BRANCH   6  26
HETATM   26  C   UNL     3     -10.608   7.921  67.976  1.00  0.00    -0.132 C  
HETATM   27  H   UNL     3     -11.270   8.283  69.740  1.00  0.00     0.000 HD 
HETATM   28  O   UNL     3     -10.551   7.771  69.388  1.00  0.00    -0.224 OA 
BRANCH  26  29
HETATM   29  C   UNL     3     -10.558   9.401  67.513  1.00  0.00    -0.267 C  
HETATM   30  O   UNL     3     -10.980  10.279  68.647  1.00  0.00    -0.226 OA 
HETATM   31  H   UNL     3     -10.950  11.185  68.364  1.00  0.00     0.000 HD 
BRANCH  29  32
HETATM   32  C   UNL     3      -9.138   9.921  67.202  1.00  0.00    -0.138 C  
HETATM   33  H   UNL     3      -7.579  10.434  68.293  1.00  0.00     0.000 HD 
HETATM   34  O   UNL     3      -8.453  10.115  68.484  1.00  0.00    -0.113 OA 
BRANCH  32  35
HETATM   35  C   UNL     3      -8.794  10.963  66.127  1.00  0.00    -0.186 C  
HETATM   36  H   UNL     3      -7.166  11.824  65.536  1.00  0.00     0.000 HD 
HETATM   37  O   UNL     3      -7.379  11.179  66.201  1.00  0.00    -0.107 OA 
BRANCH  35  38
HETATM   38  C   UNL     3      -9.260  10.662  64.707  1.00  0.00    -0.220 C  
HETATM   39  C   UNL     3     -10.573  11.424  64.389  1.00  0.00    -0.341 C  
HETATM   40  O   UNL     3      -9.495   9.251  64.530  1.00  0.00    -0.426 OA 
HETATM   41  O   UNL     3     -10.992  12.215  65.292  1.00  0.00    -0.288 OA 
HETATM   42  O   UNL     3     -11.181  10.987  63.373  1.00  0.00    -0.077 OA 
HETATM   43  H   UNL     3      -9.785   9.063  63.645  1.00  0.00     0.000 HD 
ENDBRANCH  35  38
ENDBRANCH  32  35
ENDBRANCH  29  32
ENDBRANCH  26  29
ENDBRANCH   6  26
TORSDOF 10
ENDMDL
MODEL      100
REMARK 921   NORMALIZED FREE ENERGY PREDICTED BY IDOCK:   -6.20 KCAL/MOL
REMARK 922        TOTAL FREE ENERGY PREDICTED BY IDOCK:  -12.33 KCAL/MOL
REMARK 923 INTER-LIGAND FREE ENERGY PREDICTED BY IDOCK:   -9.93 KCAL/MOL
REMARK 924 INTRA-LIGAND FREE ENERGY PREDICTED BY IDOCK:   -2.41 KCAL/MOL
REMARK 927      BINDING AFFINITY PREDICTED BY RF-SCORE:    0.00 PKD
ROOT
HETATM    1 CA   UNL     1      -9.819  10.731  70.288  1.00  0.00    -0.376 Ca 
HETATM    2  O   UNL     2     -14.101  13.688  72.704  1.00  0.00    -0.746 OA 
HETATM    3  O   UNL     3      -8.910   6.663  65.578  1.00  0.00    -0.319 OA 
HETATM    4  H   UNL     2     -14.268  13.178  73.489  1.00  0.00     0.000 HD 
HETATM    5  C   UNL     2     -13.087  13.039  71.939  1.00  0.00    -0.384 C  
HETATM    6  C   UNL     3      -9.131   6.708  66.985  1.00  0.00    -0.130 C  
HETATM    7  H   UNL     3      -8.141   6.141  65.383  1.00  0.00     0.000 HD 
ENDROOT
BRANCH   5   8
HETATM    8  C   UNL     2     -12.816  13.868  70.665  1.00  0.00    -0.222 C  
HETATM    9  O   UNL     2     -12.280  15.126  71.061  1.00  0.00    -0.284 OA 
HETATM   10  H   UNL     2     -12.114  15.636  70.277  1.00  0.00     0.000 HD 
BRANCH   8  11
HETATM   11  C   UNL     2     -11.786  13.176  69.757  1.00  0.00    -0.316 C  
HETATM   12  H   UNL     2     -11.347  11.322  69.117  1.00  0.00     0.000 HD 
HETATM   13  O   UNL     2     -11.983  11.750  69.678  1.00  0.00    -0.306 OA 
BRANCH  11  14
HETATM   14  C   UNL     2     -11.532  13.724  68.332  1.00  0.00    -0.316 C  
HETATM   15  O   UNL     2     -12.654  14.473  67.892  1.00  0.00    -0.489 OA 
HETATM   16  H   UNL     2     -12.498  14.810  67.018  1.00  0.00     0.000 HD 
BRANCH  14  17
HETATM   17  C   UNL     2     -10.939  12.765  67.283  1.00  0.00    -0.262 C  
HETATM   18  H   UNL     2     -11.649  11.343  66.148  1.00  0.00     0.000 HD 
HETATM   19  O   UNL     2     -12.016  11.935  66.795  1.00  0.00    -0.613 OA 
BRANCH  17  20
HETATM   20  C   UNL     2     -10.164  13.419  66.139  1.00  0.00    -0.301 C  
HETATM   21  O   UNL     2     -10.977  14.383  65.434  1.00  0.00    -0.309 OA 
HETATM   22  C   UNL     2      -8.930  14.133  66.759  1.00  0.00    -0.208 C  
HETATM   23  H   UNL     2     -10.495  14.789  64.723  1.00  0.00     0.000 HD 
HETATM   24  O   UNL     2      -8.370  13.488  67.684  1.00  0.00    -0.153 OA 
HETATM   25  O   UNL     2      -8.699  15.263  66.251  1.00  0.00    -0.283 OA 
ENDBRANCH  17  20
ENDBRANCH  14  17
ENDBRANCH  11  14
ENDBRANCH   8  11
ENDBRANCH   5   8
BRANCH   6  26
HETATM   26  C   UNL     3     -10.374   7.552  67.299  1.00  0.00    -0.296 C  
HETATM   27  H   UNL     3     -12.204   7.154  67.720  1.00  0.00     0.000 HD 
HETATM   28  O   UNL     3     -11.435   6.632  67.525  1.00  0.00    -0.161 OA 
BRANCH  26  29
HETATM   29  C   UNL     3     -10.142   8.523  68.487  1.00  0.00    -0.194 C  
HETATM   30  O   UNL     3     -11.254   9.522  68.523  1.00  0.00    -0.478 OA 
HETATM   31  H   UNL     3     -11.111  10.116  69.250  1.00  0.00     0.000 HD 
BRANCH  29  32
HETATM   32  C   UNL     3     -10.246   7.860  69.878  1.00  0.00    -0.210 C  
HETATM   33  H   UNL     3      -9.219   6.480  70.837  1.00  0.00     0.000 HD 
HETATM   34  O   UNL     3      -9.156   6.887  69.981  1.00  0.00    -0.145 OA 
BRANCH  32  35
HETATM   35  C   UNL     3     -11.556   7.431  70.556  1.00  0.00    -0.229 C  
HETATM   36  H   UNL     3     -12.205   5.790  71.348  1.00  0.00     0.000 HD 
HETATM   37  O   UNL     3     -11.395   6.056  70.928  1.00  0.00    -0.300 OA 
BRANCH  35  38
HETATM   38  C   UNL     3     -12.040   8.292  71.718  1.00  0.00    -0.319 C  
HETATM   39  C   UNL     3     -13.580   8.181  71.875  1.00  0.00    -0.330 C  
HETATM   40  O   UNL     3     -11.698   9.676  71.511  1.00  0.00    -0.371 OA 
HETATM   41  O   UNL     3     -14.163   7.359  71.100  1.00  0.00    -0.360 OA 
HETATM   42  O   UNL     3     -14.083   9.091  72.590  1.00  0.00    -0.516 OA 
HETATM   43  H   UNL     3     -12.000  10.213  72.235  1.00  0.00     0.000 HD 
ENDBRANCH  35  38
ENDBRANCH  32  35
ENDBRANCH  29  32
ENDBRANCH  26  29
ENDBRANCH   6  26
TORSDOF 10
ENDMDL
MODEL      101
REMARK 921   NORMALIZED FREE ENERGY PREDICTED BY IDOCK:   -6.20 KCAL/MOL
REMARK 922        TOTAL FREE ENERGY PREDICTED BY IDOCK:  -12.33 KCAL/MOL
REMARK 923 INTER-LIGAND FREE ENERGY PREDICTED BY IDOCK:   -8.83 KCAL/MOL
REMARK 924 INTRA-LIGAND FREE ENERGY PREDICTED BY IDOCK:   -3.50 KCAL/MOL
REMARK 927      BINDING AFFINITY PREDICTED BY RF-SCORE:    0.00 PKD
ROOT
HETATM    1 CA   UNL     1      -7.138  13.082  66.564  1.00  0.00    -0.363 Ca 
HETATM    2  O   UNL     2      -9.002   7.936  64.842  1.00  0.00    -0.371 OA 
HETATM    3  O   UNL     3      -9.482  18.624  68.393  1.00  0.00    -0.314 OA 
HETATM    4  H   UNL     2      -8.862   7.985  63.903  1.00  0.00     0.000 HD 
HETATM    5  C   UNL     2      -8.645   9.186  65.428  1.00  0.00    -0.169 C  
HETATM    6  C   UNL     3      -8.972  17.954  67.243  1.00  0.00    -0.250 C  
HETATM    7  H   UNL     3      -9.028  19.449  68.520  1.00  0.00     0.000 HD 
ENDROOT
BRANCH   5   8
HETATM    8  C   UNL     2      -8.873   9.106  66.953  1.00  0.00    -0.123 C  
HETATM    9  O   UNL     2      -8.455  10.339  67.528  1.00  0.00    -0.118 OA 
HETATM   10  H   UNL     2      -8.595  10.290  68.466  1.00  0.00     0.000 HD 
BRANCH   8  11
HETATM   11  C   UNL     2     -10.360   8.905  67.285  1.00  0.00    -0.280 C  
HETATM   12  H   UNL     2     -11.745   7.453  67.180  1.00  0.00     0.000 HD 
HETATM   13  O   UNL     2     -10.825   7.577  66.974  1.00  0.00    -0.348 OA 
BRANCH  11  14
HETATM   14  C   UNL     2     -10.892   9.307  68.683  1.00  0.00    -0.078 C  
HETATM   15  O   UNL     2     -11.102  10.709  68.739  1.00  0.00    -0.229 OA 
HETATM   16  H   UNL     2     -11.428  10.955  69.597  1.00  0.00     0.000 HD 
BRANCH  14  17
HETATM   17  C   UNL     2     -10.203   8.701  69.920  1.00  0.00    -0.203 C  
HETATM   18  H   UNL     2      -8.677   9.194  71.035  1.00  0.00     0.000 HD 
HETATM   19  O   UNL     2      -9.102   9.568  70.271  1.00  0.00    -0.225 OA 
BRANCH  17  20
HETATM   20  C   UNL     2     -11.107   8.419  71.119  1.00  0.00    -0.256 C  
HETATM   21  O   UNL     2     -12.035   9.502  71.348  1.00  0.00    -0.331 OA 
HETATM   22  C   UNL     2     -11.896   7.114  70.814  1.00  0.00    -0.325 C  
HETATM   23  H   UNL     2     -12.597   9.326  72.094  1.00  0.00     0.000 HD 
HETATM   24  O   UNL     2     -11.215   6.220  70.244  1.00  0.00    -0.333 OA 
HETATM   25  O   UNL     2     -13.105   7.166  71.164  1.00  0.00    -0.361 OA 
ENDBRANCH  17  20
ENDBRANCH  14  17
ENDBRANCH  11  14
ENDBRANCH   8  11
ENDBRANCH   5   8
BRANCH   6  26
HETATM   26  C   UNL     3      -9.706  16.621  67.038  1.00  0.00    -0.249 C  
HETATM   27  H   UNL     3     -10.238  15.595  65.506  1.00  0.00     0.000 HD 
HETATM   28  O   UNL     3      -9.784  16.419  65.633  1.00  0.00    -0.492 OA 
BRANCH  26  29
HETATM   29  C   UNL     3      -9.019  15.450  67.789  1.00  0.00    -0.173 C  
HETATM   30  O   UNL     3      -8.334  15.987  69.004  1.00  0.00    -0.217 OA 
HETATM   31  H   UNL     3      -7.913  15.269  69.464  1.00  0.00     0.000 HD 
BRANCH  29  32
HETATM   32  C   UNL     3     -10.000  14.419  68.389  1.00  0.00    -0.241 C  
HETATM   33  H   UNL     3     -10.254  12.475  68.203  1.00  0.00     0.000 HD 
HETATM   34  O   UNL     3      -9.651  13.109  67.833  1.00  0.00    -0.204 OA 
BRANCH  32  35
HETATM   35  C   UNL     3     -11.505  14.649  68.597  1.00  0.00    -0.300 C  
HETATM   36  H   UNL     3     -13.101  14.194  67.605  1.00  0.00     0.000 HD 
HETATM   37  O   UNL     3     -12.171  14.052  67.476  1.00  0.00    -0.366 OA 
BRANCH  35  38
HETATM   38  C   UNL     3     -12.090  14.191  69.929  1.00  0.00    -0.347 C  
HETATM   39  C   UNL     3     -11.785  15.225  71.044  1.00  0.00    -0.348 C  
HETATM   40  O   UNL     3     -11.543  12.917  70.321  1.00  0.00    -0.526 OA 
HETATM   41  O   UNL     3     -11.195  16.288  70.674  1.00  0.00    -0.371 OA 
HETATM   42  O   UNL     3     -11.951  14.776  72.212  1.00  0.00    -0.321 OA 
HETATM   43  H   UNL     3     -11.908  12.631  71.151  1.00  0.00     0.000 HD 
ENDBRANCH  35  38
ENDBRANCH  32  35
ENDBRANCH  29  32
ENDBRANCH  26  29
ENDBRANCH   6  26
TORSDOF 10
ENDMDL
MODEL      102
REMARK 921   NORMALIZED FREE ENERGY PREDICTED BY IDOCK:   -6.19 KCAL/MOL
REMARK 922        TOTAL FREE ENERGY PREDICTED BY IDOCK:  -12.31 KCAL/MOL
REMARK 923 INTER-LIGAND FREE ENERGY PREDICTED BY IDOCK:   -9.59 KCAL/MOL
REMARK 924 INTRA-LIGAND FREE ENERGY PREDICTED BY IDOCK:   -2.72 KCAL/MOL
REMARK 927      BINDING AFFINITY PREDICTED BY RF-SCORE:    0.00 PKD
ROOT
HETATM    1 CA   UNL     1      -5.649  13.265  67.661  1.00  0.00    -0.078 Ca 
HETATM    2  O   UNL     2      -5.335  18.111  70.718  1.00  0.00    -0.256 OA 
HETATM    3  O   UNL     3      -9.945   9.028  65.888  1.00  0.00    -0.413 OA 
HETATM    4  H   UNL     2      -4.952  17.800  71.530  1.00  0.00     0.000 HD 
HETATM    5  C   UNL     2      -5.546  16.996  69.852  1.00  0.00    -0.216 C  
HETATM    6  C   UNL     3      -8.953   9.259  66.884  1.00  0.00    -0.130 C  
HETATM    7  H   UNL     3      -9.811   8.179  65.483  1.00  0.00     0.000 HD 
ENDROOT
BRANCH   5   8
HETATM    8  C   UNL     2      -6.168  17.500  68.533  1.00  0.00    -0.176 C  
HETATM    9  O   UNL     2      -6.871  16.417  67.934  1.00  0.00    -0.126 OA 
HETATM   10  H   UNL     2      -7.254  16.727  67.121  1.00  0.00     0.000 HD 
BRANCH   8  11
HETATM   11  C   UNL     2      -7.171  18.637  68.786  1.00  0.00    -0.305 C  
HETATM   12  H   UNL     2      -7.157  20.631  69.032  1.00  0.00     0.000 HD 
HETATM   13  O   UNL     2      -6.537  19.929  68.875  1.00  0.00    -0.297 OA 
BRANCH  11  14
HETATM   14  C   UNL     2      -8.430  18.760  67.893  1.00  0.00    -0.292 C  
HETATM   15  O   UNL     2      -8.309  19.882  67.033  1.00  0.00    -0.294 OA 
HETATM   16  H   UNL     2      -9.082  19.957  66.485  1.00  0.00     0.000 HD 
BRANCH  14  17
HETATM   17  C   UNL     2      -9.809  18.596  68.560  1.00  0.00    -0.386 C  
HETATM   18  H   UNL     2     -11.239  19.813  69.100  1.00  0.00     0.000 HD 
HETATM   19  O   UNL     2     -10.388  19.914  68.687  1.00  0.00    -0.446 OA 
BRANCH  17  20
HETATM   20  C   UNL     2     -10.768  17.618  67.884  1.00  0.00    -0.337 C  
HETATM   21  O   UNL     2     -10.417  17.404  66.499  1.00  0.00    -0.321 OA 
HETATM   22  C   UNL     2     -10.684  16.271  68.656  1.00  0.00    -0.309 C  
HETATM   23  H   UNL     2     -11.013  16.796  66.079  1.00  0.00     0.000 HD 
HETATM   24  O   UNL     2     -10.602  16.397  69.907  1.00  0.00    -0.298 OA 
HETATM   25  O   UNL     2     -10.685  15.261  67.902  1.00  0.00    -0.261 OA 
ENDBRANCH  17  20
ENDBRANCH  14  17
ENDBRANCH  11  14
ENDBRANCH   8  11
ENDBRANCH   5   8
BRANCH   6  26
HETATM   26  C   UNL     3      -9.169  10.631  67.539  1.00  0.00    -0.143 C  
HETATM   27  H   UNL     3      -8.331  11.589  68.975  1.00  0.00     0.000 HD 
HETATM   28  O   UNL     3      -8.197  10.740  68.570  1.00  0.00    -0.121 OA 
BRANCH  26  29
HETATM   29  C   UNL     3      -9.105  11.791  66.510  1.00  0.00    -0.203 C  
HETATM   30  O   UNL     3      -8.369  11.323  65.296  1.00  0.00    -0.379 OA 
HETATM   31  H   UNL     3      -8.329  12.034  64.666  1.00  0.00     0.000 HD 
BRANCH  29  32
HETATM   32  C   UNL     3     -10.476  12.200  65.929  1.00  0.00    -0.254 C  
HETATM   33  H   UNL     3     -12.350  11.783  66.371  1.00  0.00     0.000 HD 
HETATM   34  O   UNL     3     -11.506  11.531  66.728  1.00  0.00    -0.436 OA 
BRANCH  32  35
HETATM   35  C   UNL     3     -10.801  12.318  64.432  1.00  0.00    -0.329 C  
HETATM   36  H   UNL     3     -11.021  11.057  62.982  1.00  0.00     0.000 HD 
HETATM   37  O   UNL     3     -10.820  10.984  63.908  1.00  0.00    -0.356 OA 
BRANCH  35  38
HETATM   38  C   UNL     3     -12.055  13.102  64.063  1.00  0.00    -0.446 C  
HETATM   39  C   UNL     3     -11.823  14.625  64.248  1.00  0.00    -0.337 C  
HETATM   40  O   UNL     3     -13.171  12.705  64.883  1.00  0.00    -0.819 OA 
HETATM   41  O   UNL     3     -10.646  14.973  64.582  1.00  0.00    -0.348 OA 
HETATM   42  O   UNL     3     -12.888  15.302  64.273  1.00  0.00    -0.482 OA 
HETATM   43  H   UNL     3     -13.953  13.194  64.654  1.00  0.00     0.000 HD 
ENDBRANCH  35  38
ENDBRANCH  32  35
ENDBRANCH  29  32
ENDBRANCH  26  29
ENDBRANCH   6  26
TORSDOF 10
ENDMDL
MODEL      103
REMARK 921   NORMALIZED FREE ENERGY PREDICTED BY IDOCK:   -6.17 KCAL/MOL
REMARK 922        TOTAL FREE ENERGY PREDICTED BY IDOCK:  -12.28 KCAL/MOL
REMARK 923 INTER-LIGAND FREE ENERGY PREDICTED BY IDOCK:   -9.50 KCAL/MOL
REMARK 924 INTRA-LIGAND FREE ENERGY PREDICTED BY IDOCK:   -2.79 KCAL/MOL
REMARK 927      BINDING AFFINITY PREDICTED BY RF-SCORE:    0.00 PKD
ROOT
HETATM    1 CA   UNL     1     -10.015  11.619  70.186  1.00  0.00    -0.305 Ca 
HETATM    2  O   UNL     2     -12.497  16.187  72.615  1.00  0.00    -0.451 OA 
HETATM    3  O   UNL     3     -11.031   5.449  69.514  1.00  0.00    -0.212 OA 
HETATM    4  H   UNL     2     -11.966  16.302  73.395  1.00  0.00     0.000 HD 
HETATM    5  C   UNL     2     -12.046  15.028  71.916  1.00  0.00    -0.372 C  
HETATM    6  C   UNL     3     -10.324   6.380  70.329  1.00  0.00    -0.205 C  
HETATM    7  H   UNL     3     -10.438   4.781  69.190  1.00  0.00     0.000 HD 
ENDROOT
BRANCH   5   8
HETATM    8  C   UNL     2     -12.908  14.842  70.650  1.00  0.00    -0.343 C  
HETATM    9  O   UNL     2     -14.079  15.639  70.791  1.00  0.00    -0.828 OA 
HETATM   10  H   UNL     2     -14.610  15.525  70.012  1.00  0.00     0.000 HD 
BRANCH   8  11
HETATM   11  C   UNL     2     -12.161  15.311  69.391  1.00  0.00    -0.270 C  
HETATM   12  H   UNL     2     -10.753  16.654  68.888  1.00  0.00     0.000 HD 
HETATM   13  O   UNL     2     -11.215  16.364  69.666  1.00  0.00    -0.323 OA 
BRANCH  11  14
HETATM   14  C   UNL     2     -11.490  14.266  68.466  1.00  0.00    -0.298 C  
HETATM   15  O   UNL     2     -10.238  13.874  69.003  1.00  0.00    -0.390 OA 
HETATM   16  H   UNL     2      -9.826  13.232  68.435  1.00  0.00     0.000 HD 
BRANCH  14  17
HETATM   17  C   UNL     2     -11.492  14.538  66.949  1.00  0.00    -0.364 C  
HETATM   18  H   UNL     2     -10.443  15.659  65.742  1.00  0.00     0.000 HD 
HETATM   19  O   UNL     2     -10.441  15.492  66.678  1.00  0.00    -0.287 OA 
BRANCH  17  20
HETATM   20  C   UNL     2     -11.387  13.307  66.049  1.00  0.00    -0.305 C  
HETATM   21  O   UNL     2     -11.603  12.087  66.793  1.00  0.00    -0.438 OA 
HETATM   22  C   UNL     2     -12.472  13.442  64.944  1.00  0.00    -0.396 C  
HETATM   23  H   UNL     2     -11.537  11.323  66.233  1.00  0.00     0.000 HD 
HETATM   24  O   UNL     2     -12.608  14.611  64.494  1.00  0.00    -0.626 OA 
HETATM   25  O   UNL     2     -13.064  12.359  64.690  1.00  0.00    -0.825 OA 
ENDBRANCH  17  20
ENDBRANCH  14  17
ENDBRANCH  11  14
ENDBRANCH   8  11
ENDBRANCH   5   8
BRANCH   6  26
HETATM   26  C   UNL     3     -11.281   7.460  70.852  1.00  0.00    -0.270 C  
HETATM   27  H   UNL     3     -12.029   7.884  72.568  1.00  0.00     0.000 HD 
HETATM   28  O   UNL     3     -11.437   7.216  72.244  1.00  0.00    -0.258 OA 
BRANCH  26  29
HETATM   29  C   UNL     3     -10.782   8.894  70.533  1.00  0.00    -0.230 C  
HETATM   30  O   UNL     3      -9.648   9.229  71.448  1.00  0.00    -0.266 OA 
HETATM   31  H   UNL     3      -9.342  10.107  71.253  1.00  0.00     0.000 HD 
BRANCH  29  32
HETATM   32  C   UNL     3     -10.138   9.046  69.138  1.00  0.00    -0.195 C  
HETATM   33  H   UNL     3     -10.510   8.306  67.351  1.00  0.00     0.000 HD 
HETATM   34  O   UNL     3     -10.906   8.212  68.209  1.00  0.00    -0.072 OA 
BRANCH  32  35
HETATM   35  C   UNL     3      -8.627   9.090  68.862  1.00  0.00    -0.131 C  
HETATM   36  H   UNL     3      -7.415   8.065  67.757  1.00  0.00     0.000 HD 
HETATM   37  O   UNL     3      -8.349   8.039  67.928  1.00  0.00    -0.127 OA 
BRANCH  35  38
HETATM   38  C   UNL     3      -8.050  10.428  68.416  1.00  0.00    -0.112 C  
HETATM   39  C   UNL     3      -7.211  11.068  69.553  1.00  0.00    -0.090 C  
HETATM   40  O   UNL     3      -9.100  11.345  68.048  1.00  0.00    -0.158 OA 
HETATM   41  O   UNL     3      -7.069  10.368  70.604  1.00  0.00    -0.300 OA 
HETATM   42  O   UNL     3      -6.974  12.296  69.379  1.00  0.00    -0.050 OA 
HETATM   43  H   UNL     3      -8.741  12.179  67.770  1.00  0.00     0.000 HD 
ENDBRANCH  35  38
ENDBRANCH  32  35
ENDBRANCH  29  32
ENDBRANCH  26  29
ENDBRANCH   6  26
TORSDOF 10
ENDMDL
MODEL      104
REMARK 921   NORMALIZED FREE ENERGY PREDICTED BY IDOCK:   -6.17 KCAL/MOL
REMARK 922        TOTAL FREE ENERGY PREDICTED BY IDOCK:  -12.27 KCAL/MOL
REMARK 923 INTER-LIGAND FREE ENERGY PREDICTED BY IDOCK:   -9.74 KCAL/MOL
REMARK 924 INTRA-LIGAND FREE ENERGY PREDICTED BY IDOCK:   -2.54 KCAL/MOL
REMARK 927      BINDING AFFINITY PREDICTED BY RF-SCORE:    0.00 PKD
ROOT
HETATM    1 CA   UNL     1      -9.625  11.377  70.182  1.00  0.00    -0.297 Ca 
HETATM    2  O   UNL     2     -12.158  16.422  71.205  1.00  0.00    -0.566 OA 
HETATM    3  O   UNL     3     -10.881   5.235  70.680  1.00  0.00    -0.189 OA 
HETATM    4  H   UNL     2     -11.734  16.690  72.013  1.00  0.00     0.000 HD 
HETATM    5  C   UNL     2     -11.680  15.129  70.839  1.00  0.00    -0.332 C  
HETATM    6  C   UNL     3     -10.243   6.302  71.376  1.00  0.00    -0.201 C  
HETATM    7  H   UNL     3     -10.289   4.497  70.594  1.00  0.00     0.000 HD 
ENDROOT
BRANCH   5   8
HETATM    8  C   UNL     2     -12.369  14.695  69.528  1.00  0.00    -0.195 C  
HETATM    9  O   UNL     2     -12.464  15.835  68.681  1.00  0.00    -0.434 OA 
HETATM   10  H   UNL     2     -12.888  15.568  67.873  1.00  0.00     0.000 HD 
BRANCH   8  11
HETATM   11  C   UNL     2     -11.546  13.623  68.794  1.00  0.00    -0.324 C  
HETATM   12  H   UNL     2     -11.166  11.655  68.937  1.00  0.00     0.000 HD 
HETATM   13  O   UNL     2     -11.674  12.318  69.391  1.00  0.00    -0.296 OA 
BRANCH  11  14
HETATM   14  C   UNL     2     -11.671  13.483  67.256  1.00  0.00    -0.383 C  
HETATM   15  O   UNL     2     -12.049  12.159  66.918  1.00  0.00    -0.600 OA 
HETATM   16  H   UNL     2     -12.126  12.073  65.975  1.00  0.00     0.000 HD 
BRANCH  14  17
HETATM   17  C   UNL     2     -10.555  14.086  66.383  1.00  0.00    -0.280 C  
HETATM   18  H   UNL     2      -8.718  13.585  65.943  1.00  0.00     0.000 HD 
HETATM   19  O   UNL     2      -9.407  13.213  66.482  1.00  0.00    -0.252 OA 
BRANCH  17  20
HETATM   20  C   UNL     2     -10.924  14.373  64.928  1.00  0.00    -0.406 C  
HETATM   21  O   UNL     2     -12.229  13.847  64.600  1.00  0.00    -0.404 OA 
HETATM   22  C   UNL     2     -10.923  15.916  64.741  1.00  0.00    -0.375 C  
HETATM   23  H   UNL     2     -12.458  14.025  63.695  1.00  0.00     0.000 HD 
HETATM   24  O   UNL     2      -9.987  16.509  65.340  1.00  0.00    -0.552 OA 
HETATM   25  O   UNL     2     -11.880  16.335  64.036  1.00  0.00    -0.958 OA 
ENDBRANCH  17  20
ENDBRANCH  14  17
ENDBRANCH  11  14
ENDBRANCH   8  11
ENDBRANCH   5   8
BRANCH   6  26
HETATM   26  C   UNL     3     -11.202   7.492  71.514  1.00  0.00    -0.243 C  
HETATM   27  H   UNL     3     -11.713   8.654  72.954  1.00  0.00     0.000 HD 
HETATM   28  O   UNL     3     -11.120   7.917  72.869  1.00  0.00    -0.384 OA 
BRANCH  26  29
HETATM   29  C   UNL     3     -10.887   8.622  70.498  1.00  0.00    -0.228 C  
HETATM   30  O   UNL     3     -11.056   9.945  71.174  1.00  0.00    -0.350 OA 
HETATM   31  H   UNL     3     -10.864  10.636  70.551  1.00  0.00     0.000 HD 
BRANCH  29  32
HETATM   32  C   UNL     3      -9.414   8.671  70.039  1.00  0.00    -0.166 C  
HETATM   33  H   UNL     3      -7.729   9.292  70.848  1.00  0.00     0.000 HD 
HETATM   34  O   UNL     3      -8.636   9.262  71.130  1.00  0.00    -0.281 OA 
BRANCH  32  35
HETATM   35  C   UNL     3      -8.940   9.057  68.629  1.00  0.00    -0.137 C  
HETATM   36  H   UNL     3      -7.626  10.290  67.925  1.00  0.00     0.000 HD 
HETATM   37  O   UNL     3      -7.920  10.051  68.797  1.00  0.00    -0.088 OA 
BRANCH  35  38
HETATM   38  C   UNL     3      -8.494   7.918  67.720  1.00  0.00    -0.125 C  
HETATM   39  C   UNL     3      -9.529   7.685  66.588  1.00  0.00    -0.198 C  
HETATM   40  O   UNL     3      -8.344   6.692  68.464  1.00  0.00    -0.121 OA 
HETATM   41  O   UNL     3     -10.502   8.502  66.545  1.00  0.00    -0.256 OA 
HETATM   42  O   UNL     3      -9.396   6.577  65.999  1.00  0.00    -0.115 OA 
HETATM   43  H   UNL     3      -8.067   5.982  67.897  1.00  0.00     0.000 HD 
ENDBRANCH  35  38
ENDBRANCH  32  35
ENDBRANCH  29  32
ENDBRANCH  26  29
ENDBRANCH   6  26
TORSDOF 10
ENDMDL
MODEL      105
REMARK 921   NORMALIZED FREE ENERGY PREDICTED BY IDOCK:   -6.16 KCAL/MOL
REMARK 922        TOTAL FREE ENERGY PREDICTED BY IDOCK:  -12.26 KCAL/MOL
REMARK 923 INTER-LIGAND FREE ENERGY PREDICTED BY IDOCK:   -9.41 KCAL/MOL
REMARK 924 INTRA-LIGAND FREE ENERGY PREDICTED BY IDOCK:   -2.85 KCAL/MOL
REMARK 927      BINDING AFFINITY PREDICTED BY RF-SCORE:    0.00 PKD
ROOT
HETATM    1 CA   UNL     1     -12.641  11.639  68.797  1.00  0.00    -0.307 Ca 
HETATM    2  O   UNL     2     -13.041   7.029  72.190  1.00  0.00    -0.532 OA 
HETATM    3  O   UNL     3      -9.648  17.168  68.616  1.00  0.00    -0.264 OA 
HETATM    4  H   UNL     2     -13.878   7.176  72.615  1.00  0.00     0.000 HD 
HETATM    5  C   UNL     2     -12.752   8.141  71.344  1.00  0.00    -0.268 C  
HETATM    6  C   UNL     3     -10.891  16.585  68.998  1.00  0.00    -0.329 C  
HETATM    7  H   UNL     3      -9.796  17.905  68.036  1.00  0.00     0.000 HD 
ENDROOT
BRANCH   5   8
HETATM    8  C   UNL     2     -11.392   7.903  70.654  1.00  0.00    -0.259 C  
HETATM    9  O   UNL     2     -11.637   7.272  69.401  1.00  0.00    -0.473 OA 
HETATM   10  H   UNL     2     -10.799   7.125  68.976  1.00  0.00     0.000 HD 
BRANCH   8  11
HETATM   11  C   UNL     2     -10.662   9.229  70.385  1.00  0.00    -0.251 C  
HETATM   12  H   UNL     2      -9.099  10.262  71.111  1.00  0.00     0.000 HD 
HETATM   13  O   UNL     2      -9.550   9.442  71.277  1.00  0.00    -0.241 OA 
BRANCH  11  14
HETATM   14  C   UNL     2     -10.220   9.580  68.943  1.00  0.00    -0.199 C  
HETATM   15  O   UNL     2     -11.307   9.412  68.047  1.00  0.00    -0.494 OA 
HETATM   16  H   UNL     2     -11.035   9.628  67.162  1.00  0.00     0.000 HD 
BRANCH  14  17
HETATM   17  C   UNL     2      -8.873   9.024  68.444  1.00  0.00    -0.134 C  
HETATM   18  H   UNL     2      -8.154   7.241  68.099  1.00  0.00     0.000 HD 
HETATM   19  O   UNL     2      -8.985   7.584  68.407  1.00  0.00    -0.129 OA 
BRANCH  17  20
HETATM   20  C   UNL     2      -8.365   9.588  67.118  1.00  0.00    -0.131 C  
HETATM   21  O   UNL     2      -9.215  10.653  66.636  1.00  0.00    -0.160 OA 
HETATM   22  C   UNL     2      -6.931  10.135  67.360  1.00  0.00    -0.082 C  
HETATM   23  H   UNL     2      -8.899  11.003  65.811  1.00  0.00     0.000 HD 
HETATM   24  O   UNL     2      -6.224   9.415  68.114  1.00  0.00    -0.052 OA 
HETATM   25  O   UNL     2      -6.710  11.233  66.781  1.00  0.00    -0.122 OA 
ENDBRANCH  17  20
ENDBRANCH  14  17
ENDBRANCH  11  14
ENDBRANCH   8  11
ENDBRANCH   5   8
BRANCH   6  26
HETATM   26  C   UNL     3     -10.652  15.394  69.936  1.00  0.00    -0.303 C  
HETATM   27  H   UNL     3     -11.113  14.994  71.755  1.00  0.00     0.000 HD 
HETATM   28  O   UNL     3     -11.261  15.732  71.175  1.00  0.00    -0.347 OA 
BRANCH  26  29
HETATM   29  C   UNL     3     -11.176  14.061  69.339  1.00  0.00    -0.237 C  
HETATM   30  O   UNL     3     -12.609  14.233  68.948  1.00  0.00    -0.526 OA 
HETATM   31  H   UNL     3     -12.929  13.416  68.582  1.00  0.00     0.000 HD 
BRANCH  29  32
HETATM   32  C   UNL     3     -10.513  13.661  68.003  1.00  0.00    -0.248 C  
HETATM   33  H   UNL     3      -8.667  13.661  67.315  1.00  0.00     0.000 HD 
HETATM   34  O   UNL     3      -9.075  13.908  68.137  1.00  0.00    -0.181 OA 
BRANCH  32  35
HETATM   35  C   UNL     3     -11.088  13.956  66.609  1.00  0.00    -0.306 C  
HETATM   36  H   UNL     3     -10.446  14.889  65.041  1.00  0.00     0.000 HD 
HETATM   37  O   UNL     3     -10.091  14.706  65.903  1.00  0.00    -0.287 OA 
BRANCH  35  38
HETATM   38  C   UNL     3     -11.587  12.759  65.806  1.00  0.00    -0.376 C  
HETATM   39  C   UNL     3     -12.599  13.213  64.722  1.00  0.00    -0.364 C  
HETATM   40  O   UNL     3     -12.232  11.797  66.663  1.00  0.00    -0.368 OA 
HETATM   41  O   UNL     3     -12.782  14.466  64.618  1.00  0.00    -0.655 OA 
HETATM   42  O   UNL     3     -13.286  12.268  64.241  1.00  0.00    -0.785 OA 
HETATM   43  H   UNL     3     -12.543  11.051  66.163  1.00  0.00     0.000 HD 
ENDBRANCH  35  38
ENDBRANCH  32  35
ENDBRANCH  29  32
ENDBRANCH  26  29
ENDBRANCH   6  26
TORSDOF 10
ENDMDL
MODEL      106
REMARK 921   NORMALIZED FREE ENERGY PREDICTED BY IDOCK:   -6.14 KCAL/MOL
REMARK 922        TOTAL FREE ENERGY PREDICTED BY IDOCK:  -12.23 KCAL/MOL
REMARK 923 INTER-LIGAND FREE ENERGY PREDICTED BY IDOCK:  -10.14 KCAL/MOL
REMARK 924 INTRA-LIGAND FREE ENERGY PREDICTED BY IDOCK:   -2.10 KCAL/MOL
REMARK 927      BINDING AFFINITY PREDICTED BY RF-SCORE:    0.00 PKD
ROOT
HETATM    1 CA   UNL     1      -7.996  12.821  68.573  1.00  0.00    -0.113 Ca 
HETATM    2  O   UNL     2      -8.844  18.401  67.536  1.00  0.00    -0.258 OA 
HETATM    3  O   UNL     3     -11.356   7.563  69.357  1.00  0.00    -0.451 OA 
HETATM    4  H   UNL     2      -8.708  18.779  68.397  1.00  0.00     0.000 HD 
HETATM    5  C   UNL     2      -8.733  16.981  67.632  1.00  0.00    -0.215 C  
HETATM    6  C   UNL     3     -10.720   8.600  70.099  1.00  0.00    -0.234 C  
HETATM    7  H   UNL     3     -11.067   6.713  69.667  1.00  0.00     0.000 HD 
ENDROOT
BRANCH   5   8
HETATM    8  C   UNL     2      -8.955  16.367  66.234  1.00  0.00    -0.333 C  
HETATM    9  O   UNL     2      -8.687  14.972  66.317  1.00  0.00    -0.453 OA 
HETATM   10  H   UNL     2      -8.824  14.593  65.456  1.00  0.00     0.000 HD 
BRANCH   8  11
HETATM   11  C   UNL     2     -10.409  16.547  65.769  1.00  0.00    -0.341 C  
HETATM   12  H   UNL     2     -11.588  18.001  65.038  1.00  0.00     0.000 HD 
HETATM   13  O   UNL     2     -10.689  17.889  65.325  1.00  0.00    -0.640 OA 
BRANCH  11  14
HETATM   14  C   UNL     2     -11.016  15.548  64.753  1.00  0.00    -0.399 C  
HETATM   15  O   UNL     2     -11.725  16.251  63.746  1.00  0.00    -1.511 OA 
HETATM   16  H   UNL     2     -12.098  15.637  63.122  1.00  0.00     0.000 HD 
BRANCH  14  17
HETATM   17  C   UNL     2     -11.733  14.302  65.306  1.00  0.00    -0.357 C  
HETATM   18  H   UNL     2     -13.593  13.804  65.631  1.00  0.00     0.000 HD 
HETATM   19  O   UNL     2     -13.152  14.574  65.290  1.00  0.00    -0.524 OA 
BRANCH  17  20
HETATM   20  C   UNL     2     -11.401  12.978  64.616  1.00  0.00    -0.327 C  
HETATM   21  O   UNL     2     -11.547  11.860  65.520  1.00  0.00    -0.317 OA 
HETATM   22  C   UNL     2     -12.383  12.814  63.422  1.00  0.00    -0.437 C  
HETATM   23  H   UNL     2     -11.341  11.038  65.091  1.00  0.00     0.000 HD 
HETATM   24  O   UNL     2     -12.609  13.879  62.789  1.00  0.00    -0.414 OA 
HETATM   25  O   UNL     2     -12.821  11.640  63.292  1.00  0.00    -0.478 OA 
ENDBRANCH  17  20
ENDBRANCH  14  17
ENDBRANCH  11  14
ENDBRANCH   8  11
ENDBRANCH   5   8
BRANCH   6  26
HETATM   26  C   UNL     3     -11.188   9.974  69.597  1.00  0.00    -0.239 C  
HETATM   27  H   UNL     3     -12.079  11.472  70.400  1.00  0.00     0.000 HD 
HETATM   28  O   UNL     3     -11.789  10.622  70.710  1.00  0.00    -0.323 OA 
BRANCH  26  29
HETATM   29  C   UNL     3     -10.034  10.792  68.960  1.00  0.00    -0.199 C  
HETATM   30  O   UNL     3      -8.788  10.579  69.759  1.00  0.00    -0.390 OA 
HETATM   31  H   UNL     3      -8.082  11.080  69.369  1.00  0.00     0.000 HD 
BRANCH  29  32
HETATM   32  C   UNL     3      -9.614  10.309  67.555  1.00  0.00    -0.156 C  
HETATM   33  H   UNL     3     -10.405   9.111  66.206  1.00  0.00     0.000 HD 
HETATM   34  O   UNL     3     -10.663   9.408  67.071  1.00  0.00    -0.229 OA 
BRANCH  32  35
HETATM   35  C   UNL     3      -8.187   9.909  67.149  1.00  0.00    -0.121 C  
HETATM   36  H   UNL     3      -6.999   8.453  67.605  1.00  0.00     0.000 HD 
HETATM   37  O   UNL     3      -7.881   8.700  67.857  1.00  0.00    -0.101 OA 
BRANCH  35  38
HETATM   38  C   UNL     3      -7.908   9.791  65.655  1.00  0.00    -0.114 C  
HETATM   39  C   UNL     3      -6.496  10.339  65.317  1.00  0.00    -0.122 C  
HETATM   40  O   UNL     3      -8.882  10.527  64.889  1.00  0.00    -0.180 OA 
HETATM   41  O   UNL     3      -5.789  10.706  66.307  1.00  0.00    -0.079 OA 
HETATM   42  O   UNL     3      -6.321  10.569  64.089  1.00  0.00    -0.082 OA 
HETATM   43  H   UNL     3      -8.708  10.454  63.957  1.00  0.00     0.000 HD 
ENDBRANCH  35  38
ENDBRANCH  32  35
ENDBRANCH  29  32
ENDBRANCH  26  29
ENDBRANCH   6  26
TORSDOF 10
ENDMDL
MODEL      107
REMARK 921   NORMALIZED FREE ENERGY PREDICTED BY IDOCK:   -6.14 KCAL/MOL
REMARK 922        TOTAL FREE ENERGY PREDICTED BY IDOCK:  -12.23 KCAL/MOL
REMARK 923 INTER-LIGAND FREE ENERGY PREDICTED BY IDOCK:   -8.45 KCAL/MOL
REMARK 924 INTRA-LIGAND FREE ENERGY PREDICTED BY IDOCK:   -3.78 KCAL/MOL
REMARK 927      BINDING AFFINITY PREDICTED BY RF-SCORE:    0.00 PKD
ROOT
HETATM    1 CA   UNL     1     -10.307  10.490  71.283  1.00  0.00    -0.270 Ca 
HETATM    2  O   UNL     2     -13.616  15.146  70.740  1.00  0.00    -0.665 OA 
HETATM    3  O   UNL     3     -10.122   4.526  69.297  1.00  0.00    -0.172 OA 
HETATM    4  H   UNL     2     -14.077  15.152  71.571  1.00  0.00     0.000 HD 
HETATM    5  C   UNL     2     -12.782  13.990  70.683  1.00  0.00    -0.303 C  
HETATM    6  C   UNL     3     -10.541   5.320  70.404  1.00  0.00    -0.208 C  
HETATM    7  H   UNL     3      -9.564   3.817  69.594  1.00  0.00     0.000 HD 
ENDROOT
BRANCH   5   8
HETATM    8  C   UNL     2     -12.034  13.980  69.333  1.00  0.00    -0.343 C  
HETATM    9  O   UNL     2     -10.935  14.878  69.430  1.00  0.00    -0.252 OA 
HETATM   10  H   UNL     2     -10.474  14.873  68.599  1.00  0.00     0.000 HD 
BRANCH   8  11
HETATM   11  C   UNL     2     -11.481  12.582  69.011  1.00  0.00    -0.304 C  
HETATM   12  H   UNL     2     -11.507  10.734  69.799  1.00  0.00     0.000 HD 
HETATM   13  O   UNL     2     -11.849  11.598  69.997  1.00  0.00    -0.320 OA 
BRANCH  11  14
HETATM   14  C   UNL     2     -11.695  11.981  67.600  1.00  0.00    -0.294 C  
HETATM   15  O   UNL     2     -11.875  10.577  67.693  1.00  0.00    -0.598 OA 
HETATM   16  H   UNL     2     -12.007  10.208  66.827  1.00  0.00     0.000 HD 
BRANCH  14  17
HETATM   17  C   UNL     2     -10.760  12.444  66.467  1.00  0.00    -0.236 C  
HETATM   18  H   UNL     2      -9.214  11.682  65.549  1.00  0.00     0.000 HD 
HETATM   19  O   UNL     2      -9.791  11.395  66.248  1.00  0.00    -0.206 OA 
BRANCH  17  20
HETATM   20  C   UNL     2     -11.443  12.866  65.167  1.00  0.00    -0.313 C  
HETATM   21  O   UNL     2     -12.597  12.045  64.884  1.00  0.00    -0.418 OA 
HETATM   22  C   UNL     2     -11.886  14.347  65.330  1.00  0.00    -0.366 C  
HETATM   23  H   UNL     2     -13.021  12.307  64.075  1.00  0.00     0.000 HD 
HETATM   24  O   UNL     2     -11.051  15.073  65.933  1.00  0.00    -0.336 OA 
HETATM   25  O   UNL     2     -13.029  14.583  64.854  1.00  0.00    -0.569 OA 
ENDBRANCH  17  20
ENDBRANCH  14  17
ENDBRANCH  11  14
ENDBRANCH   8  11
ENDBRANCH   5   8
BRANCH   6  26
HETATM   26  C   UNL     3     -11.444   6.464  69.924  1.00  0.00    -0.415 C  
HETATM   27  H   UNL     3     -12.798   7.550  70.743  1.00  0.00     0.000 HD 
HETATM   28  O   UNL     3     -12.240   6.841  71.040  1.00  0.00    -0.377 OA 
BRANCH  26  29
HETATM   29  C   UNL     3     -10.631   7.643  69.324  1.00  0.00    -0.201 C  
HETATM   30  O   UNL     3     -11.170   8.929  69.864  1.00  0.00    -0.395 OA 
HETATM   31  H   UNL     3     -10.673   9.650  69.496  1.00  0.00     0.000 HD 
BRANCH  29  32
HETATM   32  C   UNL     3      -9.155   7.688  69.773  1.00  0.00    -0.147 C  
HETATM   33  H   UNL     3      -8.174   8.587  71.226  1.00  0.00     0.000 HD 
HETATM   34  O   UNL     3      -9.082   8.559  70.949  1.00  0.00    -0.148 OA 
BRANCH  32  35
HETATM   35  C   UNL     3      -7.947   7.784  68.828  1.00  0.00    -0.125 C  
HETATM   36  H   UNL     3      -7.230   6.670  67.418  1.00  0.00     0.000 HD 
HETATM   37  O   UNL     3      -7.977   6.612  68.003  1.00  0.00    -0.108 OA 
BRANCH  35  38
HETATM   38  C   UNL     3      -7.816   9.064  68.010  1.00  0.00    -0.101 C  
HETATM   39  C   UNL     3      -6.424   9.712  68.229  1.00  0.00    -0.056 C  
HETATM   40  O   UNL     3      -8.831  10.018  68.381  1.00  0.00    -0.115 OA 
HETATM   41  O   UNL     3      -5.612   9.059  68.957  1.00  0.00    -0.036 OA 
HETATM   42  O   UNL     3      -6.359  10.914  67.850  1.00  0.00    -0.057 OA 
HETATM   43  H   UNL     3      -8.749  10.816  67.871  1.00  0.00     0.000 HD 
ENDBRANCH  35  38
ENDBRANCH  32  35
ENDBRANCH  29  32
ENDBRANCH  26  29
ENDBRANCH   6  26
TORSDOF 10
ENDMDL
MODEL      108
REMARK 921   NORMALIZED FREE ENERGY PREDICTED BY IDOCK:   -6.14 KCAL/MOL
REMARK 922        TOTAL FREE ENERGY PREDICTED BY IDOCK:  -12.23 KCAL/MOL
REMARK 923 INTER-LIGAND FREE ENERGY PREDICTED BY IDOCK:  -10.36 KCAL/MOL
REMARK 924 INTRA-LIGAND FREE ENERGY PREDICTED BY IDOCK:   -1.86 KCAL/MOL
REMARK 927      BINDING AFFINITY PREDICTED BY RF-SCORE:    0.00 PKD
ROOT
HETATM    1 CA   UNL     1      -9.586  12.739  68.979  1.00  0.00    -0.291 Ca 
HETATM    2  O   UNL     2      -7.295   7.789  67.199  1.00  0.00    -0.087 OA 
HETATM    3  O   UNL     3     -10.430  18.613  66.895  1.00  0.00    -0.375 OA 
HETATM    4  H   UNL     2      -6.474   7.775  67.677  1.00  0.00     0.000 HD 
HETATM    5  C   UNL     2      -7.973   9.012  67.483  1.00  0.00    -0.101 C  
HETATM    6  C   UNL     3      -9.548  17.830  67.694  1.00  0.00    -0.266 C  
HETATM    7  H   UNL     3     -10.716  19.380  67.377  1.00  0.00     0.000 HD 
ENDROOT
BRANCH   5   8
HETATM    8  C   UNL     2      -9.307   9.035  66.707  1.00  0.00    -0.165 C  
HETATM    9  O   UNL     2      -9.200   8.125  65.617  1.00  0.00    -0.387 OA 
HETATM   10  H   UNL     2     -10.022   8.139  65.140  1.00  0.00     0.000 HD 
BRANCH   8  11
HETATM   11  C   UNL     2     -10.477   8.581  67.594  1.00  0.00    -0.241 C  
HETATM   12  H   UNL     2     -11.761   7.040  67.723  1.00  0.00     0.000 HD 
HETATM   13  O   UNL     2     -11.037   7.321  67.175  1.00  0.00    -0.295 OA 
BRANCH  11  14
HETATM   14  C   UNL     2     -10.308   8.565  69.133  1.00  0.00    -0.217 C  
HETATM   15  O   UNL     2     -10.876   7.382  69.672  1.00  0.00    -0.239 OA 
HETATM   16  H   UNL     2     -10.772   7.372  70.617  1.00  0.00     0.000 HD 
BRANCH  14  17
HETATM   17  C   UNL     2     -10.633   9.855  69.910  1.00  0.00    -0.273 C  
HETATM   18  H   UNL     2     -11.384  11.598  69.447  1.00  0.00     0.000 HD 
HETATM   19  O   UNL     2     -11.184  10.801  68.968  1.00  0.00    -0.223 OA 
BRANCH  17  20
HETATM   20  C   UNL     2     -11.528   9.690  71.138  1.00  0.00    -0.384 C  
HETATM   21  O   UNL     2     -12.791   9.080  70.793  1.00  0.00    -0.500 OA 
HETATM   22  C   UNL     2     -10.771   8.785  72.150  1.00  0.00    -0.313 C  
HETATM   23  H   UNL     2     -13.347   8.978  71.557  1.00  0.00     0.000 HD 
HETATM   24  O   UNL     2      -9.536   9.019  72.229  1.00  0.00    -0.315 OA 
HETATM   25  O   UNL     2     -11.513   7.939  72.716  1.00  0.00    -0.390 OA 
ENDBRANCH  17  20
ENDBRANCH  14  17
ENDBRANCH  11  14
ENDBRANCH   8  11
ENDBRANCH   5   8
BRANCH   6  26
HETATM   26  C   UNL     3      -9.086  16.590  66.914  1.00  0.00    -0.220 C  
HETATM   27  H   UNL     3      -7.706  15.280  67.156  1.00  0.00     0.000 HD 
HETATM   28  O   UNL     3      -7.991  16.046  67.639  1.00  0.00    -0.135 OA 
BRANCH  26  29
HETATM   29  C   UNL     3     -10.237  15.575  66.688  1.00  0.00    -0.276 C  
HETATM   30  O   UNL     3     -11.470  16.078  67.369  1.00  0.00    -0.083 OA 
HETATM   31  H   UNL     3     -12.175  15.456  67.231  1.00  0.00     0.000 HD 
BRANCH  29  32
HETATM   32  C   UNL     3     -10.697  15.452  65.219  1.00  0.00    -0.421 C  
HETATM   33  H   UNL     3     -11.087  16.735  63.776  1.00  0.00     0.000 HD 
HETATM   34  O   UNL     3     -10.805  16.810  64.680  1.00  0.00    -0.835 OA 
BRANCH  32  35
HETATM   35  C   UNL     3     -11.762  14.471  64.706  1.00  0.00    -0.422 C  
HETATM   36  H   UNL     3     -13.297  14.617  63.538  1.00  0.00     0.000 HD 
HETATM   37  O   UNL     3     -12.638  15.223  63.856  1.00  0.00    -0.765 OA 
BRANCH  35  38
HETATM   38  C   UNL     3     -11.256  13.199  64.035  1.00  0.00    -0.379 C  
HETATM   39  C   UNL     3     -11.526  11.963  64.932  1.00  0.00    -0.253 C  
HETATM   40  O   UNL     3      -9.840  13.280  63.778  1.00  0.00    -0.641 OA 
HETATM   41  O   UNL     3     -12.176  12.181  66.002  1.00  0.00    -0.609 OA 
HETATM   42  O   UNL     3     -10.863  10.941  64.601  1.00  0.00    -0.263 OA 
HETATM   43  H   UNL     3      -9.524  12.488  63.360  1.00  0.00     0.000 HD 
ENDBRANCH  35  38
ENDBRANCH  32  35
ENDBRANCH  29  32
ENDBRANCH  26  29
ENDBRANCH   6  26
TORSDOF 10
ENDMDL
MODEL      109
REMARK 921   NORMALIZED FREE ENERGY PREDICTED BY IDOCK:   -6.12 KCAL/MOL
REMARK 922        TOTAL FREE ENERGY PREDICTED BY IDOCK:  -12.20 KCAL/MOL
REMARK 923 INTER-LIGAND FREE ENERGY PREDICTED BY IDOCK:   -9.31 KCAL/MOL
REMARK 924 INTRA-LIGAND FREE ENERGY PREDICTED BY IDOCK:   -2.89 KCAL/MOL
REMARK 927      BINDING AFFINITY PREDICTED BY RF-SCORE:    0.00 PKD
ROOT
HETATM    1 CA   UNL     1      -9.109  11.760  69.543  1.00  0.00    -0.372 Ca 
HETATM    2  O   UNL     2     -10.875  17.184  70.168  1.00  0.00    -0.287 OA 
HETATM    3  O   UNL     3     -11.456   5.932  69.808  1.00  0.00    -0.307 OA 
HETATM    4  H   UNL     2     -10.546  17.394  71.034  1.00  0.00     0.000 HD 
HETATM    5  C   UNL     2     -10.573  15.820  69.878  1.00  0.00    -0.328 C  
HETATM    6  C   UNL     3     -10.763   6.891  70.602  1.00  0.00    -0.236 C  
HETATM    7  H   UNL     3     -10.991   5.103  69.816  1.00  0.00     0.000 HD 
ENDROOT
BRANCH   5   8
HETATM    8  C   UNL     2     -11.109  15.478  68.472  1.00  0.00    -0.307 C  
HETATM    9  O   UNL     2     -10.871  16.597  67.624  1.00  0.00    -0.324 OA 
HETATM   10  H   UNL     2     -11.201  16.386  66.758  1.00  0.00     0.000 HD 
BRANCH   8  11
HETATM   11  C   UNL     2     -10.378  14.264  67.875  1.00  0.00    -0.233 C  
HETATM   12  H   UNL     2     -10.604  12.270  67.772  1.00  0.00     0.000 HD 
HETATM   13  O   UNL     2     -11.056  13.020  68.141  1.00  0.00    -0.234 OA 
BRANCH  11  14
HETATM   14  C   UNL     2      -9.942  14.288  66.390  1.00  0.00    -0.292 C  
HETATM   15  O   UNL     2      -8.712  14.982  66.255  1.00  0.00    -0.453 OA 
HETATM   16  H   UNL     2      -8.445  14.997  65.343  1.00  0.00     0.000 HD 
BRANCH  14  17
HETATM   17  C   UNL     2     -11.005  14.636  65.330  1.00  0.00    -0.353 C  
HETATM   18  H   UNL     2     -11.436  16.217  64.268  1.00  0.00     0.000 HD 
HETATM   19  O   UNL     2     -10.780  16.003  64.921  1.00  0.00    -0.576 OA 
BRANCH  17  20
HETATM   20  C   UNL     2     -11.089  13.691  64.131  1.00  0.00    -0.229 C  
HETATM   21  O   UNL     2      -9.807  13.090  63.841  1.00  0.00    -0.709 OA 
HETATM   22  C   UNL     2     -12.117  12.580  64.482  1.00  0.00    -0.425 C  
HETATM   23  H   UNL     2      -9.859  12.504  63.096  1.00  0.00     0.000 HD 
HETATM   24  O   UNL     2     -13.134  12.993  65.101  1.00  0.00    -0.740 OA 
HETATM   25  O   UNL     2     -11.758  11.430  64.112  1.00  0.00    -0.193 OA 
ENDBRANCH  17  20
ENDBRANCH  14  17
ENDBRANCH  11  14
ENDBRANCH   8  11
ENDBRANCH   5   8
BRANCH   6  26
HETATM   26  C   UNL     3     -11.515   8.230  70.590  1.00  0.00    -0.225 C  
HETATM   27  H   UNL     3     -12.345   9.324  71.930  1.00  0.00     0.000 HD 
HETATM   28  O   UNL     3     -11.880   8.496  71.938  1.00  0.00    -0.296 OA 
BRANCH  26  29
HETATM   29  C   UNL     3     -10.680   9.368  69.945  1.00  0.00    -0.234 C  
HETATM   30  O   UNL     3      -9.691   9.873  70.946  1.00  0.00    -0.290 OA 
HETATM   31  H   UNL     3      -9.180  10.570  70.551  1.00  0.00     0.000 HD 
BRANCH  29  32
HETATM   32  C   UNL     3      -9.771   8.908  68.784  1.00  0.00    -0.164 C  
HETATM   33  H   UNL     3      -7.927   9.313  68.223  1.00  0.00     0.000 HD 
HETATM   34  O   UNL     3      -8.486   9.596  68.937  1.00  0.00    -0.117 OA 
BRANCH  32  35
HETATM   35  C   UNL     3     -10.226   8.713  67.330  1.00  0.00    -0.268 C  
HETATM   36  H   UNL     3     -10.545   9.895  65.833  1.00  0.00     0.000 HD 
HETATM   37  O   UNL     3     -10.264  10.016  66.732  1.00  0.00    -0.217 OA 
BRANCH  35  38
HETATM   38  C   UNL     3      -9.434   7.715  66.492  1.00  0.00    -0.190 C  
HETATM   39  C   UNL     3     -10.149   6.339  66.460  1.00  0.00    -0.108 C  
HETATM   40  O   UNL     3      -8.108   7.531  67.027  1.00  0.00    -0.113 OA 
HETATM   41  O   UNL     3     -11.279   6.283  67.040  1.00  0.00    -0.336 OA 
HETATM   42  O   UNL     3      -9.412   5.393  66.066  1.00  0.00    -0.158 OA 
HETATM   43  H   UNL     3      -7.614   6.910  66.505  1.00  0.00     0.000 HD 
ENDBRANCH  35  38
ENDBRANCH  32  35
ENDBRANCH  29  32
ENDBRANCH  26  29
ENDBRANCH   6  26
TORSDOF 10
ENDMDL
MODEL      110
REMARK 921   NORMALIZED FREE ENERGY PREDICTED BY IDOCK:   -6.12 KCAL/MOL
REMARK 922        TOTAL FREE ENERGY PREDICTED BY IDOCK:  -12.20 KCAL/MOL
REMARK 923 INTER-LIGAND FREE ENERGY PREDICTED BY IDOCK:  -10.00 KCAL/MOL
REMARK 924 INTRA-LIGAND FREE ENERGY PREDICTED BY IDOCK:   -2.20 KCAL/MOL
REMARK 927      BINDING AFFINITY PREDICTED BY RF-SCORE:    0.00 PKD
ROOT
HETATM    1 CA   UNL     1      -8.031  11.768  69.456  1.00  0.00    -0.293 Ca 
HETATM    2  O   UNL     2     -12.030  15.882  69.470  1.00  0.00    -0.347 OA 
HETATM    3  O   UNL     3      -7.379   5.761  71.198  1.00  0.00    -0.077 OA 
HETATM    4  H   UNL     2     -11.750  16.420  70.202  1.00  0.00     0.000 HD 
HETATM    5  C   UNL     2     -11.163  14.754  69.367  1.00  0.00    -0.284 C  
HETATM    6  C   UNL     3      -7.132   7.087  71.657  1.00  0.00    -0.070 C  
HETATM    7  H   UNL     3      -6.586   5.241  71.256  1.00  0.00     0.000 HD 
ENDROOT
BRANCH   5   8
HETATM    8  C   UNL     2     -11.618  13.881  68.179  1.00  0.00    -0.335 C  
HETATM    9  O   UNL     2     -12.442  14.678  67.335  1.00  0.00    -0.537 OA 
HETATM   10  H   UNL     2     -12.723  14.140  66.603  1.00  0.00     0.000 HD 
BRANCH   8  11
HETATM   11  C   UNL     2     -10.418  13.395  67.351  1.00  0.00    -0.243 C  
HETATM   12  H   UNL     2      -9.078  11.897  67.376  1.00  0.00     0.000 HD 
HETATM   13  O   UNL     2      -9.820  12.197  67.887  1.00  0.00    -0.187 OA 
BRANCH  11  14
HETATM   14  C   UNL     2     -10.560  13.237  65.817  1.00  0.00    -0.284 C  
HETATM   15  O   UNL     2     -10.798  14.501  65.219  1.00  0.00    -0.322 OA 
HETATM   16  H   UNL     2     -10.885  14.405  64.277  1.00  0.00     0.000 HD 
BRANCH  14  17
HETATM   17  C   UNL     2     -11.440  12.090  65.287  1.00  0.00    -0.302 C  
HETATM   18  H   UNL     2     -13.337  11.878  64.873  1.00  0.00     0.000 HD 
HETATM   19  O   UNL     2     -12.795  12.586  65.200  1.00  0.00    -0.685 OA 
BRANCH  17  20
HETATM   20  C   UNL     2     -10.986  11.449  63.976  1.00  0.00    -0.355 C  
HETATM   21  O   UNL     2     -10.543  12.443  63.026  1.00  0.00    -0.571 OA 
HETATM   22  C   UNL     2      -9.812  10.486  64.308  1.00  0.00    -0.338 C  
HETATM   23  H   UNL     2     -10.261  12.044  62.211  1.00  0.00     0.000 HD 
HETATM   24  O   UNL     2      -9.965   9.832  65.373  1.00  0.00    -0.320 OA 
HETATM   25  O   UNL     2      -8.874  10.531  63.467  1.00  0.00    -0.179 OA 
ENDBRANCH  17  20
ENDBRANCH  14  17
ENDBRANCH  11  14
ENDBRANCH   8  11
ENDBRANCH   5   8
BRANCH   6  26
HETATM   26  C   UNL     3      -8.414   7.926  71.563  1.00  0.00    -0.114 C  
HETATM   27  H   UNL     3      -9.143   9.138  70.266  1.00  0.00     0.000 HD 
HETATM   28  O   UNL     3      -8.349   8.619  70.324  1.00  0.00    -0.115 OA 
BRANCH  26  29
HETATM   29  C   UNL     3      -9.695   7.064  71.718  1.00  0.00    -0.158 C  
HETATM   30  O   UNL     3      -9.519   6.136  72.877  1.00  0.00    -0.150 OA 
HETATM   31  H   UNL     3     -10.303   5.608  72.971  1.00  0.00     0.000 HD 
BRANCH  29  32
HETATM   32  C   UNL     3     -10.953   7.863  72.121  1.00  0.00    -0.281 C  
HETATM   33  H   UNL     3     -12.031   8.017  73.762  1.00  0.00     0.000 HD 
HETATM   34  O   UNL     3     -11.257   7.525  73.514  1.00  0.00    -0.271 OA 
BRANCH  32  35
HETATM   35  C   UNL     3     -12.185   8.080  71.229  1.00  0.00    -0.287 C  
HETATM   36  H   UNL     3     -13.556   6.928  70.498  1.00  0.00     0.000 HD 
HETATM   37  O   UNL     3     -12.794   6.794  71.049  1.00  0.00    -0.290 OA 
BRANCH  35  38
HETATM   38  C   UNL     3     -13.186   9.135  71.687  1.00  0.00    -0.377 C  
HETATM   39  C   UNL     3     -12.656  10.560  71.381  1.00  0.00    -0.434 C  
HETATM   40  O   UNL     3     -13.432   9.030  73.104  1.00  0.00    -0.948 OA 
HETATM   41  O   UNL     3     -11.557  10.623  70.745  1.00  0.00    -0.333 OA 
HETATM   42  O   UNL     3     -13.264  11.473  72.006  1.00  0.00    -0.509 OA 
HETATM   43  H   UNL     3     -14.056   9.688  73.390  1.00  0.00     0.000 HD 
ENDBRANCH  35  38
ENDBRANCH  32  35
ENDBRANCH  29  32
ENDBRANCH  26  29
ENDBRANCH   6  26
TORSDOF 10
ENDMDL
MODEL      111
REMARK 921   NORMALIZED FREE ENERGY PREDICTED BY IDOCK:   -6.12 KCAL/MOL
REMARK 922        TOTAL FREE ENERGY PREDICTED BY IDOCK:  -12.19 KCAL/MOL
REMARK 923 INTER-LIGAND FREE ENERGY PREDICTED BY IDOCK:   -9.12 KCAL/MOL
REMARK 924 INTRA-LIGAND FREE ENERGY PREDICTED BY IDOCK:   -3.07 KCAL/MOL
REMARK 927      BINDING AFFINITY PREDICTED BY RF-SCORE:    0.00 PKD
ROOT
HETATM    1 CA   UNL     1      -7.954  11.161  66.710  1.00  0.00    -0.113 Ca 
HETATM    2  O   UNL     2      -7.300   6.944  70.545  1.00  0.00    -0.074 OA 
HETATM    3  O   UNL     3     -12.487  13.723  63.182  1.00  0.00    -1.089 OA 
HETATM    4  H   UNL     2      -6.881   6.271  70.020  1.00  0.00     0.000 HD 
HETATM    5  C   UNL     2      -7.599   8.061  69.709  1.00  0.00    -0.092 C  
HETATM    6  C   UNL     3     -11.431  12.768  63.119  1.00  0.00    -0.040 C  
HETATM    7  H   UNL     3     -12.406  14.349  62.472  1.00  0.00     0.000 HD 
ENDROOT
BRANCH   5   8
HETATM    8  C   UNL     2      -8.278   9.154  70.561  1.00  0.00    -0.180 C  
HETATM    9  O   UNL     2      -7.271  10.052  71.013  1.00  0.00    -0.324 OA 
HETATM   10  H   UNL     2      -7.689  10.725  71.538  1.00  0.00     0.000 HD 
BRANCH   8  11
HETATM   11  C   UNL     2      -9.295   9.956  69.732  1.00  0.00    -0.221 C  
HETATM   12  H   UNL     2      -9.496  10.651  67.858  1.00  0.00     0.000 HD 
HETATM   13  O   UNL     2      -8.868  10.155  68.370  1.00  0.00    -0.118 OA 
BRANCH  11  14
HETATM   14  C   UNL     2     -10.785   9.533  69.732  1.00  0.00    -0.239 C  
HETATM   15  O   UNL     2     -11.162   9.083  68.441  1.00  0.00    -0.450 OA 
HETATM   16  H   UNL     2     -12.076   8.823  68.441  1.00  0.00     0.000 HD 
BRANCH  14  17
HETATM   17  C   UNL     2     -11.800  10.465  70.419  1.00  0.00    -0.328 C  
HETATM   18  H   UNL     2     -12.557  12.222  70.022  1.00  0.00     0.000 HD 
HETATM   19  O   UNL     2     -11.930  11.647  69.598  1.00  0.00    -0.306 OA 
BRANCH  17  20
HETATM   20  C   UNL     2     -13.161   9.849  70.745  1.00  0.00    -0.192 C  
HETATM   21  O   UNL     2     -13.102   8.405  70.743  1.00  0.00    -0.437 OA 
HETATM   22  C   UNL     2     -13.576  10.351  72.156  1.00  0.00    -0.099 C  
HETATM   23  H   UNL     2     -13.947   8.023  70.946  1.00  0.00     0.000 HD 
HETATM   24  O   UNL     2     -13.301  11.561  72.375  1.00  0.00    -0.289 OA 
HETATM   25  O   UNL     2     -14.102   9.457  72.871  1.00  0.00    -0.381 OA 
ENDBRANCH  17  20
ENDBRANCH  14  17
ENDBRANCH  11  14
ENDBRANCH   8  11
ENDBRANCH   5   8
BRANCH   6  26
HETATM   26  C   UNL     3     -11.563  11.756  64.267  1.00  0.00    -0.277 C  
HETATM   27  H   UNL     3     -10.469  10.332  64.943  1.00  0.00     0.000 HD 
HETATM   28  O   UNL     3     -10.388  10.957  64.232  1.00  0.00    -0.344 OA 
BRANCH  26  29
HETATM   29  C   UNL     3     -11.795  12.448  65.636  1.00  0.00    -0.409 C  
HETATM   30  O   UNL     3     -11.740  11.416  66.717  1.00  0.00    -0.474 OA 
HETATM   31  H   UNL     3     -11.882  11.839  67.556  1.00  0.00     0.000 HD 
BRANCH  29  32
HETATM   32  C   UNL     3     -10.673  13.423  66.053  1.00  0.00    -0.278 C  
HETATM   33  H   UNL     3      -9.115  13.314  67.253  1.00  0.00     0.000 HD 
HETATM   34  O   UNL     3      -9.805  12.714  66.997  1.00  0.00    -0.218 OA 
BRANCH  32  35
HETATM   35  C   UNL     3     -10.869  14.916  66.358  1.00  0.00    -0.325 C  
HETATM   36  H   UNL     3     -11.471  16.446  65.340  1.00  0.00     0.000 HD 
HETATM   37  O   UNL     3     -11.350  15.523  65.151  1.00  0.00    -0.318 OA 
BRANCH  35  38
HETATM   38  C   UNL     3     -11.735  15.261  67.564  1.00  0.00    -0.140 C  
HETATM   39  C   UNL     3     -10.905  16.012  68.637  1.00  0.00    -0.301 C  
HETATM   40  O   UNL     3     -12.286  14.070  68.160  1.00  0.00    -0.535 OA 
HETATM   41  O   UNL     3      -9.705  16.288  68.322  1.00  0.00    -0.216 OA 
HETATM   42  O   UNL     3     -11.454  16.046  69.773  1.00  0.00    -0.318 OA 
HETATM   43  H   UNL     3     -12.827  14.285  68.912  1.00  0.00     0.000 HD 
ENDBRANCH  35  38
ENDBRANCH  32  35
ENDBRANCH  29  32
ENDBRANCH  26  29
ENDBRANCH   6  26
TORSDOF 10
ENDMDL
MODEL      112
REMARK 921   NORMALIZED FREE ENERGY PREDICTED BY IDOCK:   -6.12 KCAL/MOL
REMARK 922        TOTAL FREE ENERGY PREDICTED BY IDOCK:  -12.19 KCAL/MOL
REMARK 923 INTER-LIGAND FREE ENERGY PREDICTED BY IDOCK:   -9.23 KCAL/MOL
REMARK 924 INTRA-LIGAND FREE ENERGY PREDICTED BY IDOCK:   -2.96 KCAL/MOL
REMARK 927      BINDING AFFINITY PREDICTED BY RF-SCORE:    0.00 PKD
ROOT
HETATM    1 CA   UNL     1     -12.478  10.348  68.088  1.00  0.00    -0.394 Ca 
HETATM    2  O   UNL     2     -10.556  11.488  62.803  1.00  0.00    -0.624 OA 
HETATM    3  O   UNL     3     -10.413   7.803  73.455  1.00  0.00    -0.311 OA 
HETATM    4  H   UNL     2     -10.959  10.791  62.298  1.00  0.00     0.000 HD 
HETATM    5  C   UNL     2     -10.885  11.310  64.180  1.00  0.00    -0.337 C  
HETATM    6  C   UNL     3     -11.138   7.476  72.273  1.00  0.00    -0.273 C  
HETATM    7  H   UNL     3     -10.910   7.554  74.225  1.00  0.00     0.000 HD 
ENDROOT
BRANCH   5   8
HETATM    8  C   UNL     2     -10.230  12.441  65.000  1.00  0.00    -0.283 C  
HETATM    9  O   UNL     2      -9.935  13.515  64.114  1.00  0.00    -0.766 OA 
HETATM   10  H   UNL     2      -9.531  14.212  64.619  1.00  0.00     0.000 HD 
BRANCH   8  11
HETATM   11  C   UNL     2     -11.183  12.967  66.086  1.00  0.00    -0.292 C  
HETATM   12  H   UNL     2     -12.588  12.252  67.332  1.00  0.00     0.000 HD 
HETATM   13  O   UNL     2     -11.999  11.927  66.661  1.00  0.00    -0.601 OA 
BRANCH  11  14
HETATM   14  C   UNL     2     -10.627  13.854  67.227  1.00  0.00    -0.276 C  
HETATM   15  O   UNL     2     -10.586  13.118  68.439  1.00  0.00    -0.239 OA 
HETATM   16  H   UNL     2     -10.245  13.663  69.139  1.00  0.00     0.000 HD 
BRANCH  14  17
HETATM   17  C   UNL     2     -11.169  15.291  67.355  1.00  0.00    -0.311 C  
HETATM   18  H   UNL     2     -12.331  16.225  68.616  1.00  0.00     0.000 HD 
HETATM   19  O   UNL     2     -11.997  15.339  68.537  1.00  0.00    -0.310 OA 
BRANCH  17  20
HETATM   20  C   UNL     2     -10.121  16.404  67.351  1.00  0.00    -0.262 C  
HETATM   21  O   UNL     2      -8.982  16.061  68.170  1.00  0.00    -0.179 OA 
HETATM   22  C   UNL     2      -9.661  16.608  65.880  1.00  0.00    -0.237 C  
HETATM   23  H   UNL     2      -8.331  16.753  68.168  1.00  0.00     0.000 HD 
HETATM   24  O   UNL     2     -10.592  16.540  65.033  1.00  0.00    -0.670 OA 
HETATM   25  O   UNL     2      -8.419  16.786  65.764  1.00  0.00    -0.472 OA 
ENDBRANCH  17  20
ENDBRANCH  14  17
ENDBRANCH  11  14
ENDBRANCH   8  11
ENDBRANCH   5   8
BRANCH   6  26
HETATM   26  C   UNL     3     -10.334   7.878  71.029  1.00  0.00    -0.201 C  
HETATM   27  H   UNL     3      -8.478   8.212  70.671  1.00  0.00     0.000 HD 
HETATM   28  O   UNL     3      -8.976   7.963  71.441  1.00  0.00    -0.129 OA 
BRANCH  26  29
HETATM   29  C   UNL     3     -10.556   6.902  69.844  1.00  0.00    -0.228 C  
HETATM   30  O   UNL     3     -11.964   6.401  69.884  1.00  0.00    -0.535 OA 
HETATM   31  H   UNL     3     -12.099   5.803  69.158  1.00  0.00     0.000 HD 
BRANCH  29  32
HETATM   32  C   UNL     3     -10.480   7.566  68.452  1.00  0.00    -0.175 C  
HETATM   33  H   UNL     3     -11.238   7.162  66.679  1.00  0.00     0.000 HD 
HETATM   34  O   UNL     3     -11.284   6.753  67.536  1.00  0.00    -0.287 OA 
BRANCH  32  35
HETATM   35  C   UNL     3      -9.212   8.171  67.830  1.00  0.00    -0.134 C  
HETATM   36  H   UNL     3      -8.114   7.749  66.295  1.00  0.00     0.000 HD 
HETATM   37  O   UNL     3      -8.898   7.375  66.680  1.00  0.00    -0.130 OA 
BRANCH  35  38
HETATM   38  C   UNL     3      -9.250   9.661  67.509  1.00  0.00    -0.133 C  
HETATM   39  C   UNL     3      -7.883  10.323  67.821  1.00  0.00    -0.101 C  
HETATM   40  O   UNL     3     -10.270  10.328  68.278  1.00  0.00    -0.149 OA 
HETATM   41  O   UNL     3      -6.956   9.539  68.198  1.00  0.00    -0.076 OA 
HETATM   42  O   UNL     3      -7.931  11.583  67.886  1.00  0.00    -0.115 OA 
HETATM   43  H   UNL     3     -10.294  11.257  68.078  1.00  0.00     0.000 HD 
ENDBRANCH  35  38
ENDBRANCH  32  35
ENDBRANCH  29  32
ENDBRANCH  26  29
ENDBRANCH   6  26
TORSDOF 10
ENDMDL
MODEL      113
REMARK 921   NORMALIZED FREE ENERGY PREDICTED BY IDOCK:   -6.09 KCAL/MOL
REMARK 922        TOTAL FREE ENERGY PREDICTED BY IDOCK:  -12.15 KCAL/MOL
REMARK 923 INTER-LIGAND FREE ENERGY PREDICTED BY IDOCK:   -9.14 KCAL/MOL
REMARK 924 INTRA-LIGAND FREE ENERGY PREDICTED BY IDOCK:   -3.01 KCAL/MOL
REMARK 927      BINDING AFFINITY PREDICTED BY RF-SCORE:    0.00 PKD
ROOT
HETATM    1 CA   UNL     1      -9.518   9.283  64.323  1.00  0.00    -0.254 Ca 
HETATM    2  O   UNL     2     -10.368   4.020  66.444  1.00  0.00    -0.368 OA 
HETATM    3  O   UNL     3     -12.002  15.045  64.755  1.00  0.00    -0.377 OA 
HETATM    4  H   UNL     2     -10.791   3.585  65.713  1.00  0.00     0.000 HD 
HETATM    5  C   UNL     2     -10.143   5.386  66.100  1.00  0.00    -0.135 C  
HETATM    6  C   UNL     3     -12.038  13.874  63.944  1.00  0.00    -0.345 C  
HETATM    7  H   UNL     3     -11.827  15.810  64.219  1.00  0.00     0.000 HD 
ENDROOT
BRANCH   5   8
HETATM    8  C   UNL     2      -9.455   6.093  67.288  1.00  0.00    -0.114 C  
HETATM    9  O   UNL     2      -9.342   7.477  66.973  1.00  0.00    -0.136 OA 
HETATM   10  H   UNL     2      -8.919   7.913  67.704  1.00  0.00     0.000 HD 
BRANCH   8  11
HETATM   11  C   UNL     2     -10.288   5.964  68.573  1.00  0.00    -0.214 C  
HETATM   12  H   UNL     2     -10.560   4.645  70.065  1.00  0.00     0.000 HD 
HETATM   13  O   UNL     2     -10.045   4.726  69.271  1.00  0.00    -0.205 OA 
BRANCH  11  14
HETATM   14  C   UNL     2     -10.295   7.122  69.600  1.00  0.00    -0.215 C  
HETATM   15  O   UNL     2      -8.967   7.434  69.990  1.00  0.00    -0.144 OA 
HETATM   16  H   UNL     2      -8.971   8.146  70.620  1.00  0.00     0.000 HD 
BRANCH  14  17
HETATM   17  C   UNL     2     -11.315   7.060  70.753  1.00  0.00    -0.298 C  
HETATM   18  H   UNL     2     -11.463   6.048  72.417  1.00  0.00     0.000 HD 
HETATM   19  O   UNL     2     -10.834   6.086  71.706  1.00  0.00    -0.241 OA 
BRANCH  17  20
HETATM   20  C   UNL     2     -11.649   8.392  71.424  1.00  0.00    -0.284 C  
HETATM   21  O   UNL     2     -11.086   9.507  70.697  1.00  0.00    -0.252 OA 
HETATM   22  C   UNL     2     -13.198   8.523  71.458  1.00  0.00    -0.297 C  
HETATM   23  H   UNL     2     -11.294  10.335  71.113  1.00  0.00     0.000 HD 
HETATM   24  O   UNL     2     -13.801   7.450  71.727  1.00  0.00    -0.363 OA 
HETATM   25  O   UNL     2     -13.608   9.683  71.185  1.00  0.00    -0.340 OA 
ENDBRANCH  17  20
ENDBRANCH  14  17
ENDBRANCH  11  14
ENDBRANCH   8  11
ENDBRANCH   5   8
BRANCH   6  26
HETATM   26  C   UNL     3     -12.320  12.638  64.811  1.00  0.00    -0.489 C  
HETATM   27  H   UNL     3     -13.548  11.167  64.705  1.00  0.00     0.000 HD 
HETATM   28  O   UNL     3     -13.374  11.932  64.169  1.00  0.00    -0.652 OA 
BRANCH  26  29
HETATM   29  C   UNL     3     -11.051  11.775  65.036  1.00  0.00    -0.284 C  
HETATM   30  O   UNL     3      -9.841  12.600  64.730  1.00  0.00    -0.477 OA 
HETATM   31  H   UNL     3      -9.064  12.071  64.868  1.00  0.00     0.000 HD 
BRANCH  29  32
HETATM   32  C   UNL     3     -10.812  11.370  66.507  1.00  0.00    -0.283 C  
HETATM   33  H   UNL     3     -10.458   9.670  67.437  1.00  0.00     0.000 HD 
HETATM   34  O   UNL     3     -10.606   9.919  66.533  1.00  0.00    -0.176 OA 
BRANCH  32  35
HETATM   35  C   UNL     3     -11.580  11.931  67.714  1.00  0.00    -0.323 C  
HETATM   36  H   UNL     3     -12.719  11.167  69.077  1.00  0.00     0.000 HD 
HETATM   37  O   UNL     3     -12.244  10.821  68.331  1.00  0.00    -0.470 OA 
BRANCH  35  38
HETATM   38  C   UNL     3     -10.776  12.754  68.715  1.00  0.00    -0.214 C  
HETATM   39  C   UNL     3     -11.047  14.268  68.521  1.00  0.00    -0.257 C  
HETATM   40  O   UNL     3      -9.363  12.516  68.561  1.00  0.00    -0.330 OA 
HETATM   41  O   UNL     3     -11.924  14.572  67.652  1.00  0.00    -0.374 OA 
HETATM   42  O   UNL     3     -10.196  15.013  69.082  1.00  0.00    -0.228 OA 
HETATM   43  H   UNL     3      -8.862  13.029  69.185  1.00  0.00     0.000 HD 
ENDBRANCH  35  38
ENDBRANCH  32  35
ENDBRANCH  29  32
ENDBRANCH  26  29
ENDBRANCH   6  26
TORSDOF 10
ENDMDL
MODEL      114
REMARK 921   NORMALIZED FREE ENERGY PREDICTED BY IDOCK:   -6.09 KCAL/MOL
REMARK 922        TOTAL FREE ENERGY PREDICTED BY IDOCK:  -12.15 KCAL/MOL
REMARK 923 INTER-LIGAND FREE ENERGY PREDICTED BY IDOCK:   -9.59 KCAL/MOL
REMARK 924 INTRA-LIGAND FREE ENERGY PREDICTED BY IDOCK:   -2.56 KCAL/MOL
REMARK 927      BINDING AFFINITY PREDICTED BY RF-SCORE:    0.00 PKD
ROOT
HETATM    1 CA   UNL     1      -6.414  12.479  66.144  1.00  0.00    -0.317 Ca 
HETATM    2  O   UNL     2      -8.383   7.366  64.441  1.00  0.00    -0.336 OA 
HETATM    3  O   UNL     3      -8.596  18.246  67.383  1.00  0.00    -0.246 OA 
HETATM    4  H   UNL     2      -8.121   7.354  63.527  1.00  0.00     0.000 HD 
HETATM    5  C   UNL     2      -8.021   8.624  65.008  1.00  0.00    -0.131 C  
HETATM    6  C   UNL     3      -7.990  17.483  66.343  1.00  0.00    -0.285 C  
HETATM    7  H   UNL     3      -8.108  19.048  67.528  1.00  0.00     0.000 HD 
ENDROOT
BRANCH   5   8
HETATM    8  C   UNL     2      -8.447   8.643  66.492  1.00  0.00    -0.113 C  
HETATM    9  O   UNL     2      -8.621  10.000  66.884  1.00  0.00    -0.125 OA 
HETATM   10  H   UNL     2      -8.883  10.012  67.797  1.00  0.00     0.000 HD 
BRANCH   8  11
HETATM   11  C   UNL     2      -9.782   7.911  66.699  1.00  0.00    -0.235 C  
HETATM   12  H   UNL     2     -10.446   6.034  66.970  1.00  0.00     0.000 HD 
HETATM   13  O   UNL     2      -9.620   6.486  66.842  1.00  0.00    -0.146 OA 
BRANCH  11  14
HETATM   14  C   UNL     2     -10.769   8.412  67.783  1.00  0.00    -0.095 C  
HETATM   15  O   UNL     2     -11.281   9.685  67.423  1.00  0.00    -0.374 OA 
HETATM   16  H   UNL     2     -11.886   9.993  68.088  1.00  0.00     0.000 HD 
BRANCH  14  17
HETATM   17  C   UNL     2     -10.353   8.271  69.259  1.00  0.00    -0.218 C  
HETATM   18  H   UNL     2     -10.364   9.446  70.820  1.00  0.00     0.000 HD 
HETATM   19  O   UNL     2     -10.620   9.533  69.909  1.00  0.00    -0.212 OA 
BRANCH  17  20
HETATM   20  C   UNL     2     -10.973   7.099  70.020  1.00  0.00    -0.262 C  
HETATM   21  O   UNL     2     -11.893   6.357  69.190  1.00  0.00    -0.506 OA 
HETATM   22  C   UNL     2      -9.813   6.168  70.472  1.00  0.00    -0.178 C  
HETATM   23  H   UNL     2     -12.278   5.629  69.663  1.00  0.00     0.000 HD 
HETATM   24  O   UNL     2      -8.787   6.779  70.873  1.00  0.00    -0.144 OA 
HETATM   25  O   UNL     2     -10.075   4.943  70.342  1.00  0.00    -0.231 OA 
ENDBRANCH  17  20
ENDBRANCH  14  17
ENDBRANCH  11  14
ENDBRANCH   8  11
ENDBRANCH   5   8
BRANCH   6  26
HETATM   26  C   UNL     3      -8.779  16.188  66.107  1.00  0.00    -0.323 C  
HETATM   27  H   UNL     3      -8.888  14.492  67.000  1.00  0.00     0.000 HD 
HETATM   28  O   UNL     3      -8.400  15.294  67.146  1.00  0.00    -0.183 OA 
BRANCH  26  29
HETATM   29  C   UNL     3     -10.309  16.435  66.039  1.00  0.00    -0.352 C  
HETATM   30  O   UNL     3     -10.557  17.808  65.502  1.00  0.00    -0.632 OA 
HETATM   31  H   UNL     3     -11.494  17.959  65.460  1.00  0.00     0.000 HD 
BRANCH  29  32
HETATM   32  C   UNL     3     -11.052  15.542  65.022  1.00  0.00    -0.401 C  
HETATM   33  H   UNL     3     -12.028  15.869  63.343  1.00  0.00     0.000 HD 
HETATM   34  O   UNL     3     -11.572  16.419  63.969  1.00  0.00    -1.071 OA 
BRANCH  32  35
HETATM   35  C   UNL     3     -11.966  14.362  65.384  1.00  0.00    -0.369 C  
HETATM   36  H   UNL     3     -13.276  13.310  64.426  1.00  0.00     0.000 HD 
HETATM   37  O   UNL     3     -12.711  14.040  64.202  1.00  0.00    -0.662 OA 
BRANCH  35  38
HETATM   38  C   UNL     3     -11.295  13.137  65.996  1.00  0.00    -0.308 C  
HETATM   39  C   UNL     3     -11.188  13.285  67.536  1.00  0.00    -0.281 C  
HETATM   40  O   UNL     3      -9.970  12.954  65.459  1.00  0.00    -0.331 OA 
HETATM   41  O   UNL     3     -11.730  14.320  68.037  1.00  0.00    -0.315 OA 
HETATM   42  O   UNL     3     -10.374  12.480  68.068  1.00  0.00    -0.210 OA 
HETATM   43  H   UNL     3      -9.551  12.191  65.840  1.00  0.00     0.000 HD 
ENDBRANCH  35  38
ENDBRANCH  32  35
ENDBRANCH  29  32
ENDBRANCH  26  29
ENDBRANCH   6  26
TORSDOF 10
ENDMDL
MODEL      115
REMARK 921   NORMALIZED FREE ENERGY PREDICTED BY IDOCK:   -6.08 KCAL/MOL
REMARK 922        TOTAL FREE ENERGY PREDICTED BY IDOCK:  -12.14 KCAL/MOL
REMARK 923 INTER-LIGAND FREE ENERGY PREDICTED BY IDOCK:   -9.87 KCAL/MOL
REMARK 924 INTRA-LIGAND FREE ENERGY PREDICTED BY IDOCK:   -2.27 KCAL/MOL
REMARK 927      BINDING AFFINITY PREDICTED BY RF-SCORE:    0.00 PKD
ROOT
HETATM    1 CA   UNL     1      -8.833  11.717  69.465  1.00  0.00    -0.363 Ca 
HETATM    2  O   UNL     2     -13.419  14.942  70.685  1.00  0.00    -0.621 OA 
HETATM    3  O   UNL     3      -7.401   6.505  66.249  1.00  0.00    -0.071 OA 
HETATM    4  H   UNL     2     -13.607  14.679  71.579  1.00  0.00     0.000 HD 
HETATM    5  C   UNL     2     -12.324  14.170  70.196  1.00  0.00    -0.351 C  
HETATM    6  C   UNL     3      -7.713   6.952  67.566  1.00  0.00    -0.111 C  
HETATM    7  H   UNL     3      -6.593   6.006  66.255  1.00  0.00     0.000 HD 
ENDROOT
BRANCH   5   8
HETATM    8  C   UNL     2     -12.020  14.597  68.745  1.00  0.00    -0.266 C  
HETATM    9  O   UNL     2     -12.217  16.004  68.647  1.00  0.00    -0.406 OA 
HETATM   10  H   UNL     2     -12.030  16.267  67.753  1.00  0.00     0.000 HD 
BRANCH   8  11
HETATM   11  C   UNL     2     -10.561  14.293  68.367  1.00  0.00    -0.253 C  
HETATM   12  H   UNL     2      -9.391  12.692  68.040  1.00  0.00     0.000 HD 
HETATM   13  O   UNL     2     -10.293  12.880  68.274  1.00  0.00    -0.232 OA 
BRANCH  11  14
HETATM   14  C   UNL     2      -9.923  15.004  67.148  1.00  0.00    -0.237 C  
HETATM   15  O   UNL     2      -9.195  16.144  67.577  1.00  0.00    -0.206 OA 
HETATM   16  H   UNL     2      -8.803  16.580  66.829  1.00  0.00     0.000 HD 
BRANCH  14  17
HETATM   17  C   UNL     2     -10.797  15.221  65.899  1.00  0.00    -0.342 C  
HETATM   18  H   UNL     2     -10.820  16.511  64.432  1.00  0.00     0.000 HD 
HETATM   19  O   UNL     2     -10.280  16.377  65.203  1.00  0.00    -0.582 OA 
BRANCH  17  20
HETATM   20  C   UNL     2     -10.944  14.018  64.968  1.00  0.00    -0.375 C  
HETATM   21  O   UNL     2      -9.909  13.037  65.203  1.00  0.00    -0.481 OA 
HETATM   22  C   UNL     2     -12.336  13.382  65.241  1.00  0.00    -0.469 C  
HETATM   23  H   UNL     2     -10.001  12.290  64.624  1.00  0.00     0.000 HD 
HETATM   24  O   UNL     2     -13.258  14.219  65.430  1.00  0.00    -0.688 OA 
HETATM   25  O   UNL     2     -12.316  12.122  65.256  1.00  0.00    -0.513 OA 
ENDBRANCH  17  20
ENDBRANCH  14  17
ENDBRANCH  11  14
ENDBRANCH   8  11
ENDBRANCH   5   8
BRANCH   6  26
HETATM   26  C   UNL     3      -9.019   7.759  67.556  1.00  0.00    -0.123 C  
HETATM   27  H   UNL     3     -10.852   7.356  67.152  1.00  0.00     0.000 HD 
HETATM   28  O   UNL     3     -10.044   6.857  67.158  1.00  0.00    -0.172 OA 
BRANCH  26  29
HETATM   29  C   UNL     3      -9.300   8.441  68.921  1.00  0.00    -0.147 C  
HETATM   30  O   UNL     3      -8.407   9.632  69.062  1.00  0.00    -0.111 OA 
HETATM   31  H   UNL     3      -8.579  10.050  69.898  1.00  0.00     0.000 HD 
BRANCH  29  32
HETATM   32  C   UNL     3     -10.707   9.065  69.041  1.00  0.00    -0.141 C  
HETATM   33  H   UNL     3     -11.788  10.274  67.923  1.00  0.00     0.000 HD 
HETATM   34  O   UNL     3     -10.922   9.890  67.849  1.00  0.00    -0.272 OA 
BRANCH  32  35
HETATM   35  C   UNL     3     -11.314   9.633  70.333  1.00  0.00    -0.277 C  
HETATM   36  H   UNL     3     -12.612  11.009  70.738  1.00  0.00     0.000 HD 
HETATM   37  O   UNL     3     -12.236  10.657  69.939  1.00  0.00    -0.307 OA 
BRANCH  35  38
HETATM   38  C   UNL     3     -11.941   8.629  71.295  1.00  0.00    -0.293 C  
HETATM   39  C   UNL     3     -10.914   8.188  72.370  1.00  0.00    -0.345 C  
HETATM   40  O   UNL     3     -12.400   7.459  70.591  1.00  0.00    -0.537 OA 
HETATM   41  O   UNL     3      -9.785   8.771  72.337  1.00  0.00    -0.283 OA 
HETATM   42  O   UNL     3     -11.248   7.142  72.993  1.00  0.00    -0.294 OA 
HETATM   43  H   UNL     3     -12.791   6.833  71.190  1.00  0.00     0.000 HD 
ENDBRANCH  35  38
ENDBRANCH  32  35
ENDBRANCH  29  32
ENDBRANCH  26  29
ENDBRANCH   6  26
TORSDOF 10
ENDMDL
MODEL      116
REMARK 921   NORMALIZED FREE ENERGY PREDICTED BY IDOCK:   -6.08 KCAL/MOL
REMARK 922        TOTAL FREE ENERGY PREDICTED BY IDOCK:  -12.13 KCAL/MOL
REMARK 923 INTER-LIGAND FREE ENERGY PREDICTED BY IDOCK:   -9.22 KCAL/MOL
REMARK 924 INTRA-LIGAND FREE ENERGY PREDICTED BY IDOCK:   -2.92 KCAL/MOL
REMARK 927      BINDING AFFINITY PREDICTED BY RF-SCORE:    0.00 PKD
ROOT
HETATM    1 CA   UNL     1      -9.276  10.007  65.836  1.00  0.00    -0.136 Ca 
HETATM    2  O   UNL     2     -10.302   4.850  68.132  1.00  0.00    -0.080 OA 
HETATM    3  O   UNL     3     -12.463  15.060  63.871  1.00  0.00    -1.005 OA 
HETATM    4  H   UNL     2     -10.188   4.280  67.381  1.00  0.00     0.000 HD 
HETATM    5  C   UNL     2     -10.144   6.204  67.711  1.00  0.00    -0.150 C  
HETATM    6  C   UNL     3     -11.871  13.858  63.387  1.00  0.00     0.225 C  
HETATM    7  H   UNL     3     -12.148  15.805  63.373  1.00  0.00     0.000 HD 
ENDROOT
BRANCH   5   8
HETATM    8  C   UNL     2     -10.330   7.131  68.932  1.00  0.00    -0.196 C  
HETATM    9  O   UNL     2     -11.201   8.191  68.553  1.00  0.00    -0.308 OA 
HETATM   10  H   UNL     2     -11.315   8.762  69.304  1.00  0.00     0.000 HD 
BRANCH   8  11
HETATM   11  C   UNL     2     -10.974   6.382  70.109  1.00  0.00    -0.334 C  
HETATM   12  H   UNL     2     -10.474   4.976  71.455  1.00  0.00     0.000 HD 
HETATM   13  O   UNL     2     -10.076   5.439  70.727  1.00  0.00    -0.193 OA 
BRANCH  11  14
HETATM   14  C   UNL     2     -11.700   7.182  71.219  1.00  0.00    -0.306 C  
HETATM   15  O   UNL     2     -12.921   7.704  70.722  1.00  0.00    -0.553 OA 
HETATM   16  H   UNL     2     -13.367   8.195  71.403  1.00  0.00     0.000 HD 
BRANCH  14  17
HETATM   17  C   UNL     2     -10.867   8.164  72.064  1.00  0.00    -0.284 C  
HETATM   18  H   UNL     2     -11.102  10.001  72.684  1.00  0.00     0.000 HD 
HETATM   19  O   UNL     2     -11.617   9.395  72.163  1.00  0.00    -0.265 OA 
BRANCH  17  20
HETATM   20  C   UNL     2     -10.425   7.658  73.437  1.00  0.00    -0.301 C  
HETATM   21  O   UNL     2     -10.859   6.298  73.664  1.00  0.00    -0.401 OA 
HETATM   22  C   UNL     2      -8.873   7.723  73.482  1.00  0.00    -0.255 C  
HETATM   23  H   UNL     2     -10.584   5.984  74.517  1.00  0.00     0.000 HD 
HETATM   24  O   UNL     2      -8.383   8.750  72.940  1.00  0.00    -0.414 OA 
HETATM   25  O   UNL     2      -8.345   6.721  74.035  1.00  0.00    -0.123 OA 
ENDBRANCH  17  20
ENDBRANCH  14  17
ENDBRANCH  11  14
ENDBRANCH   8  11
ENDBRANCH   5   8
BRANCH   6  26
HETATM   26  C   UNL     3     -12.380  12.655  64.192  1.00  0.00    -0.436 C  
HETATM   27  H   UNL     3     -12.909  10.863  63.753  1.00  0.00     0.000 HD 
HETATM   28  O   UNL     3     -12.594  11.608  63.254  1.00  0.00    -0.491 OA 
BRANCH  26  29
HETATM   29  C   UNL     3     -11.411  12.262  65.339  1.00  0.00    -0.354 C  
HETATM   30  O   UNL     3     -10.125  13.004  65.164  1.00  0.00    -0.382 OA 
HETATM   31  H   UNL     3      -9.532  12.763  65.866  1.00  0.00     0.000 HD 
BRANCH  29  32
HETATM   32  C   UNL     3     -11.870  12.719  66.741  1.00  0.00    -0.382 C  
HETATM   33  H   UNL     3     -12.602  14.389  67.485  1.00  0.00     0.000 HD 
HETATM   34  O   UNL     3     -12.320  14.108  66.622  1.00  0.00    -0.455 OA 
BRANCH  32  35
HETATM   35  C   UNL     3     -11.150  12.387  68.057  1.00  0.00    -0.245 C  
HETATM   36  H   UNL     3      -9.915  11.011  68.624  1.00  0.00     0.000 HD 
HETATM   37  O   UNL     3     -10.360  11.216  67.810  1.00  0.00    -0.178 OA 
BRANCH  35  38
HETATM   38  C   UNL     3     -10.337  13.508  68.695  1.00  0.00    -0.214 C  
HETATM   39  C   UNL     3     -11.189  14.275  69.740  1.00  0.00    -0.180 C  
HETATM   40  O   UNL     3      -9.880  14.445  67.698  1.00  0.00    -0.220 OA 
HETATM   41  O   UNL     3     -12.354  13.815  69.956  1.00  0.00    -0.330 OA 
HETATM   42  O   UNL     3     -10.704  15.393  70.069  1.00  0.00    -0.273 OA 
HETATM   43  H   UNL     3      -9.374  15.144  68.096  1.00  0.00     0.000 HD 
ENDBRANCH  35  38
ENDBRANCH  32  35
ENDBRANCH  29  32
ENDBRANCH  26  29
ENDBRANCH   6  26
TORSDOF 10
ENDMDL
MODEL      117
REMARK 921   NORMALIZED FREE ENERGY PREDICTED BY IDOCK:   -6.07 KCAL/MOL
REMARK 922        TOTAL FREE ENERGY PREDICTED BY IDOCK:  -12.12 KCAL/MOL
REMARK 923 INTER-LIGAND FREE ENERGY PREDICTED BY IDOCK:   -8.66 KCAL/MOL
REMARK 924 INTRA-LIGAND FREE ENERGY PREDICTED BY IDOCK:   -3.46 KCAL/MOL
REMARK 927      BINDING AFFINITY PREDICTED BY RF-SCORE:    0.00 PKD
ROOT
HETATM    1 CA   UNL     1     -11.971   9.094  67.550  1.00  0.00    -0.258 Ca 
HETATM    2  O   UNL     2     -14.063   9.079  72.893  1.00  0.00    -1.009 OA 
HETATM    3  O   UNL     3     -10.031  13.212  63.211  1.00  0.00    -0.191 OA 
HETATM    4  H   UNL     2     -14.986   8.920  72.737  1.00  0.00     0.000 HD 
HETATM    5  C   UNL     2     -13.393   9.180  71.637  1.00  0.00    -0.383 C  
HETATM    6  C   UNL     3     -11.176  12.459  63.599  1.00  0.00    -0.474 C  
HETATM    7  H   UNL     3      -9.834  13.062  62.294  1.00  0.00     0.000 HD 
ENDROOT
BRANCH   5   8
HETATM    8  C   UNL     2     -11.893   9.439  71.890  1.00  0.00    -0.332 C  
HETATM    9  O   UNL     2     -11.390   8.374  72.689  1.00  0.00    -0.372 OA 
HETATM   10  H   UNL     2     -10.466   8.533  72.845  1.00  0.00     0.000 HD 
BRANCH   8  11
HETATM   11  C   UNL     2     -11.100   9.463  70.573  1.00  0.00    -0.273 C  
HETATM   12  H   UNL     2     -10.922  10.624  68.943  1.00  0.00     0.000 HD 
HETATM   13  O   UNL     2     -11.412  10.609  69.757  1.00  0.00    -0.254 OA 
BRANCH  11  14
HETATM   14  C   UNL     2      -9.563   9.273  70.602  1.00  0.00    -0.273 C  
HETATM   15  O   UNL     2      -8.921  10.435  70.102  1.00  0.00    -0.326 OA 
HETATM   16  H   UNL     2      -7.978  10.318  70.120  1.00  0.00     0.000 HD 
BRANCH  14  17
HETATM   17  C   UNL     2      -8.990   7.939  70.088  1.00  0.00    -0.151 C  
HETATM   18  H   UNL     2      -9.400   6.052  70.380  1.00  0.00     0.000 HD 
HETATM   19  O   UNL     2      -9.754   6.875  70.697  1.00  0.00    -0.175 OA 
BRANCH  17  20
HETATM   20  C   UNL     2      -8.913   7.785  68.570  1.00  0.00    -0.133 C  
HETATM   21  O   UNL     2      -9.490   8.923  67.892  1.00  0.00    -0.140 OA 
HETATM   22  C   UNL     2      -7.411   7.658  68.188  1.00  0.00    -0.108 C  
HETATM   23  H   UNL     2      -9.443   8.826  66.948  1.00  0.00     0.000 HD 
HETATM   24  O   UNL     2      -6.733   6.955  68.983  1.00  0.00    -0.052 OA 
HETATM   25  O   UNL     2      -7.103   8.304  67.150  1.00  0.00    -0.076 OA 
ENDBRANCH  17  20
ENDBRANCH  14  17
ENDBRANCH  11  14
ENDBRANCH   8  11
ENDBRANCH   5   8
BRANCH   6  26
HETATM   26  C   UNL     3     -11.494  12.703  65.081  1.00  0.00    -0.326 C  
HETATM   27  H   UNL     3     -13.106  12.790  66.119  1.00  0.00     0.000 HD 
HETATM   28  O   UNL     3     -12.909  12.639  65.202  1.00  0.00    -0.721 OA 
BRANCH  26  29
HETATM   29  C   UNL     3     -10.753  11.708  66.013  1.00  0.00    -0.280 C  
HETATM   30  O   UNL     3     -10.198  10.591  65.189  1.00  0.00    -0.305 OA 
HETATM   31  H   UNL     3      -9.744   9.982  65.760  1.00  0.00     0.000 HD 
BRANCH  29  32
HETATM   32  C   UNL     3      -9.488  12.287  66.682  1.00  0.00    -0.226 C  
HETATM   33  H   UNL     3      -7.641  11.652  66.939  1.00  0.00     0.000 HD 
HETATM   34  O   UNL     3      -8.420  11.296  66.528  1.00  0.00    -0.163 OA 
BRANCH  32  35
HETATM   35  C   UNL     3      -9.464  13.055  68.012  1.00  0.00    -0.217 C  
HETATM   36  H   UNL     3      -8.220  13.184  69.488  1.00  0.00     0.000 HD 
HETATM   37  O   UNL     3      -8.235  12.709  68.665  1.00  0.00    -0.104 OA 
BRANCH  35  38
HETATM   38  C   UNL     3      -9.676  14.563  67.937  1.00  0.00    -0.218 C  
HETATM   39  C   UNL     3     -11.169  14.917  68.161  1.00  0.00    -0.299 C  
HETATM   40  O   UNL     3      -9.269  15.077  66.654  1.00  0.00    -0.241 OA 
HETATM   41  O   UNL     3     -11.937  13.945  68.446  1.00  0.00    -0.354 OA 
HETATM   42  O   UNL     3     -11.472  16.088  67.802  1.00  0.00    -0.228 OA 
HETATM   43  H   UNL     3      -9.401  16.017  66.607  1.00  0.00     0.000 HD 
ENDBRANCH  35  38
ENDBRANCH  32  35
ENDBRANCH  29  32
ENDBRANCH  26  29
ENDBRANCH   6  26
TORSDOF 10
ENDMDL
MODEL      118
REMARK 921   NORMALIZED FREE ENERGY PREDICTED BY IDOCK:   -6.06 KCAL/MOL
REMARK 922        TOTAL FREE ENERGY PREDICTED BY IDOCK:  -12.10 KCAL/MOL
REMARK 923 INTER-LIGAND FREE ENERGY PREDICTED BY IDOCK:   -9.50 KCAL/MOL
REMARK 924 INTRA-LIGAND FREE ENERGY PREDICTED BY IDOCK:   -2.59 KCAL/MOL
REMARK 927      BINDING AFFINITY PREDICTED BY RF-SCORE:    0.00 PKD
ROOT
HETATM    1 CA   UNL     1      -9.494   9.569  65.269  1.00  0.00    -0.170 Ca 
HETATM    2  O   UNL     2     -10.275   5.071  68.744  1.00  0.00    -0.163 OA 
HETATM    3  O   UNL     3     -12.273  15.032  63.859  1.00  0.00    -0.923 OA 
HETATM    4  H   UNL     2     -10.613   4.419  68.141  1.00  0.00     0.000 HD 
HETATM    5  C   UNL     2     -10.086   6.297  68.040  1.00  0.00    -0.152 C  
HETATM    6  C   UNL     3     -12.184  13.680  63.418  1.00  0.00    -0.174 C  
HETATM    7  H   UNL     3     -12.089  15.625  63.140  1.00  0.00     0.000 HD 
ENDROOT
BRANCH   5   8
HETATM    8  C   UNL     2      -9.537   7.356  69.019  1.00  0.00    -0.148 C  
HETATM    9  O   UNL     2      -9.018   8.438  68.255  1.00  0.00    -0.139 OA 
HETATM   10  H   UNL     2      -8.680   9.090  68.858  1.00  0.00     0.000 HD 
BRANCH   8  11
HETATM   11  C   UNL     2     -10.649   7.905  69.928  1.00  0.00    -0.242 C  
HETATM   12  H   UNL     2     -12.298   7.238  70.863  1.00  0.00     0.000 HD 
HETATM   13  O   UNL     2     -11.611   6.898  70.301  1.00  0.00    -0.324 OA 
BRANCH  11  14
HETATM   14  C   UNL     2     -10.273   8.726  71.186  1.00  0.00    -0.246 C  
HETATM   15  O   UNL     2      -9.707   9.970  70.803  1.00  0.00    -0.287 OA 
HETATM   16  H   UNL     2      -9.476  10.474  71.575  1.00  0.00     0.000 HD 
BRANCH  14  17
HETATM   17  C   UNL     2      -9.538   8.001  72.329  1.00  0.00    -0.223 C  
HETATM   18  H   UNL     2      -8.119   8.476  73.585  1.00  0.00     0.000 HD 
HETATM   19  O   UNL     2      -8.572   8.924  72.879  1.00  0.00    -0.335 OA 
BRANCH  17  20
HETATM   20  C   UNL     2     -10.425   7.395  73.416  1.00  0.00    -0.368 C  
HETATM   21  O   UNL     2     -11.812   7.751  73.227  1.00  0.00    -0.651 OA 
HETATM   22  C   UNL     2     -10.270   5.850  73.339  1.00  0.00    -0.212 C  
HETATM   23  H   UNL     2     -12.364   7.375  73.903  1.00  0.00     0.000 HD 
HETATM   24  O   UNL     2      -9.093   5.459  73.118  1.00  0.00    -0.127 OA 
HETATM   25  O   UNL     2     -11.357   5.230  73.485  1.00  0.00    -0.263 OA 
ENDBRANCH  17  20
ENDBRANCH  14  17
ENDBRANCH  11  14
ENDBRANCH   8  11
ENDBRANCH   5   8
BRANCH   6  26
HETATM   26  C   UNL     3     -12.482  12.723  64.580  1.00  0.00    -0.456 C  
HETATM   27  H   UNL     3     -13.395  11.042  64.745  1.00  0.00     0.000 HD 
HETATM   28  O   UNL     3     -13.211  11.635  64.026  1.00  0.00    -0.386 OA 
BRANCH  26  29
HETATM   29  C   UNL     3     -11.194  12.282  65.324  1.00  0.00    -0.328 C  
HETATM   30  O   UNL     3     -10.056  13.144  64.879  1.00  0.00    -0.462 OA 
HETATM   31  H   UNL     3      -9.268  12.874  65.335  1.00  0.00     0.000 HD 
BRANCH  29  32
HETATM   32  C   UNL     3     -11.224  12.534  66.847  1.00  0.00    -0.303 C  
HETATM   33  H   UNL     3     -12.051  11.626  68.387  1.00  0.00     0.000 HD 
HETATM   34  O   UNL     3     -12.033  11.471  67.450  1.00  0.00    -0.623 OA 
BRANCH  32  35
HETATM   35  C   UNL     3     -11.374  13.911  67.512  1.00  0.00    -0.318 C  
HETATM   36  H   UNL     3     -12.304  14.575  69.073  1.00  0.00     0.000 HD 
HETATM   37  O   UNL     3     -12.211  13.723  68.661  1.00  0.00    -0.347 OA 
BRANCH  35  38
HETATM   38  C   UNL     3     -10.086  14.653  67.850  1.00  0.00    -0.225 C  
HETATM   39  C   UNL     3      -9.858  15.829  66.865  1.00  0.00    -0.236 C  
HETATM   40  O   UNL     3      -8.949  13.770  67.781  1.00  0.00    -0.175 OA 
HETATM   41  O   UNL     3     -10.785  16.036  66.019  1.00  0.00    -0.319 OA 
HETATM   42  O   UNL     3      -8.680  16.281  66.877  1.00  0.00    -0.178 OA 
HETATM   43  H   UNL     3      -8.146  14.232  67.991  1.00  0.00     0.000 HD 
ENDBRANCH  35  38
ENDBRANCH  32  35
ENDBRANCH  29  32
ENDBRANCH  26  29
ENDBRANCH   6  26
TORSDOF 10
ENDMDL
MODEL      119
REMARK 921   NORMALIZED FREE ENERGY PREDICTED BY IDOCK:   -6.05 KCAL/MOL
REMARK 922        TOTAL FREE ENERGY PREDICTED BY IDOCK:  -12.08 KCAL/MOL
REMARK 923 INTER-LIGAND FREE ENERGY PREDICTED BY IDOCK:   -8.35 KCAL/MOL
REMARK 924 INTRA-LIGAND FREE ENERGY PREDICTED BY IDOCK:   -3.73 KCAL/MOL
REMARK 927      BINDING AFFINITY PREDICTED BY RF-SCORE:    0.00 PKD
ROOT
HETATM    1 CA   UNL     1      -8.713  14.459  69.522  1.00  0.00    -0.272 Ca 
HETATM    2  O   UNL     2      -6.061   9.375  69.339  1.00  0.00    -0.037 OA 
HETATM    3  O   UNL     3      -8.028  20.269  67.213  1.00  0.00    -0.315 OA 
HETATM    4  H   UNL     2      -5.626   9.355  70.184  1.00  0.00     0.000 HD 
HETATM    5  C   UNL     2      -6.726  10.628  69.192  1.00  0.00    -0.073 C  
HETATM    6  C   UNL     3      -7.750  19.491  68.374  1.00  0.00    -0.337 C  
HETATM    7  H   UNL     3      -8.491  21.063  67.453  1.00  0.00     0.000 HD 
ENDROOT
BRANCH   5   8
HETATM    8  C   UNL     2      -7.431  10.661  67.820  1.00  0.00    -0.091 C  
HETATM    9  O   UNL     2      -7.807   9.330  67.484  1.00  0.00    -0.095 OA 
HETATM   10  H   UNL     2      -8.241   9.350  66.639  1.00  0.00     0.000 HD 
BRANCH   8  11
HETATM   11  C   UNL     2      -8.706  11.519  67.867  1.00  0.00    -0.144 C  
HETATM   12  H   UNL     2      -9.241  13.439  67.614  1.00  0.00     0.000 HD 
HETATM   13  O   UNL     2      -8.453  12.909  67.585  1.00  0.00    -0.158 OA 
BRANCH  11  14
HETATM   14  C   UNL     2      -9.960  11.069  67.077  1.00  0.00    -0.190 C  
HETATM   15  O   UNL     2     -10.541   9.932  67.694  1.00  0.00    -0.234 OA 
HETATM   16  H   UNL     2     -11.311   9.656  67.209  1.00  0.00     0.000 HD 
BRANCH  14  17
HETATM   17  C   UNL     2      -9.860  10.998  65.542  1.00  0.00    -0.243 C  
HETATM   18  H   UNL     2      -9.368   9.619  64.249  1.00  0.00     0.000 HD 
HETATM   19  O   UNL     2      -9.430   9.662  65.197  1.00  0.00    -0.256 OA 
BRANCH  17  20
HETATM   20  C   UNL     2     -11.113  11.408  64.769  1.00  0.00    -0.188 C  
HETATM   21  O   UNL     2     -12.097  12.010  65.639  1.00  0.00    -0.508 OA 
HETATM   22  C   UNL     2     -10.680  12.434  63.685  1.00  0.00    -0.455 C  
HETATM   23  H   UNL     2     -12.876  12.265  65.158  1.00  0.00     0.000 HD 
HETATM   24  O   UNL     2      -9.587  12.159  63.121  1.00  0.00    -0.339 OA 
HETATM   25  O   UNL     2     -11.482  13.397  63.557  1.00  0.00    -0.264 OA 
ENDBRANCH  17  20
ENDBRANCH  14  17
ENDBRANCH  11  14
ENDBRANCH   8  11
ENDBRANCH   5   8
BRANCH   6  26
HETATM   26  C   UNL     3      -7.001  18.209  67.987  1.00  0.00    -0.217 C  
HETATM   27  H   UNL     3      -5.466  17.283  68.671  1.00  0.00     0.000 HD 
HETATM   28  O   UNL     3      -5.929  18.077  68.911  1.00  0.00    -0.192 OA 
BRANCH  26  29
HETATM   29  C   UNL     3      -7.935  16.970  67.949  1.00  0.00    -0.189 C  
HETATM   30  O   UNL     3      -9.010  17.141  68.975  1.00  0.00    -0.223 OA 
HETATM   31  H   UNL     3      -9.581  16.382  68.952  1.00  0.00     0.000 HD 
BRANCH  29  32
HETATM   32  C   UNL     3      -8.744  16.825  66.643  1.00  0.00    -0.248 C  
HETATM   33  H   UNL     3      -8.565  17.534  64.814  1.00  0.00     0.000 HD 
HETATM   34  O   UNL     3      -8.067  17.624  65.618  1.00  0.00    -0.518 OA 
BRANCH  32  35
HETATM   35  C   UNL     3     -10.278  16.826  66.548  1.00  0.00    -0.316 C  
HETATM   36  H   UNL     3     -11.570  17.675  65.386  1.00  0.00     0.000 HD 
HETATM   37  O   UNL     3     -10.621  17.674  65.445  1.00  0.00    -0.657 OA 
BRANCH  35  38
HETATM   38  C   UNL     3     -10.960  15.465  66.467  1.00  0.00    -0.271 C  
HETATM   39  C   UNL     3     -11.567  15.074  67.840  1.00  0.00    -0.333 C  
HETATM   40  O   UNL     3     -10.025  14.443  66.069  1.00  0.00    -0.291 OA 
HETATM   41  O   UNL     3     -11.479  15.949  68.758  1.00  0.00    -0.357 OA 
HETATM   42  O   UNL     3     -11.859  13.850  67.936  1.00  0.00    -0.343 OA 
HETATM   43  H   UNL     3     -10.451  13.595  66.018  1.00  0.00     0.000 HD 
ENDBRANCH  35  38
ENDBRANCH  32  35
ENDBRANCH  29  32
ENDBRANCH  26  29
ENDBRANCH   6  26
TORSDOF 10
ENDMDL
MODEL      120
REMARK 921   NORMALIZED FREE ENERGY PREDICTED BY IDOCK:   -6.04 KCAL/MOL
REMARK 922        TOTAL FREE ENERGY PREDICTED BY IDOCK:  -12.07 KCAL/MOL
REMARK 923 INTER-LIGAND FREE ENERGY PREDICTED BY IDOCK:   -9.81 KCAL/MOL
REMARK 924 INTRA-LIGAND FREE ENERGY PREDICTED BY IDOCK:   -2.26 KCAL/MOL
REMARK 927      BINDING AFFINITY PREDICTED BY RF-SCORE:    0.00 PKD
ROOT
HETATM    1 CA   UNL     1      -9.025  11.921  69.304  1.00  0.00    -0.332 Ca 
HETATM    2  O   UNL     2      -8.601  17.020  66.707  1.00  0.00    -0.208 OA 
HETATM    3  O   UNL     3     -13.464   7.803  71.005  1.00  0.00    -0.567 OA 
HETATM    4  H   UNL     2      -8.456  17.600  67.446  1.00  0.00     0.000 HD 
HETATM    5  C   UNL     2      -8.797  15.693  67.193  1.00  0.00    -0.208 C  
HETATM    6  C   UNL     3     -12.685   8.879  71.521  1.00  0.00    -0.335 C  
HETATM    7  H   UNL     3     -13.384   7.042  71.568  1.00  0.00     0.000 HD 
ENDROOT
BRANCH   5   8
HETATM    8  C   UNL     2      -9.032  14.751  65.993  1.00  0.00     0.108 C  
HETATM    9  O   UNL     2      -8.906  13.410  66.454  1.00  0.00    -0.447 OA 
HETATM   10  H   UNL     2      -9.050  12.830  65.715  1.00  0.00     0.000 HD 
BRANCH   8  11
HETATM   11  C   UNL     2     -10.445  14.926  65.414  1.00  0.00    -0.384 C  
HETATM   12  H   UNL     2     -11.497  16.305  64.400  1.00  0.00     0.000 HD 
HETATM   13  O   UNL     2     -10.624  16.197  64.758  1.00  0.00    -0.630 OA 
BRANCH  11  14
HETATM   14  C   UNL     2     -11.048  13.813  64.520  1.00  0.00    -0.380 C  
HETATM   15  O   UNL     2     -12.253  14.268  63.926  1.00  0.00    -0.783 OA 
HETATM   16  H   UNL     2     -12.622  13.585  63.378  1.00  0.00     0.000 HD 
BRANCH  14  17
HETATM   17  C   UNL     2     -11.099  12.381  65.086  1.00  0.00    -0.309 C  
HETATM   18  H   UNL     2     -12.271  11.421  66.318  1.00  0.00     0.000 HD 
HETATM   19  O   UNL     2     -12.239  12.304  65.970  1.00  0.00    -0.646 OA 
BRANCH  17  20
HETATM   20  C   UNL     2     -11.105  11.254  64.053  1.00  0.00    -0.240 C  
HETATM   21  O   UNL     2     -11.768  11.657  62.834  1.00  0.00    -0.791 OA 
HETATM   22  C   UNL     2      -9.624  10.894  63.746  1.00  0.00    -0.292 C  
HETATM   23  H   UNL     2     -11.772  10.956  62.193  1.00  0.00     0.000 HD 
HETATM   24  O   UNL     2      -8.872  10.894  64.756  1.00  0.00    -0.177 OA 
HETATM   25  O   UNL     2      -9.404  10.683  62.523  1.00  0.00    -0.278 OA 
ENDBRANCH  17  20
ENDBRANCH  14  17
ENDBRANCH  11  14
ENDBRANCH   8  11
ENDBRANCH   5   8
BRANCH   6  26
HETATM   26  C   UNL     3     -12.814  10.110  70.612  1.00  0.00    -0.240 C  
HETATM   27  H   UNL     3     -13.221  11.963  70.899  1.00  0.00     0.000 HD 
HETATM   28  O   UNL     3     -13.142  11.202  71.461  1.00  0.00    -0.425 OA 
BRANCH  26  29
HETATM   29  C   UNL     3     -11.536  10.353  69.766  1.00  0.00    -0.269 C  
HETATM   30  O   UNL     3     -10.967  11.690  70.119  1.00  0.00    -0.419 OA 
HETATM   31  H   UNL     3     -10.184  11.838  69.600  1.00  0.00     0.000 HD 
BRANCH  29  32
HETATM   32  C   UNL     3     -10.367   9.398  70.094  1.00  0.00    -0.233 C  
HETATM   33  H   UNL     3      -8.562   9.624  70.848  1.00  0.00     0.000 HD 
HETATM   34  O   UNL     3      -9.281  10.212  70.646  1.00  0.00     0.188 OA 
BRANCH  32  35
HETATM   35  C   UNL     3      -9.908   8.228  69.210  1.00  0.00    -0.186 C  
HETATM   36  H   UNL     3      -8.710   8.049  67.702  1.00  0.00     0.000 HD 
HETATM   37  O   UNL     3      -8.995   8.773  68.249  1.00  0.00    -0.140 OA 
BRANCH  35  38
HETATM   38  C   UNL     3      -9.335   7.011  69.928  1.00  0.00    -0.150 C  
HETATM   39  C   UNL     3     -10.414   5.906  70.075  1.00  0.00    -0.266 C  
HETATM   40  O   UNL     3      -8.858   7.365  71.241  1.00  0.00    -0.136 OA 
HETATM   41  O   UNL     3     -11.534   6.141  69.522  1.00  0.00    -0.429 OA 
HETATM   42  O   UNL     3     -10.118   5.018  70.923  1.00  0.00    -0.210 OA 
HETATM   43  H   UNL     3      -8.501   6.606  71.689  1.00  0.00     0.000 HD 
ENDBRANCH  35  38
ENDBRANCH  32  35
ENDBRANCH  29  32
ENDBRANCH  26  29
ENDBRANCH   6  26
TORSDOF 10
ENDMDL
MODEL      121
REMARK 921   NORMALIZED FREE ENERGY PREDICTED BY IDOCK:   -6.04 KCAL/MOL
REMARK 922        TOTAL FREE ENERGY PREDICTED BY IDOCK:  -12.07 KCAL/MOL
REMARK 923 INTER-LIGAND FREE ENERGY PREDICTED BY IDOCK:  -10.58 KCAL/MOL
REMARK 924 INTRA-LIGAND FREE ENERGY PREDICTED BY IDOCK:   -1.49 KCAL/MOL
REMARK 927      BINDING AFFINITY PREDICTED BY RF-SCORE:    0.00 PKD
ROOT
HETATM    1 CA   UNL     1     -11.253   7.564  66.165  1.00  0.00    -0.348 Ca 
HETATM    2  O   UNL     2      -9.198  11.923  63.051  1.00  0.00    -0.644 OA 
HETATM    3  O   UNL     3     -10.167   4.721  71.669  1.00  0.00    -0.194 OA 
HETATM    4  H   UNL     2      -8.689  11.465  62.392  1.00  0.00     0.000 HD 
HETATM    5  C   UNL     2      -9.735  10.968  63.966  1.00  0.00    -0.288 C  
HETATM    6  C   UNL     3      -9.865   4.614  70.281  1.00  0.00    -0.243 C  
HETATM    7  H   UNL     3     -10.516   3.900  71.993  1.00  0.00     0.000 HD 
ENDROOT
BRANCH   5   8
HETATM    8  C   UNL     2     -10.561  11.713  65.036  1.00  0.00    -0.289 C  
HETATM    9  O   UNL     2      -9.715  11.963  66.153  1.00  0.00    -0.221 OA 
HETATM   10  H   UNL     2     -10.224  12.421  66.812  1.00  0.00     0.000 HD 
BRANCH   8  11
HETATM   11  C   UNL     2     -11.069  13.065  64.509  1.00  0.00    -0.351 C  
HETATM   12  H   UNL     2     -12.149  13.772  62.970  1.00  0.00     0.000 HD 
HETATM   13  O   UNL     2     -11.835  12.937  63.295  1.00  0.00    -0.537 OA 
BRANCH  11  14
HETATM   14  C   UNL     2     -11.809  14.030  65.468  1.00  0.00    -0.365 C  
HETATM   15  O   UNL     2     -13.114  14.295  64.979  1.00  0.00    -0.682 OA 
HETATM   16  H   UNL     2     -13.568  14.887  65.567  1.00  0.00     0.000 HD 
BRANCH  14  17
HETATM   17  C   UNL     2     -11.044  15.263  65.985  1.00  0.00    -0.278 C  
HETATM   18  H   UNL     2      -9.415  15.546  67.026  1.00  0.00     0.000 HD 
HETATM   19  O   UNL     2      -9.887  14.785  66.707  1.00  0.00    -0.241 OA 
BRANCH  17  20
HETATM   20  C   UNL     2     -10.664  16.304  64.932  1.00  0.00    -0.234 C  
HETATM   21  O   UNL     2     -11.588  16.295  63.822  1.00  0.00    -1.539 OA 
HETATM   22  C   UNL     2     -10.693  17.698  65.622  1.00  0.00    -0.084 C  
HETATM   23  H   UNL     2     -11.352  16.943  63.168  1.00  0.00     0.000 HD 
HETATM   24  O   UNL     2     -10.227  17.705  66.792  1.00  0.00    -0.312 OA 
HETATM   25  O   UNL     2     -11.205  18.600  64.905  1.00  0.00    -0.314 OA 
ENDBRANCH  17  20
ENDBRANCH  14  17
ENDBRANCH  11  14
ENDBRANCH   8  11
ENDBRANCH   5   8
BRANCH   6  26
HETATM   26  C   UNL     3      -9.300   5.943  69.758  1.00  0.00    -0.148 C  
HETATM   27  H   UNL     3      -7.941   6.426  68.492  1.00  0.00     0.000 HD 
HETATM   28  O   UNL     3      -8.291   5.605  68.815  1.00  0.00    -0.102 OA 
BRANCH  26  29
HETATM   29  C   UNL     3     -10.404   6.861  69.171  1.00  0.00    -0.195 C  
HETATM   30  O   UNL     3     -11.733   6.423  69.700  1.00  0.00    -0.592 OA 
HETATM   31  H   UNL     3     -12.409   6.986  69.341  1.00  0.00     0.000 HD 
BRANCH  29  32
HETATM   32  C   UNL     3     -10.326   8.329  69.643  1.00  0.00    -0.218 C  
HETATM   33  H   UNL     3     -11.378   9.446  70.879  1.00  0.00     0.000 HD 
HETATM   34  O   UNL     3     -11.426   8.543  70.588  1.00  0.00    -0.272 OA 
BRANCH  32  35
HETATM   35  C   UNL     3     -10.012   9.532  68.740  1.00  0.00    -0.174 C  
HETATM   36  H   UNL     3     -10.639  10.139  67.015  1.00  0.00     0.000 HD 
HETATM   37  O   UNL     3     -10.833   9.395  67.573  1.00  0.00    -0.269 OA 
BRANCH  35  38
HETATM   38  C   UNL     3     -10.132  10.913  69.374  1.00  0.00    -0.088 C  
HETATM   39  C   UNL     3     -11.507  11.549  69.042  1.00  0.00    -0.291 C  
HETATM   40  O   UNL     3      -9.093  11.791  68.896  1.00  0.00    -0.387 OA 
HETATM   41  O   UNL     3     -12.319  10.817  68.394  1.00  0.00    -0.396 OA 
HETATM   42  O   UNL     3     -11.556  12.793  69.253  1.00  0.00    -0.282 OA 
HETATM   43  H   UNL     3      -9.168  12.652  69.291  1.00  0.00     0.000 HD 
ENDBRANCH  35  38
ENDBRANCH  32  35
ENDBRANCH  29  32
ENDBRANCH  26  29
ENDBRANCH   6  26
TORSDOF 10
ENDMDL
MODEL      122
REMARK 921   NORMALIZED FREE ENERGY PREDICTED BY IDOCK:   -6.04 KCAL/MOL
REMARK 922        TOTAL FREE ENERGY PREDICTED BY IDOCK:  -12.06 KCAL/MOL
REMARK 923 INTER-LIGAND FREE ENERGY PREDICTED BY IDOCK:   -9.76 KCAL/MOL
REMARK 924 INTRA-LIGAND FREE ENERGY PREDICTED BY IDOCK:   -2.31 KCAL/MOL
REMARK 927      BINDING AFFINITY PREDICTED BY RF-SCORE:    0.00 PKD
ROOT
HETATM    1 CA   UNL     1      -7.692  11.666  65.125  1.00  0.00    -0.338 Ca 
HETATM    2  O   UNL     2      -7.041  16.525  68.106  1.00  0.00    -0.138 OA 
HETATM    3  O   UNL     3     -10.077   5.897  65.891  1.00  0.00    -0.394 OA 
HETATM    4  H   UNL     2      -6.121  16.483  68.342  1.00  0.00     0.000 HD 
HETATM    5  C   UNL     2      -7.391  15.334  67.402  1.00  0.00    -0.210 C  
HETATM    6  C   UNL     3      -8.846   6.613  65.959  1.00  0.00    -0.139 C  
HETATM    7  H   UNL     3      -9.983   5.136  65.331  1.00  0.00     0.000 HD 
ENDROOT
BRANCH   5   8
HETATM    8  C   UNL     2      -8.885  15.402  67.019  1.00  0.00    -0.228 C  
HETATM    9  O   UNL     2      -9.008  16.229  65.866  1.00  0.00    -0.398 OA 
HETATM   10  H   UNL     2      -9.927  16.270  65.630  1.00  0.00     0.000 HD 
BRANCH   8  11
HETATM   11  C   UNL     2      -9.435  14.010  66.668  1.00  0.00    -0.287 C  
HETATM   12  H   UNL     2      -9.142  12.096  67.204  1.00  0.00     0.000 HD 
HETATM   13  O   UNL     2      -8.802  12.956  67.421  1.00  0.00    -0.179 OA 
BRANCH  11  14
HETATM   14  C   UNL     2     -10.965  13.771  66.663  1.00  0.00    -0.296 C  
HETATM   15  O   UNL     2     -11.506  14.062  67.941  1.00  0.00    -0.282 OA 
HETATM   16  H   UNL     2     -12.445  13.915  67.937  1.00  0.00     0.000 HD 
BRANCH  14  17
HETATM   17  C   UNL     2     -11.492  12.479  66.010  1.00  0.00    -0.377 C  
HETATM   18  H   UNL     2     -12.134  10.757  66.670  1.00  0.00     0.000 HD 
HETATM   19  O   UNL     2     -11.809  11.554  67.073  1.00  0.00    -0.568 OA 
BRANCH  17  20
HETATM   20  C   UNL     2     -12.660  12.649  65.039  1.00  0.00    -0.430 C  
HETATM   21  O   UNL     2     -13.451  13.814  65.361  1.00  0.00    -0.620 OA 
HETATM   22  C   UNL     2     -12.063  12.803  63.612  1.00  0.00    -0.543 C  
HETATM   23  H   UNL     2     -14.177  13.919  64.757  1.00  0.00     0.000 HD 
HETATM   24  O   UNL     2     -11.082  12.048  63.378  1.00  0.00    -0.410 OA 
HETATM   25  O   UNL     2     -12.643  13.681  62.919  1.00  0.00    -0.621 OA 
ENDBRANCH  17  20
ENDBRANCH  14  17
ENDBRANCH  11  14
ENDBRANCH   8  11
ENDBRANCH   5   8
BRANCH   6  26
HETATM   26  C   UNL     3      -8.997   7.843  66.864  1.00  0.00    -0.136 C  
HETATM   27  H   UNL     3      -9.357   9.704  66.565  1.00  0.00     0.000 HD 
HETATM   28  O   UNL     3      -9.263   8.943  66.004  1.00  0.00    -0.196 OA 
BRANCH  26  29
HETATM   29  C   UNL     3     -10.083   7.641  67.954  1.00  0.00    -0.185 C  
HETATM   30  O   UNL     3      -9.796   6.375  68.697  1.00  0.00    -0.138 OA 
HETATM   31  H   UNL     3     -10.461   6.251  69.364  1.00  0.00     0.000 HD 
BRANCH  29  32
HETATM   32  C   UNL     3     -10.056   8.698  69.080  1.00  0.00    -0.199 C  
HETATM   33  H   UNL     3      -8.695   9.332  70.355  1.00  0.00     0.000 HD 
HETATM   34  O   UNL     3      -8.712   8.682  69.663  1.00  0.00    -0.128 OA 
BRANCH  32  35
HETATM   35  C   UNL     3     -11.190   8.944  70.087  1.00  0.00    -0.160 C  
HETATM   36  H   UNL     3     -11.818   8.040  71.678  1.00  0.00     0.000 HD 
HETATM   37  O   UNL     3     -11.117   7.888  71.055  1.00  0.00    -0.242 OA 
BRANCH  35  38
HETATM   38  C   UNL     3     -11.242  10.322  70.738  1.00  0.00    -0.293 C  
HETATM   39  C   UNL     3     -12.670  10.627  71.258  1.00  0.00    -0.433 C  
HETATM   40  O   UNL     3     -10.865  11.349  69.799  1.00  0.00    -0.447 OA 
HETATM   41  O   UNL     3     -13.519   9.688  71.144  1.00  0.00    -0.356 OA 
HETATM   42  O   UNL     3     -12.868  11.848  71.513  1.00  0.00    -0.385 OA 
HETATM   43  H   UNL     3     -10.897  12.208  70.204  1.00  0.00     0.000 HD 
ENDBRANCH  35  38
ENDBRANCH  32  35
ENDBRANCH  29  32
ENDBRANCH  26  29
ENDBRANCH   6  26
TORSDOF 10
ENDMDL
MODEL      123
REMARK 921   NORMALIZED FREE ENERGY PREDICTED BY IDOCK:   -6.03 KCAL/MOL
REMARK 922        TOTAL FREE ENERGY PREDICTED BY IDOCK:  -12.06 KCAL/MOL
REMARK 923 INTER-LIGAND FREE ENERGY PREDICTED BY IDOCK:   -9.85 KCAL/MOL
REMARK 924 INTRA-LIGAND FREE ENERGY PREDICTED BY IDOCK:   -2.21 KCAL/MOL
REMARK 927      BINDING AFFINITY PREDICTED BY RF-SCORE:    0.00 PKD
ROOT
HETATM    1 CA   UNL     1      -8.316  12.972  66.491  1.00  0.00    -0.250 Ca 
HETATM    2  O   UNL     2     -11.005   8.116  67.943  1.00  0.00    -0.480 OA 
HETATM    3  O   UNL     3      -8.693  19.145  67.634  1.00  0.00    -0.288 OA 
HETATM    4  H   UNL     2     -11.521   7.942  67.164  1.00  0.00     0.000 HD 
HETATM    5  C   UNL     2     -10.312   9.351  67.771  1.00  0.00    -0.238 C  
HETATM    6  C   UNL     3      -9.094  18.161  66.685  1.00  0.00    -0.282 C  
HETATM    7  H   UNL     3      -8.245  19.859  67.197  1.00  0.00     0.000 HD 
ENDROOT
BRANCH   5   8
HETATM    8  C   UNL     2      -9.475   9.634  69.037  1.00  0.00    -0.168 C  
HETATM    9  O   UNL     2      -9.908  10.875  69.585  1.00  0.00    -0.434 OA 
HETATM   10  H   UNL     2      -9.392  11.049  70.364  1.00  0.00     0.000 HD 
BRANCH   8  11
HETATM   11  C   UNL     2      -9.684   8.544  70.100  1.00  0.00    -0.170 C  
HETATM   12  H   UNL     2      -8.574   7.398  71.321  1.00  0.00     0.000 HD 
HETATM   13  O   UNL     2      -8.444   8.072  70.664  1.00  0.00    -0.120 OA 
BRANCH  11  14
HETATM   14  C   UNL     2     -10.697   8.780  71.248  1.00  0.00    -0.269 C  
HETATM   15  O   UNL     2     -10.091   8.491  72.497  1.00  0.00    -0.298 OA 
HETATM   16  H   UNL     2     -10.712   8.635  73.202  1.00  0.00     0.000 HD 
BRANCH  14  17
HETATM   17  C   UNL     2     -12.126   8.232  71.074  1.00  0.00    -0.208 C  
HETATM   18  H   UNL     2     -13.009   6.528  71.436  1.00  0.00     0.000 HD 
HETATM   19  O   UNL     2     -12.127   6.866  71.544  1.00  0.00    -0.318 OA 
BRANCH  17  20
HETATM   20  C   UNL     2     -13.241   9.055  71.720  1.00  0.00    -0.389 C  
HETATM   21  O   UNL     2     -13.139   9.045  73.161  1.00  0.00    -0.753 OA 
HETATM   22  C   UNL     2     -13.108  10.513  71.198  1.00  0.00    -0.358 C  
HETATM   23  H   UNL     2     -13.832   9.557  73.562  1.00  0.00     0.000 HD 
HETATM   24  O   UNL     2     -12.811  10.600  69.977  1.00  0.00    -0.235 OA 
HETATM   25  O   UNL     2     -13.294  11.383  72.091  1.00  0.00    -0.469 OA 
ENDBRANCH  17  20
ENDBRANCH  14  17
ENDBRANCH  11  14
ENDBRANCH   8  11
ENDBRANCH   5   8
BRANCH   6  26
HETATM   26  C   UNL     3      -9.818  17.007  67.392  1.00  0.00    -0.262 C  
HETATM   27  H   UNL     3     -10.927  16.863  68.952  1.00  0.00     0.000 HD 
HETATM   28  O   UNL     3     -10.479  17.577  68.515  1.00  0.00    -0.362 OA 
BRANCH  26  29
HETATM   29  C   UNL     3     -10.776  16.243  66.440  1.00  0.00    -0.182 C  
HETATM   30  O   UNL     3     -10.235  16.311  65.048  1.00  0.00    -0.553 OA 
HETATM   31  H   UNL     3     -10.822  15.843  64.466  1.00  0.00     0.000 HD 
BRANCH  29  32
HETATM   32  C   UNL     3     -10.844  14.721  66.695  1.00  0.00    -0.319 C  
HETATM   33  H   UNL     3     -10.717  13.117  65.559  1.00  0.00     0.000 HD 
HETATM   34  O   UNL     3     -10.676  14.053  65.402  1.00  0.00    -0.306 OA 
BRANCH  32  35
HETATM   35  C   UNL     3     -11.826  14.029  67.653  1.00  0.00    -0.395 C  
HETATM   36  H   UNL     3     -12.872  12.403  67.589  1.00  0.00     0.000 HD 
HETATM   37  O   UNL     3     -12.264  12.831  66.997  1.00  0.00    -0.431 OA 
BRANCH  35  38
HETATM   38  C   UNL     3     -11.331  13.765  69.070  1.00  0.00    -0.289 C  
HETATM   39  C   UNL     3     -11.979  14.758  70.070  1.00  0.00    -0.316 C  
HETATM   40  O   UNL     3      -9.898  13.902  69.149  1.00  0.00    -0.425 OA 
HETATM   41  O   UNL     3     -12.850  15.548  69.586  1.00  0.00    -0.028 OA 
HETATM   42  O   UNL     3     -11.390  14.813  71.185  1.00  0.00    -0.253 OA 
HETATM   43  H   UNL     3      -9.589  13.738  70.033  1.00  0.00     0.000 HD 
ENDBRANCH  35  38
ENDBRANCH  32  35
ENDBRANCH  29  32
ENDBRANCH  26  29
ENDBRANCH   6  26
TORSDOF 10
ENDMDL
MODEL      124
REMARK 921   NORMALIZED FREE ENERGY PREDICTED BY IDOCK:   -6.03 KCAL/MOL
REMARK 922        TOTAL FREE ENERGY PREDICTED BY IDOCK:  -12.05 KCAL/MOL
REMARK 923 INTER-LIGAND FREE ENERGY PREDICTED BY IDOCK:   -9.84 KCAL/MOL
REMARK 924 INTRA-LIGAND FREE ENERGY PREDICTED BY IDOCK:   -2.21 KCAL/MOL
REMARK 927      BINDING AFFINITY PREDICTED BY RF-SCORE:    0.00 PKD
ROOT
HETATM    1 CA   UNL     1      -7.338  13.073  66.216  1.00  0.00    -0.334 Ca 
HETATM    2  O   UNL     2      -7.451  17.891  69.330  1.00  0.00    -0.142 OA 
HETATM    3  O   UNL     3     -10.104   7.427  66.085  1.00  0.00    -0.450 OA 
HETATM    4  H   UNL     2      -6.657  17.804  69.846  1.00  0.00     0.000 HD 
HETATM    5  C   UNL     2      -7.612  16.720  68.531  1.00  0.00    -0.217 C  
HETATM    6  C   UNL     3      -8.928   8.081  66.553  1.00  0.00    -0.157 C  
HETATM    7  H   UNL     3      -9.872   6.662  65.571  1.00  0.00     0.000 HD 
ENDROOT
BRANCH   5   8
HETATM    8  C   UNL     2      -8.900  16.860  67.693  1.00  0.00    -0.214 C  
HETATM    9  O   UNL     2      -9.017  15.708  66.866  1.00  0.00    -0.208 OA 
HETATM   10  H   UNL     2      -9.811  15.794  66.350  1.00  0.00     0.000 HD 
BRANCH   8  11
HETATM   11  C   UNL     2     -10.146  16.932  68.591  1.00  0.00    -0.291 C  
HETATM   12  H   UNL     2     -12.133  17.152  68.395  1.00  0.00     0.000 HD 
HETATM   13  O   UNL     2     -11.364  17.108  67.840  1.00  0.00    -0.083 OA 
BRANCH  11  14
HETATM   14  C   UNL     2     -10.376  15.842  69.667  1.00  0.00    -0.299 C  
HETATM   15  O   UNL     2      -9.626  14.681  69.351  1.00  0.00    -0.400 OA 
HETATM   16  H   UNL     2      -9.768  14.012  70.011  1.00  0.00     0.000 HD 
BRANCH  14  17
HETATM   17  C   UNL     2     -11.821  15.579  70.131  1.00  0.00    -0.356 C  
HETATM   18  H   UNL     2     -13.157  14.196  69.784  1.00  0.00     0.000 HD 
HETATM   19  O   UNL     2     -12.265  14.359  69.497  1.00  0.00    -0.316 OA 
BRANCH  17  20
HETATM   20  C   UNL     2     -12.043  15.546  71.643  1.00  0.00    -0.401 C  
HETATM   21  O   UNL     2     -11.681  16.801  72.259  1.00  0.00    -0.572 OA 
HETATM   22  C   UNL     2     -13.553  15.263  71.888  1.00  0.00    -0.475 C  
HETATM   23  H   UNL     2     -11.819  16.780  73.198  1.00  0.00     0.000 HD 
HETATM   24  O   UNL     2     -14.053  14.415  71.103  1.00  0.00    -0.284 OA 
HETATM   25  O   UNL     2     -14.045  15.950  72.822  1.00  0.00    -0.567 OA 
ENDBRANCH  17  20
ENDBRANCH  14  17
ENDBRANCH  11  14
ENDBRANCH   8  11
ENDBRANCH   5   8
BRANCH   6  26
HETATM   26  C   UNL     3      -9.304   9.316  67.384  1.00  0.00    -0.127 C  
HETATM   27  H   UNL     3      -8.687  10.069  69.038  1.00  0.00     0.000 HD 
HETATM   28  O   UNL     3      -8.455   9.305  68.524  1.00  0.00    -0.121 OA 
BRANCH  26  29
HETATM   29  C   UNL     3      -9.210  10.629  66.562  1.00  0.00    -0.166 C  
HETATM   30  O   UNL     3      -9.735  10.379  65.185  1.00  0.00    -0.243 OA 
HETATM   31  H   UNL     3      -9.677  11.183  64.682  1.00  0.00     0.000 HD 
BRANCH  29  32
HETATM   32  C   UNL     3     -10.130  11.761  67.067  1.00  0.00    -0.209 C  
HETATM   33  H   UNL     3     -10.265  12.798  68.737  1.00  0.00     0.000 HD 
HETATM   34  O   UNL     3      -9.699  12.101  68.426  1.00  0.00    -0.209 OA 
BRANCH  32  35
HETATM   35  C   UNL     3     -11.648  11.834  66.838  1.00  0.00    -0.234 C  
HETATM   36  H   UNL     3     -13.207  11.416  67.902  1.00  0.00     0.000 HD 
HETATM   37  O   UNL     3     -12.269  11.370  68.044  1.00  0.00    -0.607 OA 
BRANCH  35  38
HETATM   38  C   UNL     3     -12.207  13.176  66.378  1.00  0.00    -0.329 C  
HETATM   39  C   UNL     3     -12.405  13.187  64.840  1.00  0.00    -0.441 C  
HETATM   40  O   UNL     3     -11.319  14.254  66.735  1.00  0.00    -0.324 OA 
HETATM   41  O   UNL     3     -12.162  12.094  64.238  1.00  0.00    -0.397 OA 
HETATM   42  O   UNL     3     -12.555  14.343  64.356  1.00  0.00    -0.668 OA 
HETATM   43  H   UNL     3     -11.667  15.090  66.448  1.00  0.00     0.000 HD 
ENDBRANCH  35  38
ENDBRANCH  32  35
ENDBRANCH  29  32
ENDBRANCH  26  29
ENDBRANCH   6  26
TORSDOF 10
ENDMDL
MODEL      125
REMARK 921   NORMALIZED FREE ENERGY PREDICTED BY IDOCK:   -5.98 KCAL/MOL
REMARK 922        TOTAL FREE ENERGY PREDICTED BY IDOCK:  -11.98 KCAL/MOL
REMARK 923 INTER-LIGAND FREE ENERGY PREDICTED BY IDOCK:   -8.88 KCAL/MOL
REMARK 924 INTRA-LIGAND FREE ENERGY PREDICTED BY IDOCK:   -3.11 KCAL/MOL
REMARK 927      BINDING AFFINITY PREDICTED BY RF-SCORE:    0.00 PKD
ROOT
HETATM    1 CA   UNL     1      -9.091  10.118  70.959  1.00  0.00    -0.244 Ca 
HETATM    2  O   UNL     2     -10.727  14.417  67.529  1.00  0.00    -0.266 OA 
HETATM    3  O   UNL     3     -10.992   4.351  72.597  1.00  0.00    -0.139 OA 
HETATM    4  H   UNL     2     -11.105  15.026  68.152  1.00  0.00     0.000 HD 
HETATM    5  C   UNL     2     -10.322  13.239  68.223  1.00  0.00    -0.249 C  
HETATM    6  C   UNL     3     -11.056   5.709  73.024  1.00  0.00    -0.282 C  
HETATM    7  H   UNL     3     -10.678   3.800  73.303  1.00  0.00     0.000 HD 
ENDROOT
BRANCH   5   8
HETATM    8  C   UNL     2      -9.707  12.249  67.211  1.00  0.00    -0.195 C  
HETATM    9  O   UNL     2      -8.803  11.403  67.914  1.00  0.00    -0.139 OA 
HETATM   10  H   UNL     2      -8.424  10.794  67.290  1.00  0.00     0.000 HD 
BRANCH   8  11
HETATM   11  C   UNL     2     -10.787  11.364  66.569  1.00  0.00    -0.283 C  
HETATM   12  H   UNL     2     -12.791  11.261  66.476  1.00  0.00     0.000 HD 
HETATM   13  O   UNL     2     -12.124  11.808  66.873  1.00  0.00    -0.566 OA 
BRANCH  11  14
HETATM   14  C   UNL     2     -10.703  11.029  65.059  1.00  0.00    -0.194 C  
HETATM   15  O   UNL     2      -9.845   9.918  64.855  1.00  0.00    -0.345 OA 
HETATM   16  H   UNL     2      -9.793   9.712  63.928  1.00  0.00     0.000 HD 
BRANCH  14  17
HETATM   17  C   UNL     2     -10.508  12.193  64.070  1.00  0.00    -0.386 C  
HETATM   18  H   UNL     2      -9.699  12.389  62.303  1.00  0.00     0.000 HD 
HETATM   19  O   UNL     2      -9.819  11.670  62.913  1.00  0.00    -0.367 OA 
BRANCH  17  20
HETATM   20  C   UNL     2     -11.772  12.959  63.680  1.00  0.00    -0.508 C  
HETATM   21  O   UNL     2     -12.961  12.175  63.924  1.00  0.00    -0.726 OA 
HETATM   22  C   UNL     2     -11.818  14.255  64.537  1.00  0.00    -0.442 C  
HETATM   23  H   UNL     2     -13.747  12.651  63.681  1.00  0.00     0.000 HD 
HETATM   24  O   UNL     2     -10.699  14.813  64.690  1.00  0.00    -0.379 OA 
HETATM   25  O   UNL     2     -12.970  14.530  64.967  1.00  0.00    -0.564 OA 
ENDBRANCH  17  20
ENDBRANCH  14  17
ENDBRANCH  11  14
ENDBRANCH   8  11
ENDBRANCH   5   8
BRANCH   6  26
HETATM   26  C   UNL     3     -11.565   6.600  71.882  1.00  0.00    -0.303 C  
HETATM   27  H   UNL     3     -11.693   8.495  71.602  1.00  0.00     0.000 HD 
HETATM   28  O   UNL     3     -11.378   7.944  72.309  1.00  0.00    -0.287 OA 
BRANCH  26  29
HETATM   29  C   UNL     3     -10.867   6.283  70.533  1.00  0.00    -0.288 C  
HETATM   30  O   UNL     3     -11.868   6.402  69.428  1.00  0.00    -0.577 OA 
HETATM   31  H   UNL     3     -11.441   6.207  68.603  1.00  0.00     0.000 HD 
BRANCH  29  32
HETATM   32  C   UNL     3      -9.792   7.311  70.117  1.00  0.00    -0.179 C  
HETATM   33  H   UNL     3      -9.821   9.054  69.200  1.00  0.00     0.000 HD 
HETATM   34  O   UNL     3     -10.482   8.421  69.456  1.00  0.00    -0.220 OA 
BRANCH  32  35
HETATM   35  C   UNL     3      -8.420   6.961  69.522  1.00  0.00    -0.133 C  
HETATM   36  H   UNL     3      -7.189   5.482  69.715  1.00  0.00     0.000 HD 
HETATM   37  O   UNL     3      -8.038   5.698  70.083  1.00  0.00    -0.099 OA 
BRANCH  35  38
HETATM   38  C   UNL     3      -8.308   6.976  68.001  1.00  0.00    -0.119 C  
HETATM   39  C   UNL     3      -7.604   8.271  67.518  1.00  0.00    -0.098 C  
HETATM   40  O   UNL     3      -9.611   6.906  67.389  1.00  0.00    -0.130 OA 
HETATM   41  O   UNL     3      -7.171   9.044  68.429  1.00  0.00    -0.075 OA 
HETATM   42  O   UNL     3      -7.760   8.504  66.287  1.00  0.00    -0.091 OA 
HETATM   43  H   UNL     3      -9.542   6.915  66.441  1.00  0.00     0.000 HD 
ENDBRANCH  35  38
ENDBRANCH  32  35
ENDBRANCH  29  32
ENDBRANCH  26  29
ENDBRANCH   6  26
TORSDOF 10
ENDMDL
MODEL      126
REMARK 921   NORMALIZED FREE ENERGY PREDICTED BY IDOCK:   -5.98 KCAL/MOL
REMARK 922        TOTAL FREE ENERGY PREDICTED BY IDOCK:  -11.98 KCAL/MOL
REMARK 923 INTER-LIGAND FREE ENERGY PREDICTED BY IDOCK:   -9.22 KCAL/MOL
REMARK 924 INTRA-LIGAND FREE ENERGY PREDICTED BY IDOCK:   -2.75 KCAL/MOL
REMARK 927      BINDING AFFINITY PREDICTED BY RF-SCORE:    0.00 PKD
ROOT
HETATM    1 CA   UNL     1      -9.230  13.617  64.356  1.00  0.00    -0.515 Ca 
HETATM    2  O   UNL     2      -7.545  18.482  66.889  1.00  0.00    -0.212 OA 
HETATM    3  O   UNL     3      -9.016   7.412  65.355  1.00  0.00    -0.376 OA 
HETATM    4  H   UNL     2      -6.780  18.711  66.375  1.00  0.00     0.000 HD 
HETATM    5  C   UNL     2      -8.058  17.235  66.424  1.00  0.00    -0.293 C  
HETATM    6  C   UNL     3      -8.331   8.454  64.666  1.00  0.00    -0.127 C  
HETATM    7  H   UNL     3      -9.226   6.706  64.756  1.00  0.00     0.000 HD 
ENDROOT
BRANCH   5   8
HETATM    8  C   UNL     2      -9.301  16.863  67.259  1.00  0.00    -0.236 C  
HETATM    9  O   UNL     2      -9.554  17.926  68.172  1.00  0.00    -0.283 OA 
HETATM   10  H   UNL     2     -10.319  17.697  68.687  1.00  0.00     0.000 HD 
BRANCH   8  11
HETATM   11  C   UNL     2     -10.542  16.694  66.369  1.00  0.00    -0.200 C  
HETATM   12  H   UNL     2     -11.000  16.664  64.413  1.00  0.00     0.000 HD 
HETATM   13  O   UNL     2     -10.233  16.769  64.963  1.00  0.00    -0.519 OA 
BRANCH  11  14
HETATM   14  C   UNL     2     -11.497  15.498  66.607  1.00  0.00     0.068 C  
HETATM   15  O   UNL     2     -11.764  15.357  67.993  1.00  0.00    -0.342 OA 
HETATM   16  H   UNL     2     -12.350  14.623  68.139  1.00  0.00     0.000 HD 
BRANCH  14  17
HETATM   17  C   UNL     2     -11.204  14.181  65.863  1.00  0.00    -0.313 C  
HETATM   18  H   UNL     2      -9.976  12.685  66.127  1.00  0.00     0.000 HD 
HETATM   19  O   UNL     2     -10.157  13.497  66.586  1.00  0.00    -0.264 OA 
BRANCH  17  20
HETATM   20  C   UNL     2     -12.407  13.271  65.614  1.00  0.00    -0.465 C  
HETATM   21  O   UNL     2     -13.635  14.028  65.532  1.00  0.00    -0.673 OA 
HETATM   22  C   UNL     2     -12.163  12.529  64.270  1.00  0.00    -0.452 C  
HETATM   23  H   UNL     2     -14.383  13.463  65.378  1.00  0.00     0.000 HD 
HETATM   24  O   UNL     2     -10.973  12.155  64.096  1.00  0.00    -0.306 OA 
HETATM   25  O   UNL     2     -13.194  12.442  63.552  1.00  0.00    -0.608 OA 
ENDBRANCH  17  20
ENDBRANCH  14  17
ENDBRANCH  11  14
ENDBRANCH   8  11
ENDBRANCH   5   8
BRANCH   6  26
HETATM   26  C   UNL     3      -7.990   9.595  65.634  1.00  0.00    -0.113 C  
HETATM   27  H   UNL     3      -7.043  11.258  65.482  1.00  0.00     0.000 HD 
HETATM   28  O   UNL     3      -7.254  10.552  64.883  1.00  0.00    -0.089 OA 
BRANCH  26  29
HETATM   29  C   UNL     3      -9.254  10.189  66.312  1.00  0.00    -0.157 C  
HETATM   30  O   UNL     3     -10.468   9.697  65.591  1.00  0.00    -0.115 OA 
HETATM   31  H   UNL     3     -11.242  10.061  66.006  1.00  0.00     0.000 HD 
BRANCH  29  32
HETATM   32  C   UNL     3      -9.497   9.687  67.751  1.00  0.00    -0.127 C  
HETATM   33  H   UNL     3     -10.591   8.261  68.557  1.00  0.00     0.000 HD 
HETATM   34  O   UNL     3     -10.442   8.570  67.671  1.00  0.00    -0.244 OA 
BRANCH  32  35
HETATM   35  C   UNL     3      -9.671  10.588  68.984  1.00  0.00    -0.210 C  
HETATM   36  H   UNL     3      -8.888  12.256  69.572  1.00  0.00     0.000 HD 
HETATM   37  O   UNL     3      -8.780  11.698  68.810  1.00  0.00    -0.119 OA 
BRANCH  35  38
HETATM   38  C   UNL     3     -11.092  11.032  69.312  1.00  0.00    -0.254 C  
HETATM   39  C   UNL     3     -11.676  10.181  70.470  1.00  0.00    -0.322 C  
HETATM   40  O   UNL     3     -11.952  10.898  68.164  1.00  0.00    -0.744 OA 
HETATM   41  O   UNL     3     -10.884   9.341  71.000  1.00  0.00    -0.260 OA 
HETATM   42  O   UNL     3     -12.931  10.269  70.582  1.00  0.00    -0.354 OA 
HETATM   43  H   UNL     3     -12.838  11.175  68.369  1.00  0.00     0.000 HD 
ENDBRANCH  35  38
ENDBRANCH  32  35
ENDBRANCH  29  32
ENDBRANCH  26  29
ENDBRANCH   6  26
TORSDOF 10
ENDMDL
MODEL      127
REMARK 921   NORMALIZED FREE ENERGY PREDICTED BY IDOCK:   -5.98 KCAL/MOL
REMARK 922        TOTAL FREE ENERGY PREDICTED BY IDOCK:  -11.97 KCAL/MOL
REMARK 923 INTER-LIGAND FREE ENERGY PREDICTED BY IDOCK:  -10.13 KCAL/MOL
REMARK 924 INTRA-LIGAND FREE ENERGY PREDICTED BY IDOCK:   -1.84 KCAL/MOL
REMARK 927      BINDING AFFINITY PREDICTED BY RF-SCORE:    0.00 PKD
ROOT
HETATM    1 CA   UNL     1     -11.866   8.760  66.887  1.00  0.00     0.005 Ca 
HETATM    2  O   UNL     2      -8.665  11.600  63.064  1.00  0.00    -0.544 OA 
HETATM    3  O   UNL     3     -13.419   9.089  72.972  1.00  0.00    -0.888 OA 
HETATM    4  H   UNL     2      -7.901  11.038  62.999  1.00  0.00     0.000 HD 
HETATM    5  C   UNL     2      -9.551  11.061  64.045  1.00  0.00    -0.272 C  
HETATM    6  C   UNL     3     -12.505   8.446  72.088  1.00  0.00    -0.370 C  
HETATM    7  H   UNL     3     -13.867   8.444  73.507  1.00  0.00     0.000 HD 
ENDROOT
BRANCH   5   8
HETATM    8  C   UNL     2     -10.791  11.974  64.152  1.00  0.00    -0.352 C  
HETATM    9  O   UNL     2     -11.787  11.471  63.267  1.00  0.00    -0.838 OA 
HETATM   10  H   UNL     2     -12.550  12.033  63.333  1.00  0.00     0.000 HD 
BRANCH   8  11
HETATM   11  C   UNL     2     -11.369  11.965  65.576  1.00  0.00    -0.277 C  
HETATM   12  H   UNL     2     -10.973  11.126  67.358  1.00  0.00     0.000 HD 
HETATM   13  O   UNL     2     -10.615  11.131  66.477  1.00  0.00    -0.247 OA 
BRANCH  11  14
HETATM   14  C   UNL     2     -11.684  13.307  66.282  1.00  0.00    -0.369 C  
HETATM   15  O   UNL     2     -12.944  13.797  65.854  1.00  0.00    -0.407 OA 
HETATM   16  H   UNL     2     -13.137  14.621  66.287  1.00  0.00     0.000 HD 
BRANCH  14  17
HETATM   17  C   UNL     2     -10.566  14.364  66.357  1.00  0.00    -0.297 C  
HETATM   18  H   UNL     2      -8.669  14.342  66.826  1.00  0.00     0.000 HD 
HETATM   19  O   UNL     2      -9.359  13.689  66.779  1.00  0.00    -0.250 OA 
BRANCH  17  20
HETATM   20  C   UNL     2     -10.339  15.191  65.092  1.00  0.00    -0.385 C  
HETATM   21  O   UNL     2     -11.233  14.788  64.030  1.00  0.00    -0.527 OA 
HETATM   22  C   UNL     2     -10.599  16.680  65.454  1.00  0.00    -0.237 C  
HETATM   23  H   UNL     2     -11.092  15.302  63.244  1.00  0.00     0.000 HD 
HETATM   24  O   UNL     2     -10.159  17.021  66.584  1.00  0.00    -0.284 OA 
HETATM   25  O   UNL     2     -11.236  17.307  64.565  1.00  0.00    -1.083 OA 
ENDBRANCH  17  20
ENDBRANCH  14  17
ENDBRANCH  11  14
ENDBRANCH   8  11
ENDBRANCH   5   8
BRANCH   6  26
HETATM   26  C   UNL     3     -11.782   9.488  71.224  1.00  0.00    -0.370 C  
HETATM   27  H   UNL     3     -11.870  11.398  71.055  1.00  0.00     0.000 HD 
HETATM   28  O   UNL     3     -12.318  10.753  71.590  1.00  0.00    -0.315 OA 
BRANCH  26  29
HETATM   29  C   UNL     3     -10.240   9.408  71.374  1.00  0.00    -0.227 C  
HETATM   30  O   UNL     3      -9.853   7.996  71.676  1.00  0.00    -0.158 OA 
HETATM   31  H   UNL     3      -8.908   7.948  71.768  1.00  0.00     0.000 HD 
BRANCH  29  32
HETATM   32  C   UNL     3      -9.460   9.694  70.072  1.00  0.00    -0.240 C  
HETATM   33  H   UNL     3      -9.739   9.275  68.168  1.00  0.00     0.000 HD 
HETATM   34  O   UNL     3     -10.218   9.098  68.969  1.00  0.00    -0.195 OA 
BRANCH  32  35
HETATM   35  C   UNL     3      -7.933   9.611  69.921  1.00  0.00    -0.167 C  
HETATM   36  H   UNL     3      -6.671   8.177  69.622  1.00  0.00     0.000 HD 
HETATM   37  O   UNL     3      -7.615   8.229  69.716  1.00  0.00    -0.087 OA 
BRANCH  35  38
HETATM   38  C   UNL     3      -7.299  10.513  68.868  1.00  0.00    -0.098 C  
HETATM   39  C   UNL     3      -6.335  11.533  69.529  1.00  0.00    -0.116 C  
HETATM   40  O   UNL     3      -8.307  11.241  68.138  1.00  0.00    -0.129 OA 
HETATM   41  O   UNL     3      -6.165  11.408  70.783  1.00  0.00    -0.343 OA 
HETATM   42  O   UNL     3      -6.027  12.500  68.780  1.00  0.00    -0.061 OA 
HETATM   43  H   UNL     3      -7.912  11.803  67.481  1.00  0.00     0.000 HD 
ENDBRANCH  35  38
ENDBRANCH  32  35
ENDBRANCH  29  32
ENDBRANCH  26  29
ENDBRANCH   6  26
TORSDOF 10
ENDMDL
MODEL      128
REMARK 921   NORMALIZED FREE ENERGY PREDICTED BY IDOCK:   -5.98 KCAL/MOL
REMARK 922        TOTAL FREE ENERGY PREDICTED BY IDOCK:  -11.97 KCAL/MOL
REMARK 923 INTER-LIGAND FREE ENERGY PREDICTED BY IDOCK:   -9.47 KCAL/MOL
REMARK 924 INTRA-LIGAND FREE ENERGY PREDICTED BY IDOCK:   -2.50 KCAL/MOL
REMARK 927      BINDING AFFINITY PREDICTED BY RF-SCORE:    0.00 PKD
ROOT
HETATM    1 CA   UNL     1      -8.816  11.726  69.792  1.00  0.00    -0.323 Ca 
HETATM    2  O   UNL     2     -11.646  16.533  71.134  1.00  0.00    -0.612 OA 
HETATM    3  O   UNL     3      -9.049   5.564  71.030  1.00  0.00    -0.141 OA 
HETATM    4  H   UNL     2     -11.063  16.927  71.773  1.00  0.00     0.000 HD 
HETATM    5  C   UNL     2     -11.112  15.271  70.738  1.00  0.00    -0.302 C  
HETATM    6  C   UNL     3      -8.399   6.761  71.448  1.00  0.00    -0.119 C  
HETATM    7  H   UNL     3      -8.406   4.893  70.833  1.00  0.00     0.000 HD 
ENDROOT
BRANCH   5   8
HETATM    8  C   UNL     2     -12.059  14.631  69.701  1.00  0.00    -0.311 C  
HETATM    9  O   UNL     2     -12.255  15.567  68.646  1.00  0.00    -0.567 OA 
HETATM   10  H   UNL     2     -12.838  15.173  68.007  1.00  0.00     0.000 HD 
BRANCH   8  11
HETATM   11  C   UNL     2     -11.447  13.356  69.099  1.00  0.00    -0.300 C  
HETATM   12  H   UNL     2     -11.183  11.429  69.603  1.00  0.00     0.000 HD 
HETATM   13  O   UNL     2     -11.561  12.217  69.975  1.00  0.00    -0.260 OA 
BRANCH  11  14
HETATM   14  C   UNL     2     -11.840  12.923  67.664  1.00  0.00    -0.346 C  
HETATM   15  O   UNL     2     -12.119  11.533  67.636  1.00  0.00    -0.623 OA 
HETATM   16  H   UNL     2     -12.360  11.267  66.755  1.00  0.00     0.000 HD 
BRANCH  14  17
HETATM   17  C   UNL     2     -10.983  13.440  66.493  1.00  0.00    -0.290 C  
HETATM   18  H   UNL     2      -9.215  13.016  65.778  1.00  0.00     0.000 HD 
HETATM   19  O   UNL     2      -9.744  12.697  66.501  1.00  0.00    -0.244 OA 
BRANCH  17  20
HETATM   20  C   UNL     2     -11.648  13.420  65.117  1.00  0.00    -0.308 C  
HETATM   21  O   UNL     2     -12.998  12.910  65.189  1.00  0.00    -0.758 OA 
HETATM   22  C   UNL     2     -11.671  14.881  64.588  1.00  0.00    -0.404 C  
HETATM   23  H   UNL     2     -13.411  12.898  64.334  1.00  0.00     0.000 HD 
HETATM   24  O   UNL     2     -10.623  15.536  64.833  1.00  0.00    -0.423 OA 
HETATM   25  O   UNL     2     -12.751  15.189  64.015  1.00  0.00    -0.746 OA 
ENDBRANCH  17  20
ENDBRANCH  14  17
ENDBRANCH  11  14
ENDBRANCH   8  11
ENDBRANCH   5   8
BRANCH   6  26
HETATM   26  C   UNL     3      -9.439   7.845  71.766  1.00  0.00    -0.158 C  
HETATM   27  H   UNL     3      -9.418   9.486  72.762  1.00  0.00     0.000 HD 
HETATM   28  O   UNL     3      -8.775   8.815  72.565  1.00  0.00    -0.406 OA 
BRANCH  26  29
HETATM   29  C   UNL     3     -10.079   8.441  70.484  1.00  0.00    -0.190 C  
HETATM   30  O   UNL     3     -10.018   9.933  70.559  1.00  0.00    -0.345 OA 
HETATM   31  H   UNL     3     -10.410  10.297  69.774  1.00  0.00     0.000 HD 
BRANCH  29  32
HETATM   32  C   UNL     3      -9.297   8.142  69.187  1.00  0.00    -0.151 C  
HETATM   33  H   UNL     3      -7.983   9.129  68.101  1.00  0.00     0.000 HD 
HETATM   34  O   UNL     3      -8.465   9.313  68.899  1.00  0.00    -0.124 OA 
BRANCH  32  35
HETATM   35  C   UNL     3      -9.876   7.445  67.946  1.00  0.00    -0.148 C  
HETATM   36  H   UNL     3     -10.790   8.044  66.350  1.00  0.00     0.000 HD 
HETATM   37  O   UNL     3     -10.431   8.475  67.118  1.00  0.00    -0.290 OA 
BRANCH  35  38
HETATM   38  C   UNL     3      -8.937   6.525  67.175  1.00  0.00    -0.113 C  
HETATM   39  C   UNL     3      -9.080   5.061  67.666  1.00  0.00    -0.113 C  
HETATM   40  O   UNL     3      -7.564   6.933  67.342  1.00  0.00    -0.103 OA 
HETATM   41  O   UNL     3      -9.981   4.850  68.537  1.00  0.00    -0.155 OA 
HETATM   42  O   UNL     3      -8.129   4.311  67.311  1.00  0.00    -0.099 OA 
HETATM   43  H   UNL     3      -6.978   6.360  66.861  1.00  0.00     0.000 HD 
ENDBRANCH  35  38
ENDBRANCH  32  35
ENDBRANCH  29  32
ENDBRANCH  26  29
ENDBRANCH   6  26
TORSDOF 10
ENDMDL
MODEL      129
REMARK 921   NORMALIZED FREE ENERGY PREDICTED BY IDOCK:   -5.97 KCAL/MOL
REMARK 922        TOTAL FREE ENERGY PREDICTED BY IDOCK:  -11.97 KCAL/MOL
REMARK 923 INTER-LIGAND FREE ENERGY PREDICTED BY IDOCK:  -10.04 KCAL/MOL
REMARK 924 INTRA-LIGAND FREE ENERGY PREDICTED BY IDOCK:   -1.93 KCAL/MOL
REMARK 927      BINDING AFFINITY PREDICTED BY RF-SCORE:    0.00 PKD
ROOT
HETATM    1 CA   UNL     1     -12.723  16.018  68.540  1.00  0.00    -0.528 Ca 
HETATM    2  O   UNL     2     -13.427  12.123  72.694  1.00  0.00    -0.582 OA 
HETATM    3  O   UNL     3      -8.080  19.218  65.756  1.00  0.00    -0.448 OA 
HETATM    4  H   UNL     2     -13.751  12.661  73.408  1.00  0.00     0.000 HD 
HETATM    5  C   UNL     2     -13.132  12.965  71.580  1.00  0.00    -0.335 C  
HETATM    6  C   UNL     3      -9.059  19.342  66.784  1.00  0.00    -0.334 C  
HETATM    7  H   UNL     3      -8.140  19.952  65.155  1.00  0.00     0.000 HD 
ENDROOT
BRANCH   5   8
HETATM    8  C   UNL     2     -12.605  12.092  70.421  1.00  0.00    -0.049 C  
HETATM    9  O   UNL     2     -11.334  12.599  70.028  1.00  0.00    -0.505 OA 
HETATM   10  H   UNL     2     -11.010  12.062  69.314  1.00  0.00     0.000 HD 
BRANCH   8  11
HETATM   11  C   UNL     2     -12.420  10.631  70.861  1.00  0.00    -0.397 C  
HETATM   12  H   UNL     2     -13.554   9.080  71.450  1.00  0.00     0.000 HD 
HETATM   13  O   UNL     2     -13.668   9.983  71.178  1.00  0.00    -0.248 OA 
BRANCH  11  14
HETATM   14  C   UNL     2     -11.566   9.673  69.994  1.00  0.00    -0.088 C  
HETATM   15  O   UNL     2     -12.037   8.342  70.133  1.00  0.00    -0.314 OA 
HETATM   16  H   UNL     2     -11.513   7.754  69.601  1.00  0.00     0.000 HD 
BRANCH  14  17
HETATM   17  C   UNL     2     -10.035   9.831  70.038  1.00  0.00    -0.254 C  
HETATM   18  H   UNL     2      -8.623   9.303  71.281  1.00  0.00     0.000 HD 
HETATM   19  O   UNL     2      -9.568   9.205  71.255  1.00  0.00    -0.275 OA 
BRANCH  17  20
HETATM   20  C   UNL     2      -9.274   9.324  68.813  1.00  0.00    -0.136 C  
HETATM   21  O   UNL     2      -9.518   7.919  68.582  1.00  0.00    -0.149 OA 
HETATM   22  C   UNL     2      -9.763  10.145  67.587  1.00  0.00    -0.161 C  
HETATM   23  H   UNL     2      -9.045   7.605  67.821  1.00  0.00     0.000 HD 
HETATM   24  O   UNL     2      -9.944  11.369  67.824  1.00  0.00    -0.173 OA 
HETATM   25  O   UNL     2      -9.927   9.447  66.550  1.00  0.00    -0.231 OA 
ENDBRANCH  17  20
ENDBRANCH  14  17
ENDBRANCH  11  14
ENDBRANCH   8  11
ENDBRANCH   5   8
BRANCH   6  26
HETATM   26  C   UNL     3      -8.961  18.157  67.754  1.00  0.00    -0.263 C  
HETATM   27  H   UNL     3     -10.072  17.467  69.159  1.00  0.00     0.000 HD 
HETATM   28  O   UNL     3     -10.132  18.200  68.558  1.00  0.00    -0.366 OA 
BRANCH  26  29
HETATM   29  C   UNL     3      -8.774  16.805  67.015  1.00  0.00    -0.204 C  
HETATM   30  O   UNL     3      -7.671  16.040  67.672  1.00  0.00    -0.132 OA 
HETATM   31  H   UNL     3      -7.557  15.213  67.219  1.00  0.00     0.000 HD 
BRANCH  29  32
HETATM   32  C   UNL     3      -9.972  15.840  67.147  1.00  0.00    -0.242 C  
HETATM   33  H   UNL     3     -10.284  14.139  68.090  1.00  0.00     0.000 HD 
HETATM   34  O   UNL     3      -9.547  14.733  68.008  1.00  0.00    -0.203 OA 
BRANCH  32  35
HETATM   35  C   UNL     3     -10.912  15.437  66.001  1.00  0.00    -0.286 C  
HETATM   36  H   UNL     3     -10.843  15.569  64.072  1.00  0.00     0.000 HD 
HETATM   37  O   UNL     3     -10.261  15.819  64.781  1.00  0.00    -0.403 OA 
BRANCH  35  38
HETATM   38  C   UNL     3     -11.381  13.986  65.976  1.00  0.00    -0.328 C  
HETATM   39  C   UNL     3     -12.343  13.742  64.784  1.00  0.00    -0.386 C  
HETATM   40  O   UNL     3     -12.067  13.646  67.198  1.00  0.00    -0.389 OA 
HETATM   41  O   UNL     3     -12.516  14.725  63.996  1.00  0.00    -0.803 OA 
HETATM   42  O   UNL     3     -13.012  12.676  64.881  1.00  0.00    -0.830 OA 
HETATM   43  H   UNL     3     -12.360  12.742  67.183  1.00  0.00     0.000 HD 
ENDBRANCH  35  38
ENDBRANCH  32  35
ENDBRANCH  29  32
ENDBRANCH  26  29
ENDBRANCH   6  26
TORSDOF 10
ENDMDL
MODEL      130
REMARK 921   NORMALIZED FREE ENERGY PREDICTED BY IDOCK:   -5.96 KCAL/MOL
REMARK 922        TOTAL FREE ENERGY PREDICTED BY IDOCK:  -11.95 KCAL/MOL
REMARK 923 INTER-LIGAND FREE ENERGY PREDICTED BY IDOCK:  -10.11 KCAL/MOL
REMARK 924 INTRA-LIGAND FREE ENERGY PREDICTED BY IDOCK:   -1.84 KCAL/MOL
REMARK 927      BINDING AFFINITY PREDICTED BY RF-SCORE:    0.00 PKD
ROOT
HETATM    1 CA   UNL     1     -10.805  18.633  70.069  1.00  0.00    -0.482 Ca 
HETATM    2  O   UNL     2     -12.255  13.393  71.902  1.00  0.00    -0.023 OA 
HETATM    3  O   UNL     3      -6.665  21.338  66.183  1.00  0.00    -0.508 OA 
HETATM    4  H   UNL     2     -11.861  13.376  72.766  1.00  0.00     0.000 HD 
HETATM    5  C   UNL     2     -11.926  14.628  71.268  1.00  0.00    -0.343 C  
HETATM    6  C   UNL     3      -6.859  21.018  67.558  1.00  0.00    -0.349 C  
HETATM    7  H   UNL     3      -6.453  22.259  66.087  1.00  0.00     0.000 HD 
ENDROOT
BRANCH   5   8
HETATM    8  C   UNL     2     -12.567  14.655  69.864  1.00  0.00    -0.180 C  
HETATM    9  O   UNL     2     -12.733  16.016  69.481  1.00  0.00    -0.472 OA 
HETATM   10  H   UNL     2     -13.128  16.033  68.617  1.00  0.00     0.000 HD 
BRANCH   8  11
HETATM   11  C   UNL     2     -11.662  13.975  68.824  1.00  0.00    -0.353 C  
HETATM   12  H   UNL     2      -9.727  13.974  68.282  1.00  0.00     0.000 HD 
HETATM   13  O   UNL     2     -10.286  14.394  68.924  1.00  0.00    -0.236 OA 
BRANCH  11  14
HETATM   14  C   UNL     2     -11.704  12.435  68.665  1.00  0.00    -0.326 C  
HETATM   15  O   UNL     2     -11.019  11.816  69.742  1.00  0.00    -0.460 OA 
HETATM   16  H   UNL     2     -11.045  10.871  69.644  1.00  0.00     0.000 HD 
BRANCH  14  17
HETATM   17  C   UNL     2     -11.402  11.844  67.275  1.00  0.00    -0.329 C  
HETATM   18  H   UNL     2     -12.084  12.136  65.468  1.00  0.00     0.000 HD 
HETATM   19  O   UNL     2     -12.270  12.501  66.326  1.00  0.00    -0.600 OA 
BRANCH  17  20
HETATM   20  C   UNL     2      -9.940  11.889  66.832  1.00  0.00    -0.200 C  
HETATM   21  O   UNL     2      -9.065  11.325  67.833  1.00  0.00    -0.142 OA 
HETATM   22  C   UNL     2      -9.824  11.067  65.517  1.00  0.00    -0.243 C  
HETATM   23  H   UNL     2      -8.157  11.353  67.558  1.00  0.00     0.000 HD 
HETATM   24  O   UNL     2     -10.787  11.228  64.721  1.00  0.00    -0.302 OA 
HETATM   25  O   UNL     2      -8.791  10.347  65.467  1.00  0.00    -0.161 OA 
ENDBRANCH  17  20
ENDBRANCH  14  17
ENDBRANCH  11  14
ENDBRANCH   8  11
ENDBRANCH   5   8
BRANCH   6  26
HETATM   26  C   UNL     3      -7.200  19.529  67.713  1.00  0.00    -0.255 C  
HETATM   27  H   UNL     3      -8.332  18.519  68.888  1.00  0.00     0.000 HD 
HETATM   28  O   UNL     3      -8.120  19.440  68.793  1.00  0.00    -0.359 OA 
BRANCH  26  29
HETATM   29  C   UNL     3      -7.739  18.909  66.396  1.00  0.00    -0.273 C  
HETATM   30  O   UNL     3      -7.201  17.521  66.257  1.00  0.00    -0.260 OA 
HETATM   31  H   UNL     3      -7.531  17.142  65.451  1.00  0.00     0.000 HD 
BRANCH  29  32
HETATM   32  C   UNL     3      -9.265  18.677  66.382  1.00  0.00    -0.291 C  
HETATM   33  H   UNL     3     -10.844  19.810  66.705  1.00  0.00     0.000 HD 
HETATM   34  O   UNL     3      -9.904  19.953  66.715  1.00  0.00    -0.367 OA 
BRANCH  32  35
HETATM   35  C   UNL     3      -9.975  17.436  66.946  1.00  0.00    -0.300 C  
HETATM   36  H   UNL     3     -11.229  17.122  68.384  1.00  0.00     0.000 HD 
HETATM   37  O   UNL     3     -10.790  17.889  68.035  1.00  0.00    -0.347 OA 
BRANCH  35  38
HETATM   38  C   UNL     3     -10.758  16.584  65.953  1.00  0.00    -0.190 C  
HETATM   39  C   UNL     3      -9.946  15.323  65.556  1.00  0.00    -0.348 C  
HETATM   40  O   UNL     3     -11.060  17.331  64.758  1.00  0.00    -0.954 OA 
HETATM   41  O   UNL     3      -8.839  15.159  66.159  1.00  0.00    -0.250 OA 
HETATM   42  O   UNL     3     -10.377  14.748  64.519  1.00  0.00    -0.202 OA 
HETATM   43  H   UNL     3     -11.548  16.800  64.140  1.00  0.00     0.000 HD 
ENDBRANCH  35  38
ENDBRANCH  32  35
ENDBRANCH  29  32
ENDBRANCH  26  29
ENDBRANCH   6  26
TORSDOF 10
ENDMDL
MODEL      131
REMARK 921   NORMALIZED FREE ENERGY PREDICTED BY IDOCK:   -5.96 KCAL/MOL
REMARK 922        TOTAL FREE ENERGY PREDICTED BY IDOCK:  -11.94 KCAL/MOL
REMARK 923 INTER-LIGAND FREE ENERGY PREDICTED BY IDOCK:   -8.63 KCAL/MOL
REMARK 924 INTRA-LIGAND FREE ENERGY PREDICTED BY IDOCK:   -3.31 KCAL/MOL
REMARK 927      BINDING AFFINITY PREDICTED BY RF-SCORE:    0.00 PKD
ROOT
HETATM    1 CA   UNL     1      -7.291  10.452  70.361  1.00  0.00    -0.119 Ca 
HETATM    2  O   UNL     2     -10.998  13.952  67.729  1.00  0.00    -0.250 OA 
HETATM    3  O   UNL     3      -6.922   4.465  72.251  1.00  0.00    -0.054 OA 
HETATM    4  H   UNL     2     -11.336  14.458  68.459  1.00  0.00     0.000 HD 
HETATM    5  C   UNL     2     -10.093  12.969  68.228  1.00  0.00    -0.239 C  
HETATM    6  C   UNL     3      -7.241   5.768  72.731  1.00  0.00    -0.090 C  
HETATM    7  H   UNL     3      -6.274   4.058  72.813  1.00  0.00     0.000 HD 
ENDROOT
BRANCH   5   8
HETATM    8  C   UNL     2      -9.544  12.148  67.042  1.00  0.00    -0.205 C  
HETATM    9  O   UNL     2      -8.469  11.347  67.519  1.00  0.00    -0.131 OA 
HETATM   10  H   UNL     2      -8.131  10.841  66.789  1.00  0.00     0.000 HD 
BRANCH   8  11
HETATM   11  C   UNL     2     -10.619  11.210  66.468  1.00  0.00    -0.262 C  
HETATM   12  H   UNL     2     -12.613  10.980  66.542  1.00  0.00     0.000 HD 
HETATM   13  O   UNL     2     -11.949  11.560  66.897  1.00  0.00    -0.516 OA 
BRANCH  11  14
HETATM   14  C   UNL     2     -10.645  10.918  64.947  1.00  0.00    -0.234 C  
HETATM   15  O   UNL     2      -9.865   9.769  64.659  1.00  0.00    -0.419 OA 
HETATM   16  H   UNL     2      -9.882   9.590  63.726  1.00  0.00     0.000 HD 
BRANCH  14  17
HETATM   17  C   UNL     2     -10.444  12.101  63.981  1.00  0.00    -0.386 C  
HETATM   18  H   UNL     2      -9.588  12.337  62.241  1.00  0.00     0.000 HD 
HETATM   19  O   UNL     2      -9.712  11.607  62.837  1.00  0.00    -0.382 OA 
BRANCH  17  20
HETATM   20  C   UNL     2     -11.711  12.847  63.564  1.00  0.00    -0.512 C  
HETATM   21  O   UNL     2     -12.872  11.989  63.616  1.00  0.00    -0.713 OA 
HETATM   22  C   UNL     2     -11.898  14.037  64.547  1.00  0.00    -0.434 C  
HETATM   23  H   UNL     2     -13.659  12.453  63.357  1.00  0.00     0.000 HD 
HETATM   24  O   UNL     2     -10.827  14.624  64.858  1.00  0.00    -0.388 OA 
HETATM   25  O   UNL     2     -13.095  14.210  64.900  1.00  0.00    -0.677 OA 
ENDBRANCH  17  20
ENDBRANCH  14  17
ENDBRANCH  11  14
ENDBRANCH   8  11
ENDBRANCH   5   8
BRANCH   6  26
HETATM   26  C   UNL     3      -8.290   6.426  71.823  1.00  0.00    -0.120 C  
HETATM   27  H   UNL     3      -9.950   5.858  71.047  1.00  0.00     0.000 HD 
HETATM   28  O   UNL     3      -9.301   5.450  71.609  1.00  0.00    -0.144 OA 
BRANCH  26  29
HETATM   29  C   UNL     3      -8.833   7.752  72.417  1.00  0.00    -0.142 C  
HETATM   30  O   UNL     3      -7.928   8.872  72.012  1.00  0.00    -0.350 OA 
HETATM   31  H   UNL     3      -8.261   9.684  72.376  1.00  0.00     0.000 HD 
BRANCH  29  32
HETATM   32  C   UNL     3     -10.192   8.198  71.836  1.00  0.00    -0.224 C  
HETATM   33  H   UNL     3     -12.010   8.408  72.565  1.00  0.00     0.000 HD 
HETATM   34  O   UNL     3     -11.174   8.133  72.922  1.00  0.00    -0.381 OA 
BRANCH  32  35
HETATM   35  C   UNL     3     -10.736   7.800  70.455  1.00  0.00    -0.236 C  
HETATM   36  H   UNL     3     -12.497   7.460  69.731  1.00  0.00     0.000 HD 
HETATM   37  O   UNL     3     -12.160   7.706  70.585  1.00  0.00    -0.185 OA 
BRANCH  35  38
HETATM   38  C   UNL     3     -10.319   8.674  69.277  1.00  0.00    -0.221 C  
HETATM   39  C   UNL     3      -9.543   7.839  68.225  1.00  0.00    -0.155 C  
HETATM   40  O   UNL     3      -9.477   9.760  69.713  1.00  0.00    -0.201 OA 
HETATM   41  O   UNL     3      -9.454   6.592  68.457  1.00  0.00    -0.125 OA 
HETATM   42  O   UNL     3      -8.900   8.539  67.395  1.00  0.00    -0.132 OA 
HETATM   43  H   UNL     3      -9.217  10.304  68.979  1.00  0.00     0.000 HD 
ENDBRANCH  35  38
ENDBRANCH  32  35
ENDBRANCH  29  32
ENDBRANCH  26  29
ENDBRANCH   6  26
TORSDOF 10
ENDMDL
MODEL      132
REMARK 921   NORMALIZED FREE ENERGY PREDICTED BY IDOCK:   -5.95 KCAL/MOL
REMARK 922        TOTAL FREE ENERGY PREDICTED BY IDOCK:  -11.93 KCAL/MOL
REMARK 923 INTER-LIGAND FREE ENERGY PREDICTED BY IDOCK:   -8.92 KCAL/MOL
REMARK 924 INTRA-LIGAND FREE ENERGY PREDICTED BY IDOCK:   -3.01 KCAL/MOL
REMARK 927      BINDING AFFINITY PREDICTED BY RF-SCORE:    0.00 PKD
ROOT
HETATM    1 CA   UNL     1      -9.425  14.394  69.615  1.00  0.00    -0.332 Ca 
HETATM    2  O   UNL     2      -7.566   8.966  69.532  1.00  0.00    -0.076 OA 
HETATM    3  O   UNL     3     -10.790  19.017  65.576  1.00  0.00    -0.463 OA 
HETATM    4  H   UNL     2      -6.656   9.071  69.784  1.00  0.00     0.000 HD 
HETATM    5  C   UNL     2      -8.171  10.255  69.438  1.00  0.00    -0.165 C  
HETATM    6  C   UNL     3      -9.737  18.540  66.410  1.00  0.00    -0.336 C  
HETATM    7  H   UNL     3     -10.962  19.934  65.757  1.00  0.00     0.000 HD 
ENDROOT
BRANCH   5   8
HETATM    8  C   UNL     2      -9.649  10.084  69.029  1.00  0.00    -0.196 C  
HETATM    9  O   UNL     2      -9.827  10.685  67.751  1.00  0.00    -0.162 OA 
HETATM   10  H   UNL     2     -10.737  10.580  67.500  1.00  0.00     0.000 HD 
BRANCH   8  11
HETATM   11  C   UNL     2     -10.029   8.599  68.914  1.00  0.00    -0.189 C  
HETATM   12  H   UNL     2     -11.371   7.322  69.693  1.00  0.00     0.000 HD 
HETATM   13  O   UNL     2     -11.136   8.240  69.764  1.00  0.00    -0.182 OA 
BRANCH  11  14
HETATM   14  C   UNL     2     -10.250   7.972  67.515  1.00  0.00    -0.245 C  
HETATM   15  O   UNL     2     -11.392   7.131  67.534  1.00  0.00    -0.551 OA 
HETATM   16  H   UNL     2     -11.527   6.747  66.675  1.00  0.00     0.000 HD 
BRANCH  14  17
HETATM   17  C   UNL     2      -9.026   7.393  66.781  1.00  0.00    -0.141 C  
HETATM   18  H   UNL     2      -8.649   5.741  65.808  1.00  0.00     0.000 HD 
HETATM   19  O   UNL     2      -9.404   6.099  66.261  1.00  0.00    -0.157 OA 
BRANCH  17  20
HETATM   20  C   UNL     2      -8.410   8.281  65.700  1.00  0.00    -0.148 C  
HETATM   21  O   UNL     2      -9.295   9.365  65.340  1.00  0.00    -0.232 OA 
HETATM   22  C   UNL     2      -7.084   8.859  66.269  1.00  0.00    -0.083 C  
HETATM   23  H   UNL     2      -8.912   9.917  64.668  1.00  0.00     0.000 HD 
HETATM   24  O   UNL     2      -6.410   8.037  66.946  1.00  0.00    -0.053 OA 
HETATM   25  O   UNL     2      -6.903  10.072  65.982  1.00  0.00    -0.093 OA 
ENDBRANCH  17  20
ENDBRANCH  14  17
ENDBRANCH  11  14
ENDBRANCH   8  11
ENDBRANCH   5   8
BRANCH   6  26
HETATM   26  C   UNL     3      -9.459  17.059  66.116  1.00  0.00    -0.225 C  
HETATM   27  H   UNL     3      -8.673  15.612  67.102  1.00  0.00     0.000 HD 
HETATM   28  O   UNL     3      -8.845  16.528  67.284  1.00  0.00    -0.187 OA 
BRANCH  26  29
HETATM   29  C   UNL     3     -10.740  16.292  65.694  1.00  0.00    -0.286 C  
HETATM   30  O   UNL     3     -11.047  16.607  64.265  1.00  0.00    -1.270 OA 
HETATM   31  H   UNL     3     -11.831  16.138  64.007  1.00  0.00     0.000 HD 
BRANCH  29  32
HETATM   32  C   UNL     3     -10.581  14.757  65.668  1.00  0.00    -0.340 C  
HETATM   33  H   UNL     3      -9.735  13.471  64.438  1.00  0.00     0.000 HD 
HETATM   34  O   UNL     3      -9.834  14.416  64.454  1.00  0.00     0.131 OA 
BRANCH  32  35
HETATM   35  C   UNL     3     -11.674  13.748  66.053  1.00  0.00    -0.363 C  
HETATM   36  H   UNL     3     -13.036  13.675  67.425  1.00  0.00     0.000 HD 
HETATM   37  O   UNL     3     -12.359  14.298  67.186  1.00  0.00    -0.360 OA 
BRANCH  35  38
HETATM   38  C   UNL     3     -12.633  13.322  64.948  1.00  0.00    -0.384 C  
HETATM   39  C   UNL     3     -12.168  11.989  64.304  1.00  0.00    -0.308 C  
HETATM   40  O   UNL     3     -12.711  14.327  63.917  1.00  0.00    -0.749 OA 
HETATM   41  O   UNL     3     -11.152  11.439  64.833  1.00  0.00    -0.257 OA 
HETATM   42  O   UNL     3     -12.715  11.743  63.194  1.00  0.00    -0.513 OA 
HETATM   43  H   UNL     3     -13.309  14.061  63.228  1.00  0.00     0.000 HD 
ENDBRANCH  35  38
ENDBRANCH  32  35
ENDBRANCH  29  32
ENDBRANCH  26  29
ENDBRANCH   6  26
TORSDOF 10
ENDMDL
MODEL      133
REMARK 921   NORMALIZED FREE ENERGY PREDICTED BY IDOCK:   -5.94 KCAL/MOL
REMARK 922        TOTAL FREE ENERGY PREDICTED BY IDOCK:  -11.91 KCAL/MOL
REMARK 923 INTER-LIGAND FREE ENERGY PREDICTED BY IDOCK:   -9.68 KCAL/MOL
REMARK 924 INTRA-LIGAND FREE ENERGY PREDICTED BY IDOCK:   -2.23 KCAL/MOL
REMARK 927      BINDING AFFINITY PREDICTED BY RF-SCORE:    0.00 PKD
ROOT
HETATM    1 CA   UNL     1      -9.017  11.685  68.793  1.00  0.00    -0.147 Ca 
HETATM    2  O   UNL     2      -6.509   9.675  64.040  1.00  0.00    -0.100 OA 
HETATM    3  O   UNL     3     -13.693  15.558  70.431  1.00  0.00    -0.763 OA 
HETATM    4  H   UNL     2      -5.712  10.192  64.010  1.00  0.00     0.000 HD 
HETATM    5  C   UNL     2      -7.297  10.104  65.149  1.00  0.00    -0.141 C  
HETATM    6  C   UNL     3     -12.281  15.532  70.245  1.00  0.00    -0.400 C  
HETATM    7  H   UNL     3     -13.905  15.905  71.290  1.00  0.00     0.000 HD 
ENDROOT
BRANCH   5   8
HETATM    8  C   UNL     2      -8.591   9.265  65.198  1.00  0.00    -0.172 C  
HETATM    9  O   UNL     2      -8.836   8.756  63.891  1.00  0.00    -0.426 OA 
HETATM   10  H   UNL     2      -9.633   8.239  63.921  1.00  0.00     0.000 HD 
BRANCH   8  11
HETATM   11  C   UNL     2      -8.446   8.070  66.155  1.00  0.00    -0.135 C  
HETATM   12  H   UNL     2      -7.046   7.252  67.341  1.00  0.00     0.000 HD 
HETATM   13  O   UNL     2      -7.135   7.990  66.750  1.00  0.00    -0.077 OA 
BRANCH  11  14
HETATM   14  C   UNL     2      -9.509   7.839  67.256  1.00  0.00    -0.148 C  
HETATM   15  O   UNL     2     -10.744   8.420  66.869  1.00  0.00    -0.308 OA 
HETATM   16  H   UNL     2     -11.397   8.279  67.545  1.00  0.00     0.000 HD 
BRANCH  14  17
HETATM   17  C   UNL     2      -9.101   8.092  68.720  1.00  0.00    -0.144 C  
HETATM   18  H   UNL     2      -8.782   9.679  69.814  1.00  0.00     0.000 HD 
HETATM   19  O   UNL     2      -9.034   9.523  68.911  1.00  0.00    -0.135 OA 
BRANCH  17  20
HETATM   20  C   UNL     2      -9.968   7.418  69.783  1.00  0.00    -0.188 C  
HETATM   21  O   UNL     2     -11.371   7.502  69.452  1.00  0.00    -0.451 OA 
HETATM   22  C   UNL     2      -9.539   5.926  69.859  1.00  0.00    -0.158 C  
HETATM   23  H   UNL     2     -11.910   7.083  70.112  1.00  0.00     0.000 HD 
HETATM   24  O   UNL     2      -8.296   5.741  69.770  1.00  0.00    -0.109 OA 
HETATM   25  O   UNL     2     -10.510   5.131  69.973  1.00  0.00    -0.293 OA 
ENDBRANCH  17  20
ENDBRANCH  14  17
ENDBRANCH  11  14
ENDBRANCH   8  11
ENDBRANCH   5   8
BRANCH   6  26
HETATM   26  C   UNL     3     -11.939  14.972  68.858  1.00  0.00    -0.254 C  
HETATM   27  H   UNL     3     -10.800  15.532  67.418  1.00  0.00     0.000 HD 
HETATM   28  O   UNL     3     -11.011  15.879  68.277  1.00  0.00    -0.299 OA 
BRANCH  26  29
HETATM   29  C   UNL     3     -11.411  13.514  68.926  1.00  0.00    -0.306 C  
HETATM   30  O   UNL     3     -11.906  12.876  70.184  1.00  0.00    -0.443 OA 
HETATM   31  H   UNL     3     -11.583  11.984  70.225  1.00  0.00     0.000 HD 
BRANCH  29  32
HETATM   32  C   UNL     3     -11.981  12.582  67.835  1.00  0.00    -0.223 C  
HETATM   33  H   UNL     3     -12.616  10.717  67.797  1.00  0.00     0.000 HD 
HETATM   34  O   UNL     3     -12.265  11.291  68.468  1.00  0.00    -0.588 OA 
BRANCH  32  35
HETATM   35  C   UNL     3     -11.460  12.488  66.392  1.00  0.00    -0.365 C  
HETATM   36  H   UNL     3     -10.613  11.106  65.338  1.00  0.00     0.000 HD 
HETATM   37  O   UNL     3     -10.935  11.164  66.230  1.00  0.00    -0.251 OA 
BRANCH  35  38
HETATM   38  C   UNL     3     -12.439  12.862  65.285  1.00  0.00    -0.493 C  
HETATM   39  C   UNL     3     -11.677  13.247  63.989  1.00  0.00    -0.430 C  
HETATM   40  O   UNL     3     -13.264  13.976  65.681  1.00  0.00    -0.634 OA 
HETATM   41  O   UNL     3     -10.414  13.114  64.024  1.00  0.00    -0.405 OA 
HETATM   42  O   UNL     3     -12.387  13.865  63.148  1.00  0.00    -0.696 OA 
HETATM   43  H   UNL     3     -13.874  14.209  64.991  1.00  0.00     0.000 HD 
ENDBRANCH  35  38
ENDBRANCH  32  35
ENDBRANCH  29  32
ENDBRANCH  26  29
ENDBRANCH   6  26
TORSDOF 10
ENDMDL
MODEL      134
REMARK 921   NORMALIZED FREE ENERGY PREDICTED BY IDOCK:   -5.93 KCAL/MOL
REMARK 922        TOTAL FREE ENERGY PREDICTED BY IDOCK:  -11.90 KCAL/MOL
REMARK 923 INTER-LIGAND FREE ENERGY PREDICTED BY IDOCK:   -9.56 KCAL/MOL
REMARK 924 INTRA-LIGAND FREE ENERGY PREDICTED BY IDOCK:   -2.34 KCAL/MOL
REMARK 927      BINDING AFFINITY PREDICTED BY RF-SCORE:    0.00 PKD
ROOT
HETATM    1 CA   UNL     1      -9.227  13.922  69.468  1.00  0.00    -0.366 Ca 
HETATM    2  O   UNL     2      -6.840   8.710  69.221  1.00  0.00    -0.049 OA 
HETATM    3  O   UNL     3     -10.468  18.771  65.660  1.00  0.00    -0.594 OA 
HETATM    4  H   UNL     2      -5.989   8.870  69.613  1.00  0.00     0.000 HD 
HETATM    5  C   UNL     2      -7.551   9.944  69.143  1.00  0.00    -0.090 C  
HETATM    6  C   UNL     3      -9.501  18.311  66.600  1.00  0.00    -0.308 C  
HETATM    7  H   UNL     3     -10.755  19.648  65.888  1.00  0.00     0.000 HD 
ENDROOT
BRANCH   5   8
HETATM    8  C   UNL     2      -8.933   9.684  68.507  1.00  0.00    -0.124 C  
HETATM    9  O   UNL     2      -8.985  10.377  67.265  1.00  0.00    -0.135 OA 
HETATM   10  H   UNL     2      -9.836  10.217  66.873  1.00  0.00     0.000 HD 
BRANCH   8  11
HETATM   11  C   UNL     2      -9.147   8.188  68.227  1.00  0.00    -0.135 C  
HETATM   12  H   UNL     2     -10.398   6.716  68.779  1.00  0.00     0.000 HD 
HETATM   13  O   UNL     2     -10.266   7.641  68.952  1.00  0.00    -0.199 OA 
BRANCH  11  14
HETATM   14  C   UNL     2      -9.204   7.684  66.764  1.00  0.00    -0.160 C  
HETATM   15  O   UNL     2     -10.343   8.220  66.110  1.00  0.00    -0.393 OA 
HETATM   16  H   UNL     2     -10.378   7.911  65.212  1.00  0.00     0.000 HD 
BRANCH  14  17
HETATM   17  C   UNL     2      -8.948   6.187  66.505  1.00  0.00    -0.139 C  
HETATM   18  H   UNL     2      -7.763   4.833  67.264  1.00  0.00     0.000 HD 
HETATM   19  O   UNL     2      -7.921   5.757  67.424  1.00  0.00    -0.101 OA 
BRANCH  17  20
HETATM   20  C   UNL     2     -10.176   5.279  66.561  1.00  0.00    -0.253 C  
HETATM   21  O   UNL     2     -11.397   6.044  66.665  1.00  0.00    -0.700 OA 
HETATM   22  C   UNL     2     -10.198   4.440  65.252  1.00  0.00    -0.210 C  
HETATM   23  H   UNL     2     -12.160   5.479  66.700  1.00  0.00     0.000 HD 
HETATM   24  O   UNL     2      -9.064   4.038  64.877  1.00  0.00    -0.127 OA 
HETATM   25  O   UNL     2     -11.350   4.316  64.756  1.00  0.00    -0.302 OA 
ENDBRANCH  17  20
ENDBRANCH  14  17
ENDBRANCH  11  14
ENDBRANCH   8  11
ENDBRANCH   5   8
BRANCH   6  26
HETATM   26  C   UNL     3      -9.037  16.895  66.231  1.00  0.00    -0.267 C  
HETATM   27  H   UNL     3      -7.626  15.738  66.828  1.00  0.00     0.000 HD 
HETATM   28  O   UNL     3      -7.913  16.615  67.055  1.00  0.00    -0.164 OA 
BRANCH  26  29
HETATM   29  C   UNL     3     -10.174  15.848  66.370  1.00  0.00    -0.301 C  
HETATM   30  O   UNL     3     -11.354  16.496  67.021  1.00  0.00     0.140 OA 
HETATM   31  H   UNL     3     -12.050  15.856  67.105  1.00  0.00     0.000 HD 
BRANCH  29  32
HETATM   32  C   UNL     3     -10.760  15.367  65.025  1.00  0.00    -0.438 C  
HETATM   33  H   UNL     3     -11.429  16.262  63.403  1.00  0.00     0.000 HD 
HETATM   34  O   UNL     3     -11.069  16.559  64.231  1.00  0.00    -0.915 OA 
BRANCH  32  35
HETATM   35  C   UNL     3     -11.758  14.210  64.860  1.00  0.00    -0.392 C  
HETATM   36  H   UNL     3     -13.501  14.021  64.044  1.00  0.00     0.000 HD 
HETATM   37  O   UNL     3     -12.884  14.736  64.147  1.00  0.00    -0.678 OA 
BRANCH  35  38
HETATM   38  C   UNL     3     -11.223  12.928  64.232  1.00  0.00    -0.367 C  
HETATM   39  C   UNL     3     -11.234  11.768  65.261  1.00  0.00    -0.254 C  
HETATM   40  O   UNL     3      -9.873  13.110  63.760  1.00  0.00    -0.704 OA 
HETATM   41  O   UNL     3     -11.746  12.032  66.394  1.00  0.00    -0.518 OA 
HETATM   42  O   UNL     3     -10.523  10.781  64.923  1.00  0.00    -0.311 OA 
HETATM   43  H   UNL     3      -9.539  12.311  63.368  1.00  0.00     0.000 HD 
ENDBRANCH  35  38
ENDBRANCH  32  35
ENDBRANCH  29  32
ENDBRANCH  26  29
ENDBRANCH   6  26
TORSDOF 10
ENDMDL
MODEL      135
REMARK 921   NORMALIZED FREE ENERGY PREDICTED BY IDOCK:   -5.93 KCAL/MOL
REMARK 922        TOTAL FREE ENERGY PREDICTED BY IDOCK:  -11.89 KCAL/MOL
REMARK 923 INTER-LIGAND FREE ENERGY PREDICTED BY IDOCK:   -9.63 KCAL/MOL
REMARK 924 INTRA-LIGAND FREE ENERGY PREDICTED BY IDOCK:   -2.26 KCAL/MOL
REMARK 927      BINDING AFFINITY PREDICTED BY RF-SCORE:    0.00 PKD
ROOT
HETATM    1 CA   UNL     1     -12.793  15.107  68.339  1.00  0.00    -0.522 Ca 
HETATM    2  O   UNL     2     -11.890   9.962  70.713  1.00  0.00    -0.288 OA 
HETATM    3  O   UNL     3      -9.503  19.777  65.708  1.00  0.00    -0.363 OA 
HETATM    4  H   UNL     2     -11.970  10.161  71.638  1.00  0.00     0.000 HD 
HETATM    5  C   UNL     2     -12.024  11.171  69.967  1.00  0.00    -0.367 C  
HETATM    6  C   UNL     3     -10.075  19.379  66.951  1.00  0.00    -0.388 C  
HETATM    7  H   UNL     3      -9.792  20.652  65.479  1.00  0.00     0.000 HD 
ENDROOT
BRANCH   5   8
HETATM    8  C   UNL     2     -11.893  10.848  68.464  1.00  0.00    -0.166 C  
HETATM    9  O   UNL     2     -11.924  12.076  67.744  1.00  0.00    -0.538 OA 
HETATM   10  H   UNL     2     -11.843  11.877  66.818  1.00  0.00     0.000 HD 
BRANCH   8  11
HETATM   11  C   UNL     2     -10.559  10.148  68.157  1.00  0.00    -0.223 C  
HETATM   12  H   UNL     2      -9.550   9.463  66.560  1.00  0.00     0.000 HD 
HETATM   13  O   UNL     2     -10.375   9.895  66.750  1.00  0.00    -0.229 OA 
BRANCH  11  14
HETATM   14  C   UNL     2      -9.244  10.722  68.738  1.00  0.00    -0.189 C  
HETATM   15  O   UNL     2      -9.018  12.029  68.233  1.00  0.00    -0.184 OA 
HETATM   16  H   UNL     2      -8.211  12.381  68.589  1.00  0.00     0.000 HD 
BRANCH  14  17
HETATM   17  C   UNL     2      -8.004   9.809  68.758  1.00  0.00    -0.087 C  
HETATM   18  H   UNL     2      -6.105  10.043  68.364  1.00  0.00     0.000 HD 
HETATM   19  O   UNL     2      -6.870  10.607  68.351  1.00  0.00    -0.062 OA 
BRANCH  17  20
HETATM   20  C   UNL     2      -7.737   9.072  70.070  1.00  0.00    -0.082 C  
HETATM   21  O   UNL     2      -8.297   9.779  71.198  1.00  0.00    -0.308 OA 
HETATM   22  C   UNL     2      -8.393   7.667  69.959  1.00  0.00    -0.134 C  
HETATM   23  H   UNL     2      -8.131   9.321  72.013  1.00  0.00     0.000 HD 
HETATM   24  O   UNL     2      -8.264   7.124  68.829  1.00  0.00    -0.120 OA 
HETATM   25  O   UNL     2      -8.975   7.302  71.015  1.00  0.00    -0.147 OA 
ENDBRANCH  17  20
ENDBRANCH  14  17
ENDBRANCH  11  14
ENDBRANCH   8  11
ENDBRANCH   5   8
BRANCH   6  26
HETATM   26  C   UNL     3      -9.608  17.965  67.321  1.00  0.00    -0.273 C  
HETATM   27  H   UNL     3     -10.185  16.639  68.584  1.00  0.00     0.000 HD 
HETATM   28  O   UNL     3     -10.474  17.515  68.355  1.00  0.00    -0.360 OA 
BRANCH  26  29
HETATM   29  C   UNL     3      -9.573  17.016  66.094  1.00  0.00    -0.240 C  
HETATM   30  O   UNL     3      -8.279  16.268  66.094  1.00  0.00    -0.315 OA 
HETATM   31  H   UNL     3      -8.258  15.687  65.342  1.00  0.00     0.000 HD 
BRANCH  29  32
HETATM   32  C   UNL     3     -10.615  15.877  66.142  1.00  0.00    -0.305 C  
HETATM   33  H   UNL     3     -10.652  14.064  66.911  1.00  0.00     0.000 HD 
HETATM   34  O   UNL     3     -10.011  14.765  66.881  1.00  0.00    -0.237 OA 
BRANCH  32  35
HETATM   35  C   UNL     3     -11.519  15.456  64.974  1.00  0.00    -0.263 C  
HETATM   36  H   UNL     3     -12.198  16.338  63.392  1.00  0.00     0.000 HD 
HETATM   37  O   UNL     3     -11.639  16.598  64.115  1.00  0.00    -1.102 OA 
BRANCH  35  38
HETATM   38  C   UNL     3     -11.113  14.200  64.211  1.00  0.00    -0.127 C  
HETATM   39  C   UNL     3     -12.082  13.031  64.530  1.00  0.00    -0.410 C  
HETATM   40  O   UNL     3      -9.774  13.795  64.560  1.00  0.00    -0.593 OA 
HETATM   41  O   UNL     3     -13.070  13.313  65.278  1.00  0.00    -0.652 OA 
HETATM   42  O   UNL     3     -11.636  11.897  64.199  1.00  0.00    -0.358 OA 
HETATM   43  H   UNL     3      -9.522  13.012  64.085  1.00  0.00     0.000 HD 
ENDBRANCH  35  38
ENDBRANCH  32  35
ENDBRANCH  29  32
ENDBRANCH  26  29
ENDBRANCH   6  26
TORSDOF 10
ENDMDL
MODEL      136
REMARK 921   NORMALIZED FREE ENERGY PREDICTED BY IDOCK:   -5.93 KCAL/MOL
REMARK 922        TOTAL FREE ENERGY PREDICTED BY IDOCK:  -11.89 KCAL/MOL
REMARK 923 INTER-LIGAND FREE ENERGY PREDICTED BY IDOCK:   -9.35 KCAL/MOL
REMARK 924 INTRA-LIGAND FREE ENERGY PREDICTED BY IDOCK:   -2.54 KCAL/MOL
REMARK 927      BINDING AFFINITY PREDICTED BY RF-SCORE:    0.00 PKD
ROOT
HETATM    1 CA   UNL     1      -7.916  14.122  65.958  1.00  0.00    -0.258 Ca 
HETATM    2  O   UNL     2      -9.183   8.651  64.780  1.00  0.00    -0.404 OA 
HETATM    3  O   UNL     3     -10.876  19.567  67.028  1.00  0.00    -0.487 OA 
HETATM    4  H   UNL     2      -9.000   8.608  63.848  1.00  0.00     0.000 HD 
HETATM    5  C   UNL     2      -8.978   9.989  65.229  1.00  0.00    -0.186 C  
HETATM    6  C   UNL     3     -10.246  18.826  65.986  1.00  0.00    -0.372 C  
HETATM    7  H   UNL     3     -10.511  20.442  67.075  1.00  0.00     0.000 HD 
ENDROOT
BRANCH   5   8
HETATM    8  C   UNL     2      -9.276  10.059  66.742  1.00  0.00    -0.148 C  
HETATM    9  O   UNL     2      -9.225  11.425  67.140  1.00  0.00    -0.163 OA 
HETATM   10  H   UNL     2      -9.408  11.468  68.071  1.00  0.00     0.000 HD 
BRANCH   8  11
HETATM   11  C   UNL     2     -10.680   9.522  67.061  1.00  0.00    -0.149 C  
HETATM   12  H   UNL     2     -11.589   7.751  67.337  1.00  0.00     0.000 HD 
HETATM   13  O   UNL     2     -10.720   8.083  67.140  1.00  0.00    -0.322 OA 
BRANCH  11  14
HETATM   14  C   UNL     2     -11.471  10.110  68.255  1.00  0.00     0.000 C  
HETATM   15  O   UNL     2     -12.112  11.315  67.867  1.00  0.00    -0.634 OA 
HETATM   16  H   UNL     2     -12.597  11.676  68.600  1.00  0.00     0.000 HD 
BRANCH  14  17
HETATM   17  C   UNL     2     -10.778  10.154  69.630  1.00  0.00    -0.264 C  
HETATM   18  H   UNL     2     -10.948  11.259  71.231  1.00  0.00     0.000 HD 
HETATM   19  O   UNL     2     -11.376  11.233  70.383  1.00  0.00    -0.219 OA 
BRANCH  17  20
HETATM   20  C   UNL     2     -10.774   8.846  70.419  1.00  0.00    -0.227 C  
HETATM   21  O   UNL     2     -11.778   7.930  69.931  1.00  0.00    -0.452 OA 
HETATM   22  C   UNL     2      -9.365   8.207  70.258  1.00  0.00    -0.155 C  
HETATM   23  H   UNL     2     -11.776   7.116  70.422  1.00  0.00     0.000 HD 
HETATM   24  O   UNL     2      -8.416   9.034  70.297  1.00  0.00    -0.133 OA 
HETATM   25  O   UNL     2      -9.398   6.959  70.088  1.00  0.00    -0.158 OA 
ENDBRANCH  17  20
ENDBRANCH  14  17
ENDBRANCH  11  14
ENDBRANCH   8  11
ENDBRANCH   5   8
BRANCH   6  26
HETATM   26  C   UNL     3     -10.835  17.411  65.910  1.00  0.00     0.002 C  
HETATM   27  H   UNL     3     -11.591  16.337  64.510  1.00  0.00     0.000 HD 
HETATM   28  O   UNL     3     -11.226  17.213  64.557  1.00  0.00    -1.104 OA 
BRANCH  26  29
HETATM   29  C   UNL     3      -9.847  16.333  66.427  1.00  0.00    -0.291 C  
HETATM   30  O   UNL     3      -9.059  16.901  67.564  1.00  0.00    -0.219 OA 
HETATM   31  H   UNL     3      -8.454  16.241  67.881  1.00  0.00     0.000 HD 
BRANCH  29  32
HETATM   32  C   UNL     3     -10.526  15.107  67.074  1.00  0.00    -0.282 C  
HETATM   33  H   UNL     3     -10.020  13.821  68.478  1.00  0.00     0.000 HD 
HETATM   34  O   UNL     3      -9.602  14.575  68.079  1.00  0.00    -0.207 OA 
BRANCH  32  35
HETATM   35  C   UNL     3     -11.333  14.042  66.316  1.00  0.00    -0.333 C  
HETATM   36  H   UNL     3     -13.192  13.509  66.283  1.00  0.00     0.000 HD 
HETATM   37  O   UNL     3     -12.693  14.168  66.752  1.00  0.00    -0.178 OA 
BRANCH  35  38
HETATM   38  C   UNL     3     -11.210  14.042  64.796  1.00  0.00    -0.375 C  
HETATM   39  C   UNL     3     -11.766  12.721  64.202  1.00  0.00    -0.401 C  
HETATM   40  O   UNL     3      -9.834  14.184  64.390  1.00  0.00    -0.623 OA 
HETATM   41  O   UNL     3     -12.294  11.915  65.032  1.00  0.00    -0.315 OA 
HETATM   42  O   UNL     3     -11.414  12.513  63.008  1.00  0.00    -0.296 OA 
HETATM   43  H   UNL     3      -9.758  14.185  63.443  1.00  0.00     0.000 HD 
ENDBRANCH  35  38
ENDBRANCH  32  35
ENDBRANCH  29  32
ENDBRANCH  26  29
ENDBRANCH   6  26
TORSDOF 10
ENDMDL
MODEL      137
REMARK 921   NORMALIZED FREE ENERGY PREDICTED BY IDOCK:   -5.92 KCAL/MOL
REMARK 922        TOTAL FREE ENERGY PREDICTED BY IDOCK:  -11.89 KCAL/MOL
REMARK 923 INTER-LIGAND FREE ENERGY PREDICTED BY IDOCK:   -9.38 KCAL/MOL
REMARK 924 INTRA-LIGAND FREE ENERGY PREDICTED BY IDOCK:   -2.50 KCAL/MOL
REMARK 927      BINDING AFFINITY PREDICTED BY RF-SCORE:    0.00 PKD
ROOT
HETATM    1 CA   UNL     1     -12.771  10.312  68.559  1.00  0.00    -0.416 Ca 
HETATM    2  O   UNL     2     -10.621  12.064  63.536  1.00  0.00    -0.401 OA 
HETATM    3  O   UNL     3     -11.304   6.395  73.256  1.00  0.00    -0.468 OA 
HETATM    4  H   UNL     2     -11.154  11.577  62.919  1.00  0.00     0.000 HD 
HETATM    5  C   UNL     2     -10.989  11.687  64.862  1.00  0.00    -0.284 C  
HETATM    6  C   UNL     3     -12.073   6.461  72.058  1.00  0.00    -0.303 C  
HETATM    7  H   UNL     3     -11.847   6.104  73.979  1.00  0.00     0.000 HD 
ENDROOT
BRANCH   5   8
HETATM    8  C   UNL     2     -10.123  12.479  65.865  1.00  0.00    -0.254 C  
HETATM    9  O   UNL     2      -9.541  13.580  65.174  1.00  0.00    -0.529 OA 
HETATM   10  H   UNL     2      -9.008  14.067  65.791  1.00  0.00     0.000 HD 
BRANCH   8  11
HETATM   11  C   UNL     2     -10.973  13.036  67.018  1.00  0.00    -0.265 C  
HETATM   12  H   UNL     2     -12.723  12.646  67.924  1.00  0.00     0.000 HD 
HETATM   13  O   UNL     2     -12.198  12.302  67.211  1.00  0.00    -0.485 OA 
BRANCH  11  14
HETATM   14  C   UNL     2     -10.318  13.287  68.399  1.00  0.00    -0.251 C  
HETATM   15  O   UNL     2     -10.851  12.390  69.360  1.00  0.00    -0.443 OA 
HETATM   16  H   UNL     2     -10.449  12.544  70.207  1.00  0.00     0.000 HD 
BRANCH  14  17
HETATM   17  C   UNL     2     -10.174  14.744  68.877  1.00  0.00    -0.237 C  
HETATM   18  H   UNL     2      -9.261  16.337  68.208  1.00  0.00     0.000 HD 
HETATM   19  O   UNL     2      -9.350  15.437  67.913  1.00  0.00    -0.191 OA 
BRANCH  17  20
HETATM   20  C   UNL     2     -11.479  15.491  69.148  1.00  0.00    -0.348 C  
HETATM   21  O   UNL     2     -12.535  15.048  68.268  1.00  0.00    -0.496 OA 
HETATM   22  C   UNL     2     -11.880  15.211  70.624  1.00  0.00    -0.325 C  
HETATM   23  H   UNL     2     -13.347  15.513  68.437  1.00  0.00     0.000 HD 
HETATM   24  O   UNL     2     -10.912  15.207  71.430  1.00  0.00    -0.272 OA 
HETATM   25  O   UNL     2     -13.114  15.006  70.777  1.00  0.00    -0.379 OA 
ENDBRANCH  17  20
ENDBRANCH  14  17
ENDBRANCH  11  14
ENDBRANCH   8  11
ENDBRANCH   5   8
BRANCH   6  26
HETATM   26  C   UNL     3     -11.195   6.931  70.890  1.00  0.00    -0.289 C  
HETATM   27  H   UNL     3     -11.090   6.503  69.022  1.00  0.00     0.000 HD 
HETATM   28  O   UNL     3     -11.633   6.211  69.745  1.00  0.00    -0.405 OA 
BRANCH  26  29
HETATM   29  C   UNL     3     -11.242   8.471  70.701  1.00  0.00    -0.252 C  
HETATM   30  O   UNL     3     -11.056   9.129  72.031  1.00  0.00    -0.357 OA 
HETATM   31  H   UNL     3     -11.086  10.072  71.915  1.00  0.00     0.000 HD 
BRANCH  29  32
HETATM   32  C   UNL     3     -10.068   9.046  69.879  1.00  0.00    -0.201 C  
HETATM   33  H   UNL     3      -9.911   9.980  68.152  1.00  0.00     0.000 HD 
HETATM   34  O   UNL     3     -10.633   9.626  68.658  1.00  0.00    -0.210 OA 
BRANCH  32  35
HETATM   35  C   UNL     3      -8.703   8.367  69.695  1.00  0.00    -0.133 C  
HETATM   36  H   UNL     3      -7.606   7.904  68.171  1.00  0.00     0.000 HD 
HETATM   37  O   UNL     3      -8.451   8.324  68.285  1.00  0.00    -0.133 OA 
BRANCH  35  38
HETATM   38  C   UNL     3      -7.533   8.958  70.474  1.00  0.00    -0.089 C  
HETATM   39  C   UNL     3      -7.504   8.404  71.922  1.00  0.00    -0.103 C  
HETATM   40  O   UNL     3      -7.628  10.395  70.534  1.00  0.00    -0.443 OA 
HETATM   41  O   UNL     3      -8.371   7.516  72.198  1.00  0.00    -0.105 OA 
HETATM   42  O   UNL     3      -6.777   9.073  72.708  1.00  0.00    -0.317 OA 
HETATM   43  H   UNL     3      -6.899  10.764  71.019  1.00  0.00     0.000 HD 
ENDBRANCH  35  38
ENDBRANCH  32  35
ENDBRANCH  29  32
ENDBRANCH  26  29
ENDBRANCH   6  26
TORSDOF 10
ENDMDL
MODEL      138
REMARK 921   NORMALIZED FREE ENERGY PREDICTED BY IDOCK:   -5.92 KCAL/MOL
REMARK 922        TOTAL FREE ENERGY PREDICTED BY IDOCK:  -11.88 KCAL/MOL
REMARK 923 INTER-LIGAND FREE ENERGY PREDICTED BY IDOCK:   -9.83 KCAL/MOL
REMARK 924 INTRA-LIGAND FREE ENERGY PREDICTED BY IDOCK:   -2.05 KCAL/MOL
REMARK 927      BINDING AFFINITY PREDICTED BY RF-SCORE:    0.00 PKD
ROOT
HETATM    1 CA   UNL     1      -7.439  10.612  70.781  1.00  0.00    -0.206 Ca 
HETATM    2  O   UNL     2     -10.838  14.066  67.709  1.00  0.00    -0.244 OA 
HETATM    3  O   UNL     3      -7.460   4.780  73.135  1.00  0.00    -0.083 OA 
HETATM    4  H   UNL     2     -11.183  14.643  68.381  1.00  0.00     0.000 HD 
HETATM    5  C   UNL     2     -10.008  13.084  68.326  1.00  0.00    -0.235 C  
HETATM    6  C   UNL     3      -7.735   6.130  73.499  1.00  0.00    -0.095 C  
HETATM    7  H   UNL     3      -6.860   4.388  73.758  1.00  0.00     0.000 HD 
ENDROOT
BRANCH   5   8
HETATM    8  C   UNL     2      -9.447  12.148  67.234  1.00  0.00    -0.184 C  
HETATM    9  O   UNL     2      -8.465  11.308  67.834  1.00  0.00    -0.125 OA 
HETATM   10  H   UNL     2      -8.119  10.732  67.162  1.00  0.00     0.000 HD 
BRANCH   8  11
HETATM   11  C   UNL     2     -10.548  11.249  66.649  1.00  0.00    -0.262 C  
HETATM   12  H   UNL     2     -12.541  11.029  66.781  1.00  0.00     0.000 HD 
HETATM   13  O   UNL     2     -11.860  11.584  67.143  1.00  0.00    -0.595 OA 
BRANCH  11  14
HETATM   14  C   UNL     2     -10.630  11.040  65.116  1.00  0.00    -0.226 C  
HETATM   15  O   UNL     2      -9.749  10.001  64.720  1.00  0.00    -0.305 OA 
HETATM   16  H   UNL     2      -9.799   9.873  63.780  1.00  0.00     0.000 HD 
BRANCH  14  17
HETATM   17  C   UNL     2     -10.612  12.289  64.215  1.00  0.00    -0.354 C  
HETATM   18  H   UNL     2      -9.870  12.718  62.459  1.00  0.00     0.000 HD 
HETATM   19  O   UNL     2      -9.881  11.948  63.016  1.00  0.00    -0.385 OA 
BRANCH  17  20
HETATM   20  C   UNL     2     -11.975  12.901  63.893  1.00  0.00    -0.480 C  
HETATM   21  O   UNL     2     -13.052  11.991  64.207  1.00  0.00    -0.671 OA 
HETATM   22  C   UNL     2     -12.120  14.193  64.745  1.00  0.00    -0.441 C  
HETATM   23  H   UNL     2     -13.898  12.372  64.007  1.00  0.00     0.000 HD 
HETATM   24  O   UNL     2     -11.064  14.876  64.832  1.00  0.00    -0.383 OA 
HETATM   25  O   UNL     2     -13.270  14.341  65.238  1.00  0.00    -0.704 OA 
ENDBRANCH  17  20
ENDBRANCH  14  17
ENDBRANCH  11  14
ENDBRANCH   8  11
ENDBRANCH   5   8
BRANCH   6  26
HETATM   26  C   UNL     3      -8.706   6.764  72.492  1.00  0.00    -0.123 C  
HETATM   27  H   UNL     3      -8.693   7.035  70.592  1.00  0.00     0.000 HD 
HETATM   28  O   UNL     3      -8.092   6.644  71.215  1.00  0.00    -0.110 OA 
BRANCH  26  29
HETATM   29  C   UNL     3     -10.119   6.126  72.556  1.00  0.00    -0.178 C  
HETATM   30  O   UNL     3     -10.816   6.611  73.786  1.00  0.00    -0.479 OA 
HETATM   31  H   UNL     3     -11.681   6.220  73.825  1.00  0.00     0.000 HD 
BRANCH  29  32
HETATM   32  C   UNL     3     -11.073   6.584  71.432  1.00  0.00    -0.268 C  
HETATM   33  H   UNL     3     -11.610   5.852  69.684  1.00  0.00     0.000 HD 
HETATM   34  O   UNL     3     -11.023   5.570  70.375  1.00  0.00    -0.253 OA 
BRANCH  32  35
HETATM   35  C   UNL     3     -11.216   8.029  70.929  1.00  0.00    -0.266 C  
HETATM   36  H   UNL     3     -11.149   8.879  69.193  1.00  0.00     0.000 HD 
HETATM   37  O   UNL     3     -11.060   7.985  69.504  1.00  0.00    -0.123 OA 
BRANCH  35  38
HETATM   38  C   UNL     3     -12.474   8.780  71.350  1.00  0.00    -0.303 C  
HETATM   39  C   UNL     3     -12.291  10.307  71.152  1.00  0.00    -0.395 C  
HETATM   40  O   UNL     3     -12.783   8.531  72.736  1.00  0.00    -0.598 OA 
HETATM   41  O   UNL     3     -11.200  10.673  70.611  1.00  0.00    -0.289 OA 
HETATM   42  O   UNL     3     -13.145  11.005  71.765  1.00  0.00    -0.469 OA 
HETATM   43  H   UNL     3     -13.567   8.999  72.999  1.00  0.00     0.000 HD 
ENDBRANCH  35  38
ENDBRANCH  32  35
ENDBRANCH  29  32
ENDBRANCH  26  29
ENDBRANCH   6  26
TORSDOF 10
ENDMDL
MODEL      139
REMARK 921   NORMALIZED FREE ENERGY PREDICTED BY IDOCK:   -5.92 KCAL/MOL
REMARK 922        TOTAL FREE ENERGY PREDICTED BY IDOCK:  -11.87 KCAL/MOL
REMARK 923 INTER-LIGAND FREE ENERGY PREDICTED BY IDOCK:  -10.03 KCAL/MOL
REMARK 924 INTRA-LIGAND FREE ENERGY PREDICTED BY IDOCK:   -1.84 KCAL/MOL
REMARK 927      BINDING AFFINITY PREDICTED BY RF-SCORE:    0.00 PKD
ROOT
HETATM    1 CA   UNL     1     -11.598   7.664  67.221  1.00  0.00    -0.511 Ca 
HETATM    2  O   UNL     2     -14.364   7.468  72.244  1.00  0.00    -0.588 OA 
HETATM    3  O   UNL     3      -9.228  11.933  63.258  1.00  0.00    -0.607 OA 
HETATM    4  H   UNL     2     -15.255   7.289  71.966  1.00  0.00     0.000 HD 
HETATM    5  C   UNL     2     -13.541   7.616  71.089  1.00  0.00    -0.127 C  
HETATM    6  C   UNL     3     -10.393  11.142  63.478  1.00  0.00    -0.387 C  
HETATM    7  H   UNL     3      -8.910  11.810  62.372  1.00  0.00     0.000 HD 
ENDROOT
BRANCH   5   8
HETATM    8  C   UNL     2     -12.094   7.906  71.541  1.00  0.00    -0.306 C  
HETATM    9  O   UNL     2     -12.089   8.021  72.960  1.00  0.00    -0.646 OA 
HETATM   10  H   UNL     2     -11.198   8.200  73.238  1.00  0.00     0.000 HD 
BRANCH   8  11
HETATM   11  C   UNL     2     -11.147   6.760  71.152  1.00  0.00    -0.270 C  
HETATM   12  H   UNL     2     -10.626   5.727  69.509  1.00  0.00     0.000 HD 
HETATM   13  O   UNL     2     -11.212   6.436  69.749  1.00  0.00    -0.352 OA 
BRANCH  11  14
HETATM   14  C   UNL     2      -9.660   6.817  71.583  1.00  0.00    -0.162 C  
HETATM   15  O   UNL     2      -9.529   6.405  72.934  1.00  0.00    -0.146 OA 
HETATM   16  H   UNL     2      -8.617   6.440  73.198  1.00  0.00     0.000 HD 
BRANCH  14  17
HETATM   17  C   UNL     2      -8.844   8.066  71.201  1.00  0.00    -0.140 C  
HETATM   18  H   UNL     2      -7.190   8.887  71.836  1.00  0.00     0.000 HD 
HETATM   19  O   UNL     2      -7.693   8.116  72.072  1.00  0.00    -0.092 OA 
BRANCH  17  20
HETATM   20  C   UNL     2      -8.448   8.183  69.729  1.00  0.00    -0.125 C  
HETATM   21  O   UNL     2      -8.563   6.914  69.048  1.00  0.00    -0.127 OA 
HETATM   22  C   UNL     2      -9.402   9.217  69.068  1.00  0.00    -0.151 C  
HETATM   23  H   UNL     2      -8.316   6.986  68.134  1.00  0.00     0.000 HD 
HETATM   24  O   UNL     2      -9.660  10.217  69.789  1.00  0.00    -0.222 OA 
HETATM   25  O   UNL     2      -9.789   8.876  67.918  1.00  0.00    -0.156 OA 
ENDBRANCH  17  20
ENDBRANCH  14  17
ENDBRANCH  11  14
ENDBRANCH   8  11
ENDBRANCH   5   8
BRANCH   6  26
HETATM   26  C   UNL     3     -10.907  11.342  64.910  1.00  0.00    -0.229 C  
HETATM   27  H   UNL     3     -10.110  11.263  66.654  1.00  0.00     0.000 HD 
HETATM   28  O   UNL     3      -9.791  11.139  65.768  1.00  0.00    -0.214 OA 
BRANCH  26  29
HETATM   29  C   UNL     3     -11.586  12.723  65.104  1.00  0.00    -0.338 C  
HETATM   30  O   UNL     3     -13.070  12.547  65.051  1.00  0.00    -0.765 OA 
HETATM   31  H   UNL     3     -13.486  13.393  65.169  1.00  0.00     0.000 HD 
BRANCH  29  32
HETATM   32  C   UNL     3     -11.376  13.343  66.502  1.00  0.00    -0.320 C  
HETATM   33  H   UNL     3     -12.114  13.001  68.296  1.00  0.00     0.000 HD 
HETATM   34  O   UNL     3     -12.243  12.620  67.436  1.00  0.00    -0.406 OA 
BRANCH  32  35
HETATM   35  C   UNL     3     -11.235  14.846  66.790  1.00  0.00    -0.338 C  
HETATM   36  H   UNL     3     -11.889  16.035  68.168  1.00  0.00     0.000 HD 
HETATM   37  O   UNL     3     -11.977  15.106  67.989  1.00  0.00    -0.277 OA 
BRANCH  35  38
HETATM   38  C   UNL     3      -9.816  15.401  66.856  1.00  0.00    -0.244 C  
HETATM   39  C   UNL     3      -9.682  16.664  65.966  1.00  0.00    -0.278 C  
HETATM   40  O   UNL     3      -8.858  14.421  66.409  1.00  0.00    -0.458 OA 
HETATM   41  O   UNL     3     -10.751  17.074  65.413  1.00  0.00    -0.542 OA 
HETATM   42  O   UNL     3      -8.487  16.986  65.718  1.00  0.00    -0.508 OA 
HETATM   43  H   UNL     3      -7.974  14.766  66.450  1.00  0.00     0.000 HD 
ENDBRANCH  35  38
ENDBRANCH  32  35
ENDBRANCH  29  32
ENDBRANCH  26  29
ENDBRANCH   6  26
TORSDOF 10
ENDMDL
MODEL      140
REMARK 921   NORMALIZED FREE ENERGY PREDICTED BY IDOCK:   -5.90 KCAL/MOL
REMARK 922        TOTAL FREE ENERGY PREDICTED BY IDOCK:  -11.85 KCAL/MOL
REMARK 923 INTER-LIGAND FREE ENERGY PREDICTED BY IDOCK:  -10.25 KCAL/MOL
REMARK 924 INTRA-LIGAND FREE ENERGY PREDICTED BY IDOCK:   -1.60 KCAL/MOL
REMARK 927      BINDING AFFINITY PREDICTED BY RF-SCORE:    0.00 PKD
ROOT
HETATM    1 CA   UNL     1      -6.192  12.438  67.906  1.00  0.00    -0.054 Ca 
HETATM    2  O   UNL     2      -5.385  18.100  68.375  1.00  0.00    -0.159 OA 
HETATM    3  O   UNL     3     -10.861   8.246  68.332  1.00  0.00    -0.426 OA 
HETATM    4  H   UNL     2      -4.987  18.166  69.235  1.00  0.00     0.000 HD 
HETATM    5  C   UNL     2      -5.717  16.735  68.124  1.00  0.00    -0.116 C  
HETATM    6  C   UNL     3      -9.808   8.824  69.099  1.00  0.00    -0.181 C  
HETATM    7  H   UNL     3     -10.808   7.298  68.363  1.00  0.00     0.000 HD 
ENDROOT
BRANCH   5   8
HETATM    8  C   UNL     2      -6.364  16.627  66.727  1.00  0.00    -0.122 C  
HETATM    9  O   UNL     2      -6.908  15.318  66.592  1.00  0.00    -0.154 OA 
HETATM   10  H   UNL     2      -7.306  15.252  65.731  1.00  0.00     0.000 HD 
BRANCH   8  11
HETATM   11  C   UNL     2      -7.510  17.638  66.562  1.00  0.00    -0.264 C  
HETATM   12  H   UNL     2      -7.936  19.266  65.463  1.00  0.00     0.000 HD 
HETATM   13  O   UNL     2      -7.228  18.640  65.565  1.00  0.00    -0.506 OA 
BRANCH  11  14
HETATM   14  C   UNL     2      -8.958  17.128  66.361  1.00  0.00    -0.260 C  
HETATM   15  O   UNL     2      -8.978  16.093  65.391  1.00  0.00    -0.172 OA 
HETATM   16  H   UNL     2      -9.867  15.780  65.268  1.00  0.00     0.000 HD 
BRANCH  14  17
HETATM   17  C   UNL     2     -10.080  18.174  66.222  1.00  0.00    -0.371 C  
HETATM   18  H   UNL     2     -11.669  18.358  65.102  1.00  0.00     0.000 HD 
HETATM   19  O   UNL     2     -10.977  17.712  65.187  1.00  0.00    -0.651 OA 
BRANCH  17  20
HETATM   20  C   UNL     2     -10.829  18.527  67.506  1.00  0.00    -0.291 C  
HETATM   21  O   UNL     2     -10.730  17.468  68.485  1.00  0.00    -0.330 OA 
HETATM   22  C   UNL     2     -10.193  19.825  68.077  1.00  0.00    -0.451 C  
HETATM   23  H   UNL     2     -11.196  17.688  69.283  1.00  0.00     0.000 HD 
HETATM   24  O   UNL     2      -9.891  20.680  67.203  1.00  0.00    -0.469 OA 
HETATM   25  O   UNL     2     -10.056  19.806  69.330  1.00  0.00    -0.417 OA 
ENDBRANCH  17  20
ENDBRANCH  14  17
ENDBRANCH  11  14
ENDBRANCH   8  11
ENDBRANCH   5   8
BRANCH   6  26
HETATM   26  C   UNL     3      -9.894  10.356  69.048  1.00  0.00    -0.212 C  
HETATM   27  H   UNL     3      -8.656  11.764  68.640  1.00  0.00     0.000 HD 
HETATM   28  O   UNL     3      -8.603  10.817  68.672  1.00  0.00    -0.136 OA 
BRANCH  26  29
HETATM   29  C   UNL     3     -11.021  10.851  68.103  1.00  0.00    -0.249 C  
HETATM   30  O   UNL     3     -12.341  10.659  68.778  1.00  0.00    -0.814 OA 
HETATM   31  H   UNL     3     -13.031  10.962  68.199  1.00  0.00     0.000 HD 
BRANCH  29  32
HETATM   32  C   UNL     3     -11.003  12.371  67.836  1.00  0.00    -0.228 C  
HETATM   33  H   UNL     3     -11.038  13.980  68.972  1.00  0.00     0.000 HD 
HETATM   34  O   UNL     3     -11.049  13.044  69.137  1.00  0.00    -0.244 OA 
BRANCH  32  35
HETATM   35  C   UNL     3     -11.782  13.081  66.718  1.00  0.00    -0.382 C  
HETATM   36  H   UNL     3     -12.530  14.850  66.491  1.00  0.00     0.000 HD 
HETATM   37  O   UNL     3     -12.048  14.411  67.182  1.00  0.00    -0.414 OA 
BRANCH  35  38
HETATM   38  C   UNL     3     -11.152  13.069  65.329  1.00  0.00    -0.286 C  
HETATM   39  C   UNL     3     -12.194  12.650  64.260  1.00  0.00    -0.445 C  
HETATM   40  O   UNL     3     -10.043  12.149  65.275  1.00  0.00    -0.261 OA 
HETATM   41  O   UNL     3     -13.382  12.473  64.677  1.00  0.00    -0.804 OA 
HETATM   42  O   UNL     3     -11.682  12.311  63.157  1.00  0.00    -0.377 OA 
HETATM   43  H   UNL     3      -9.650  12.142  64.409  1.00  0.00     0.000 HD 
ENDBRANCH  35  38
ENDBRANCH  32  35
ENDBRANCH  29  32
ENDBRANCH  26  29
ENDBRANCH   6  26
TORSDOF 10
ENDMDL
MODEL      141
REMARK 921   NORMALIZED FREE ENERGY PREDICTED BY IDOCK:   -5.88 KCAL/MOL
REMARK 922        TOTAL FREE ENERGY PREDICTED BY IDOCK:  -11.82 KCAL/MOL
REMARK 923 INTER-LIGAND FREE ENERGY PREDICTED BY IDOCK:   -9.70 KCAL/MOL
REMARK 924 INTRA-LIGAND FREE ENERGY PREDICTED BY IDOCK:   -2.12 KCAL/MOL
REMARK 927      BINDING AFFINITY PREDICTED BY RF-SCORE:    0.00 PKD
ROOT
HETATM    1 CA   UNL     1     -12.272  10.020  68.034  1.00  0.00    -0.506 Ca 
HETATM    2  O   UNL     2     -12.150  12.815  63.025  1.00  0.00    -0.659 OA 
HETATM    3  O   UNL     3      -8.468   8.785  72.888  1.00  0.00    -0.409 OA 
HETATM    4  H   UNL     2     -12.060  12.098  62.407  1.00  0.00     0.000 HD 
HETATM    5  C   UNL     2     -12.129  12.288  64.350  1.00  0.00    -0.399 C  
HETATM    6  C   UNL     3      -8.936   8.219  71.667  1.00  0.00    -0.180 C  
HETATM    7  H   UNL     3      -8.596   8.173  73.603  1.00  0.00     0.000 HD 
ENDROOT
BRANCH   5   8
HETATM    8  C   UNL     2     -12.274  13.452  65.353  1.00  0.00    -0.452 C  
HETATM    9  O   UNL     2     -12.373  12.898  66.661  1.00  0.00    -0.422 OA 
HETATM   10  H   UNL     2     -12.462  13.615  67.279  1.00  0.00     0.000 HD 
BRANCH   8  11
HETATM   11  C   UNL     2     -11.046  14.376  65.318  1.00  0.00    -0.342 C  
HETATM   12  H   UNL     2      -9.302  14.527  64.331  1.00  0.00     0.000 HD 
HETATM   13  O   UNL     2     -10.061  13.956  64.353  1.00  0.00    -0.299 OA 
BRANCH  11  14
HETATM   14  C   UNL     2     -11.244  15.907  65.196  1.00  0.00    -0.224 C  
HETATM   15  O   UNL     2     -11.350  16.276  63.830  1.00  0.00    -1.415 OA 
HETATM   16  H   UNL     2     -11.471  17.215  63.755  1.00  0.00     0.000 HD 
BRANCH  14  17
HETATM   17  C   UNL     2     -10.347  16.822  66.050  1.00  0.00    -0.335 C  
HETATM   18  H   UNL     2      -9.852  18.711  66.003  1.00  0.00     0.000 HD 
HETATM   19  O   UNL     2     -10.406  18.147  65.476  1.00  0.00    -0.589 OA 
BRANCH  17  20
HETATM   20  C   UNL     2     -10.645  16.841  67.549  1.00  0.00    -0.309 C  
HETATM   21  O   UNL     2     -11.700  15.915  67.891  1.00  0.00    -0.192 OA 
HETATM   22  C   UNL     2      -9.340  16.439  68.291  1.00  0.00    -0.210 C  
HETATM   23  H   UNL     2     -11.885  15.927  68.823  1.00  0.00     0.000 HD 
HETATM   24  O   UNL     2      -8.291  16.930  67.795  1.00  0.00    -0.189 OA 
HETATM   25  O   UNL     2      -9.535  15.660  69.262  1.00  0.00    -0.230 OA 
ENDBRANCH  17  20
ENDBRANCH  14  17
ENDBRANCH  11  14
ENDBRANCH   8  11
ENDBRANCH   5   8
BRANCH   6  26
HETATM   26  C   UNL     3      -8.729   9.208  70.511  1.00  0.00    -0.221 C  
HETATM   27  H   UNL     3      -7.293  10.355  69.957  1.00  0.00     0.000 HD 
HETATM   28  O   UNL     3      -7.422   9.743  70.672  1.00  0.00    -0.245 OA 
BRANCH  26  29
HETATM   29  C   UNL     3      -8.955   8.548  69.125  1.00  0.00    -0.146 C  
HETATM   30  O   UNL     3     -10.400   8.665  68.761  1.00  0.00    -0.208 OA 
HETATM   31  H   UNL     3     -10.538   8.261  67.912  1.00  0.00     0.000 HD 
BRANCH  29  32
HETATM   32  C   UNL     3      -8.258   9.276  67.955  1.00  0.00    -0.115 C  
HETATM   33  H   UNL     3      -8.485  11.026  67.078  1.00  0.00     0.000 HD 
HETATM   34  O   UNL     3      -8.914  10.578  67.798  1.00  0.00    -0.131 OA 
BRANCH  32  35
HETATM   35  C   UNL     3      -7.820   8.616  66.639  1.00  0.00    -0.097 C  
HETATM   36  H   UNL     3      -7.255   6.837  66.131  1.00  0.00     0.000 HD 
HETATM   37  O   UNL     3      -7.526   7.246  66.944  1.00  0.00    -0.092 OA 
BRANCH  35  38
HETATM   38  C   UNL     3      -8.769   8.753  65.453  1.00  0.00    -0.183 C  
HETATM   39  C   UNL     3      -8.323   9.915  64.527  1.00  0.00    -0.166 C  
HETATM   40  O   UNL     3     -10.116   9.012  65.899  1.00  0.00    -0.418 OA 
HETATM   41  O   UNL     3      -7.234  10.491  64.840  1.00  0.00    -0.089 OA 
HETATM   42  O   UNL     3      -9.216  10.291  63.719  1.00  0.00    -0.230 OA 
HETATM   43  H   UNL     3     -10.707   9.097  65.160  1.00  0.00     0.000 HD 
ENDBRANCH  35  38
ENDBRANCH  32  35
ENDBRANCH  29  32
ENDBRANCH  26  29
ENDBRANCH   6  26
TORSDOF 10
ENDMDL
MODEL      142
REMARK 921   NORMALIZED FREE ENERGY PREDICTED BY IDOCK:   -5.88 KCAL/MOL
REMARK 922        TOTAL FREE ENERGY PREDICTED BY IDOCK:  -11.82 KCAL/MOL
REMARK 923 INTER-LIGAND FREE ENERGY PREDICTED BY IDOCK:   -9.28 KCAL/MOL
REMARK 924 INTRA-LIGAND FREE ENERGY PREDICTED BY IDOCK:   -2.54 KCAL/MOL
REMARK 927      BINDING AFFINITY PREDICTED BY RF-SCORE:    0.00 PKD
ROOT
HETATM    1 CA   UNL     1      -9.737  13.561  69.582  1.00  0.00    -0.381 Ca 
HETATM    2  O   UNL     2      -6.483   8.892  70.313  1.00  0.00    -0.037 OA 
HETATM    3  O   UNL     3     -10.340  18.357  65.559  1.00  0.00    -0.570 OA 
HETATM    4  H   UNL     2      -5.894   9.175  71.003  1.00  0.00     0.000 HD 
HETATM    5  C   UNL     2      -7.334   9.981  69.958  1.00  0.00    -0.167 C  
HETATM    6  C   UNL     3      -9.735  18.015  66.802  1.00  0.00    -0.323 C  
HETATM    7  H   UNL     3     -10.855  19.150  65.651  1.00  0.00     0.000 HD 
ENDROOT
BRANCH   5   8
HETATM    8  C   UNL     2      -8.291   9.521  68.838  1.00  0.00    -0.121 C  
HETATM    9  O   UNL     2      -7.513   8.912  67.813  1.00  0.00    -0.090 OA 
HETATM   10  H   UNL     2      -8.102   8.629  67.124  1.00  0.00     0.000 HD 
BRANCH   8  11
HETATM   11  C   UNL     2      -9.297   8.479  69.355  1.00  0.00    -0.154 C  
HETATM   12  H   UNL     2      -9.277   6.660  70.208  1.00  0.00     0.000 HD 
HETATM   13  O   UNL     2      -8.655   7.304  69.888  1.00  0.00    -0.138 OA 
BRANCH  11  14
HETATM   14  C   UNL     2     -10.421   8.918  70.325  1.00  0.00    -0.210 C  
HETATM   15  O   UNL     2     -10.518  10.333  70.349  1.00  0.00    -0.414 OA 
HETATM   16  H   UNL     2     -11.208  10.602  70.945  1.00  0.00     0.000 HD 
BRANCH  14  17
HETATM   17  C   UNL     2     -10.492   8.236  71.705  1.00  0.00    -0.238 C  
HETATM   18  H   UNL     2      -9.563   8.460  73.409  1.00  0.00     0.000 HD 
HETATM   19  O   UNL     2      -9.520   8.881  72.558  1.00  0.00    -0.287 OA 
BRANCH  17  20
HETATM   20  C   UNL     2     -11.873   8.187  72.357  1.00  0.00    -0.388 C  
HETATM   21  O   UNL     2     -12.569   9.445  72.219  1.00  0.00    -0.359 OA 
HETATM   22  C   UNL     2     -12.684   7.064  71.650  1.00  0.00    -0.377 C  
HETATM   23  H   UNL     2     -13.428   9.414  72.624  1.00  0.00     0.000 HD 
HETATM   24  O   UNL     2     -12.013   6.031  71.386  1.00  0.00    -0.133 OA 
HETATM   25  O   UNL     2     -13.885   7.377  71.430  1.00  0.00    -0.393 OA 
ENDBRANCH  17  20
ENDBRANCH  14  17
ENDBRANCH  11  14
ENDBRANCH   8  11
ENDBRANCH   5   8
BRANCH   6  26
HETATM   26  C   UNL     3      -8.903  16.734  66.652  1.00  0.00    -0.255 C  
HETATM   27  H   UNL     3      -7.202  16.143  67.315  1.00  0.00     0.000 HD 
HETATM   28  O   UNL     3      -7.716  16.936  67.408  1.00  0.00    -0.162 OA 
BRANCH  26  29
HETATM   29  C   UNL     3      -9.692  15.467  67.076  1.00  0.00    -0.224 C  
HETATM   30  O   UNL     3     -11.071  15.869  67.491  1.00  0.00    -0.312 OA 
HETATM   31  H   UNL     3     -11.554  15.093  67.751  1.00  0.00     0.000 HD 
BRANCH  29  32
HETATM   32  C   UNL     3      -9.968  14.476  65.924  1.00  0.00    -0.329 C  
HETATM   33  H   UNL     3     -10.857  14.601  64.171  1.00  0.00     0.000 HD 
HETATM   34  O   UNL     3     -10.687  15.210  64.880  1.00  0.00    -0.409 OA 
BRANCH  32  35
HETATM   35  C   UNL     3     -10.410  13.015  66.103  1.00  0.00    -0.278 C  
HETATM   36  H   UNL     3     -10.198  11.689  67.494  1.00  0.00     0.000 HD 
HETATM   37  O   UNL     3      -9.925  12.592  67.384  1.00  0.00    -0.202 OA 
BRANCH  35  38
HETATM   38  C   UNL     3     -11.896  12.722  65.921  1.00  0.00    -0.437 C  
HETATM   39  C   UNL     3     -12.164  12.107  64.523  1.00  0.00    -0.319 C  
HETATM   40  O   UNL     3     -12.678  13.925  66.052  1.00  0.00    -0.463 OA 
HETATM   41  O   UNL     3     -11.139  11.874  63.809  1.00  0.00    -0.365 OA 
HETATM   42  O   UNL     3     -13.379  12.135  64.181  1.00  0.00    -0.750 OA 
HETATM   43  H   UNL     3     -13.604  13.742  65.939  1.00  0.00     0.000 HD 
ENDBRANCH  35  38
ENDBRANCH  32  35
ENDBRANCH  29  32
ENDBRANCH  26  29
ENDBRANCH   6  26
TORSDOF 10
ENDMDL
MODEL      143
REMARK 921   NORMALIZED FREE ENERGY PREDICTED BY IDOCK:   -5.88 KCAL/MOL
REMARK 922        TOTAL FREE ENERGY PREDICTED BY IDOCK:  -11.82 KCAL/MOL
REMARK 923 INTER-LIGAND FREE ENERGY PREDICTED BY IDOCK:   -9.31 KCAL/MOL
REMARK 924 INTRA-LIGAND FREE ENERGY PREDICTED BY IDOCK:   -2.51 KCAL/MOL
REMARK 927      BINDING AFFINITY PREDICTED BY RF-SCORE:    0.00 PKD
ROOT
HETATM    1 CA   UNL     1     -11.730   8.430  67.676  1.00  0.00    -0.415 Ca 
HETATM    2  O   UNL     2     -13.663   9.025  73.045  1.00  0.00    -0.923 OA 
HETATM    3  O   UNL     3      -9.144  11.930  63.135  1.00  0.00    -0.644 OA 
HETATM    4  H   UNL     2     -14.603   9.038  72.910  1.00  0.00     0.000 HD 
HETATM    5  C   UNL     2     -13.015   8.947  71.776  1.00  0.00    -0.367 C  
HETATM    6  C   UNL     3     -10.402  11.424  63.572  1.00  0.00    -0.423 C  
HETATM    7  H   UNL     3      -9.000  11.708  62.223  1.00  0.00     0.000 HD 
ENDROOT
BRANCH   5   8
HETATM    8  C   UNL     2     -11.488   8.925  71.996  1.00  0.00    -0.361 C  
HETATM    9  O   UNL     2     -11.187   7.876  72.910  1.00  0.00    -0.398 OA 
HETATM   10  H   UNL     2     -10.247   7.863  73.045  1.00  0.00     0.000 HD 
BRANCH   8  11
HETATM   11  C   UNL     2     -10.739   8.643  70.683  1.00  0.00    -0.222 C  
HETATM   12  H   UNL     2      -8.994   9.125  69.811  1.00  0.00     0.000 HD 
HETATM   13  O   UNL     2      -9.457   9.299  70.622  1.00  0.00    -0.235 OA 
BRANCH  11  14
HETATM   14  C   UNL     2     -10.577   7.183  70.194  1.00  0.00    -0.230 C  
HETATM   15  O   UNL     2     -11.732   6.429  70.524  1.00  0.00    -0.386 OA 
HETATM   16  H   UNL     2     -11.632   5.532  70.224  1.00  0.00     0.000 HD 
BRANCH  14  17
HETATM   17  C   UNL     2      -9.236   6.474  70.467  1.00  0.00    -0.155 C  
HETATM   18  H   UNL     2      -8.402   5.641  72.025  1.00  0.00     0.000 HD 
HETATM   19  O   UNL     2      -9.230   6.078  71.857  1.00  0.00    -0.150 OA 
BRANCH  17  20
HETATM   20  C   UNL     2      -8.897   5.305  69.543  1.00  0.00    -0.104 C  
HETATM   21  O   UNL     2     -10.017   4.404  69.396  1.00  0.00    -0.197 OA 
HETATM   22  C   UNL     2      -8.521   5.899  68.156  1.00  0.00    -0.114 C  
HETATM   23  H   UNL     2      -9.806   3.678  68.822  1.00  0.00     0.000 HD 
HETATM   24  O   UNL     2      -7.829   6.950  68.215  1.00  0.00    -0.113 OA 
HETATM   25  O   UNL     2      -8.993   5.245  67.188  1.00  0.00    -0.113 OA 
ENDBRANCH  17  20
ENDBRANCH  14  17
ENDBRANCH  11  14
ENDBRANCH   8  11
ENDBRANCH   5   8
BRANCH   6  26
HETATM   26  C   UNL     3     -10.634  11.782  65.047  1.00  0.00    -0.288 C  
HETATM   27  H   UNL     3     -10.347  10.880  66.716  1.00  0.00     0.000 HD 
HETATM   28  O   UNL     3     -10.204  10.658  65.804  1.00  0.00    -0.253 OA 
BRANCH  26  29
HETATM   29  C   UNL     3      -9.925  13.102  65.450  1.00  0.00    -0.188 C  
HETATM   30  O   UNL     3     -10.420  14.207  64.573  1.00  0.00    -0.563 OA 
HETATM   31  H   UNL     3      -9.985  15.015  64.820  1.00  0.00     0.000 HD 
BRANCH  29  32
HETATM   32  C   UNL     3     -10.288  13.611  66.862  1.00  0.00    -0.262 C  
HETATM   33  H   UNL     3      -9.508  13.394  68.657  1.00  0.00     0.000 HD 
HETATM   34  O   UNL     3      -9.285  13.080  67.789  1.00  0.00    -0.183 OA 
BRANCH  32  35
HETATM   35  C   UNL     3     -11.712  13.691  67.433  1.00  0.00    -0.381 C  
HETATM   36  H   UNL     3     -13.479  13.863  66.665  1.00  0.00     0.000 HD 
HETATM   37  O   UNL     3     -12.598  13.813  66.312  1.00  0.00    -0.416 OA 
BRANCH  35  38
HETATM   38  C   UNL     3     -12.133  12.577  68.384  1.00  0.00    -0.072 C  
HETATM   39  C   UNL     3     -12.047  13.054  69.858  1.00  0.00    -0.277 C  
HETATM   40  O   UNL     3     -11.288  11.419  68.227  1.00  0.00    -0.236 OA 
HETATM   41  O   UNL     3     -11.737  14.275  70.032  1.00  0.00    -0.274 OA 
HETATM   42  O   UNL     3     -12.068  12.113  70.698  1.00  0.00    -0.365 OA 
HETATM   43  H   UNL     3     -11.550  10.724  68.820  1.00  0.00     0.000 HD 
ENDBRANCH  35  38
ENDBRANCH  32  35
ENDBRANCH  29  32
ENDBRANCH  26  29
ENDBRANCH   6  26
TORSDOF 10
ENDMDL
MODEL      144
REMARK 921   NORMALIZED FREE ENERGY PREDICTED BY IDOCK:   -5.88 KCAL/MOL
REMARK 922        TOTAL FREE ENERGY PREDICTED BY IDOCK:  -11.81 KCAL/MOL
REMARK 923 INTER-LIGAND FREE ENERGY PREDICTED BY IDOCK:  -10.20 KCAL/MOL
REMARK 924 INTRA-LIGAND FREE ENERGY PREDICTED BY IDOCK:   -1.62 KCAL/MOL
REMARK 927      BINDING AFFINITY PREDICTED BY RF-SCORE:    0.00 PKD
ROOT
HETATM    1 CA   UNL     1      -9.682  10.641  70.525  1.00  0.00    -0.374 Ca 
HETATM    2  O   UNL     2     -13.568  14.859  70.687  1.00  0.00    -0.631 OA 
HETATM    3  O   UNL     3      -8.582   5.304  67.385  1.00  0.00    -0.106 OA 
HETATM    4  H   UNL     2     -14.066  14.631  71.464  1.00  0.00     0.000 HD 
HETATM    5  C   UNL     2     -12.582  13.853  70.460  1.00  0.00    -0.312 C  
HETATM    6  C   UNL     3      -9.159   5.786  68.594  1.00  0.00    -0.114 C  
HETATM    7  H   UNL     3      -7.946   4.623  67.573  1.00  0.00     0.000 HD 
ENDROOT
BRANCH   5   8
HETATM    8  C   UNL     2     -11.773  14.223  69.198  1.00  0.00    -0.320 C  
HETATM    9  O   UNL     2     -10.501  14.708  69.615  1.00  0.00    -0.394 OA 
HETATM   10  H   UNL     2     -10.004  14.936  68.838  1.00  0.00     0.000 HD 
BRANCH   8  11
HETATM   11  C   UNL     2     -11.544  12.995  68.302  1.00  0.00    -0.340 C  
HETATM   12  H   UNL     2     -12.142  11.080  68.189  1.00  0.00     0.000 HD 
HETATM   13  O   UNL     2     -12.283  11.839  68.743  1.00  0.00    -0.367 OA 
BRANCH  11  14
HETATM   14  C   UNL     2     -11.698  13.130  66.767  1.00  0.00    -0.385 C  
HETATM   15  O   UNL     2     -11.974  11.863  66.193  1.00  0.00    -0.537 OA 
HETATM   16  H   UNL     2     -12.068  11.946  65.251  1.00  0.00     0.000 HD 
BRANCH  14  17
HETATM   17  C   UNL     2     -10.658  13.976  66.008  1.00  0.00    -0.297 C  
HETATM   18  H   UNL     2      -9.622  13.752  64.368  1.00  0.00     0.000 HD 
HETATM   19  O   UNL     2     -10.263  13.230  64.836  1.00  0.00    -0.325 OA 
BRANCH  17  20
HETATM   20  C   UNL     2     -11.082  15.402  65.657  1.00  0.00    -0.271 C  
HETATM   21  O   UNL     2      -9.973  16.173  65.145  1.00  0.00    -0.459 OA 
HETATM   22  C   UNL     2     -12.193  15.306  64.574  1.00  0.00    -0.194 C  
HETATM   23  H   UNL     2     -10.237  17.059  64.927  1.00  0.00     0.000 HD 
HETATM   24  O   UNL     2     -13.017  14.372  64.761  1.00  0.00    -0.616 OA 
HETATM   25  O   UNL     2     -12.078  16.167  63.661  1.00  0.00    -0.800 OA 
ENDBRANCH  17  20
ENDBRANCH  14  17
ENDBRANCH  11  14
ENDBRANCH   8  11
ENDBRANCH   5   8
BRANCH   6  26
HETATM   26  C   UNL     3     -10.186   6.886  68.289  1.00  0.00    -0.180 C  
HETATM   27  H   UNL     3     -12.102   6.957  68.197  1.00  0.00     0.000 HD 
HETATM   28  O   UNL     3     -11.467   6.276  68.386  1.00  0.00    -0.201 OA 
BRANCH  26  29
HETATM   29  C   UNL     3     -10.022   8.118  69.219  1.00  0.00    -0.188 C  
HETATM   30  O   UNL     3     -10.755   9.277  68.623  1.00  0.00    -0.309 OA 
HETATM   31  H   UNL     3     -10.655  10.031  69.192  1.00  0.00     0.000 HD 
BRANCH  29  32
HETATM   32  C   UNL     3     -10.703   7.968  70.596  1.00  0.00    -0.228 C  
HETATM   33  H   UNL     3     -12.064   8.989  71.589  1.00  0.00     0.000 HD 
HETATM   34  O   UNL     3     -11.645   9.081  70.741  1.00  0.00    -0.276 OA 
BRANCH  32  35
HETATM   35  C   UNL     3      -9.990   7.557  71.894  1.00  0.00    -0.171 C  
HETATM   36  H   UNL     3      -8.902   8.479  73.200  1.00  0.00     0.000 HD 
HETATM   37  O   UNL     3      -9.343   8.733  72.398  1.00  0.00    -0.331 OA 
BRANCH  35  38
HETATM   38  C   UNL     3     -10.840   6.866  72.954  1.00  0.00    -0.285 C  
HETATM   39  C   UNL     3     -10.590   5.335  72.943  1.00  0.00    -0.229 C  
HETATM   40  O   UNL     3     -12.243   7.104  72.724  1.00  0.00    -0.488 OA 
HETATM   41  O   UNL     3      -9.690   4.922  72.145  1.00  0.00    -0.153 OA 
HETATM   42  O   UNL     3     -11.473   4.672  73.555  1.00  0.00    -0.314 OA 
HETATM   43  H   UNL     3     -12.773   6.673  73.385  1.00  0.00     0.000 HD 
ENDBRANCH  35  38
ENDBRANCH  32  35
ENDBRANCH  29  32
ENDBRANCH  26  29
ENDBRANCH   6  26
TORSDOF 10
ENDMDL
MODEL      145
REMARK 921   NORMALIZED FREE ENERGY PREDICTED BY IDOCK:   -5.85 KCAL/MOL
REMARK 922        TOTAL FREE ENERGY PREDICTED BY IDOCK:  -11.77 KCAL/MOL
REMARK 923 INTER-LIGAND FREE ENERGY PREDICTED BY IDOCK:   -9.15 KCAL/MOL
REMARK 924 INTRA-LIGAND FREE ENERGY PREDICTED BY IDOCK:   -2.62 KCAL/MOL
REMARK 927      BINDING AFFINITY PREDICTED BY RF-SCORE:    0.00 PKD
ROOT
HETATM    1 CA   UNL     1      -7.241  11.766  65.366  1.00  0.00    -0.329 Ca 
HETATM    2  O   UNL     2      -7.174  16.856  68.013  1.00  0.00    -0.155 OA 
HETATM    3  O   UNL     3      -9.813   6.070  66.070  1.00  0.00    -0.368 OA 
HETATM    4  H   UNL     2      -6.326  16.837  68.443  1.00  0.00     0.000 HD 
HETATM    5  C   UNL     2      -7.382  15.610  67.350  1.00  0.00    -0.204 C  
HETATM    6  C   UNL     3      -8.615   6.793  66.340  1.00  0.00    -0.130 C  
HETATM    7  H   UNL     3      -9.613   5.266  65.606  1.00  0.00     0.000 HD 
ENDROOT
BRANCH   5   8
HETATM    8  C   UNL     2      -8.759  15.640  66.652  1.00  0.00    -0.298 C  
HETATM    9  O   UNL     2      -9.004  14.349  66.105  1.00  0.00    -0.490 OA 
HETATM   10  H   UNL     2      -9.852  14.368  65.675  1.00  0.00     0.000 HD 
BRANCH   8  11
HETATM   11  C   UNL     2      -9.884  15.956  67.650  1.00  0.00    -0.233 C  
HETATM   12  H   UNL     2     -11.881  16.181  67.648  1.00  0.00     0.000 HD 
HETATM   13  O   UNL     2     -11.185  15.985  67.031  1.00  0.00    -0.147 OA 
BRANCH  11  14
HETATM   14  C   UNL     2      -9.979  15.159  68.974  1.00  0.00    -0.239 C  
HETATM   15  O   UNL     2     -10.289  13.802  68.703  1.00  0.00    -0.234 OA 
HETATM   16  H   UNL     2     -10.348  13.312  69.515  1.00  0.00     0.000 HD 
BRANCH  14  17
HETATM   17  C   UNL     2     -10.764  15.786  70.141  1.00  0.00    -0.344 C  
HETATM   18  H   UNL     2     -11.116  17.608  70.753  1.00  0.00     0.000 HD 
HETATM   19  O   UNL     2     -10.631  17.221  70.033  1.00  0.00     0.018 OA 
BRANCH  17  20
HETATM   20  C   UNL     2     -12.227  15.361  70.269  1.00  0.00    -0.380 C  
HETATM   21  O   UNL     2     -12.635  14.530  69.160  1.00  0.00    -0.566 OA 
HETATM   22  C   UNL     2     -12.368  14.564  71.596  1.00  0.00    -0.350 C  
HETATM   23  H   UNL     2     -13.544  14.266  69.239  1.00  0.00     0.000 HD 
HETATM   24  O   UNL     2     -11.707  15.039  72.557  1.00  0.00    -0.370 OA 
HETATM   25  O   UNL     2     -13.107  13.548  71.494  1.00  0.00    -0.351 OA 
ENDBRANCH  17  20
ENDBRANCH  14  17
ENDBRANCH  11  14
ENDBRANCH   8  11
ENDBRANCH   5   8
BRANCH   6  26
HETATM   26  C   UNL     3      -8.939   8.093  67.090  1.00  0.00    -0.139 C  
HETATM   27  H   UNL     3      -8.109   9.818  67.223  1.00  0.00     0.000 HD 
HETATM   28  O   UNL     3      -7.908   9.014  66.759  1.00  0.00    -0.102 OA 
BRANCH  26  29
HETATM   29  C   UNL     3     -10.361   8.621  66.765  1.00  0.00    -0.266 C  
HETATM   30  O   UNL     3     -10.928   9.276  67.984  1.00  0.00    -0.474 OA 
HETATM   31  H   UNL     3     -11.799   9.599  67.784  1.00  0.00     0.000 HD 
BRANCH  29  32
HETATM   32  C   UNL     3     -10.391   9.767  65.730  1.00  0.00    -0.031 C  
HETATM   33  H   UNL     3      -9.330  10.223  64.134  1.00  0.00     0.000 HD 
HETATM   34  O   UNL     3      -9.311   9.518  64.771  1.00  0.00    -0.245 OA 
BRANCH  32  35
HETATM   35  C   UNL     3     -10.628  11.249  66.059  1.00  0.00    -0.258 C  
HETATM   36  H   UNL     3      -9.570  12.649  66.872  1.00  0.00     0.000 HD 
HETATM   37  O   UNL     3      -9.424  11.733  66.668  1.00  0.00    -0.194 OA 
BRANCH  35  38
HETATM   38  C   UNL     3     -11.095  12.139  64.913  1.00  0.00    -0.319 C  
HETATM   39  C   UNL     3     -12.236  13.080  65.381  1.00  0.00    -0.471 C  
HETATM   40  O   UNL     3     -11.576  11.348  63.808  1.00  0.00    -0.495 OA 
HETATM   41  O   UNL     3     -12.533  13.025  66.616  1.00  0.00    -0.349 OA 
HETATM   42  O   UNL     3     -12.880  13.608  64.432  1.00  0.00    -0.638 OA 
HETATM   43  H   UNL     3     -11.866  11.903  63.094  1.00  0.00     0.000 HD 
ENDBRANCH  35  38
ENDBRANCH  32  35
ENDBRANCH  29  32
ENDBRANCH  26  29
ENDBRANCH   6  26
TORSDOF 10
ENDMDL
MODEL      146
REMARK 921   NORMALIZED FREE ENERGY PREDICTED BY IDOCK:   -5.84 KCAL/MOL
REMARK 922        TOTAL FREE ENERGY PREDICTED BY IDOCK:  -11.76 KCAL/MOL
REMARK 923 INTER-LIGAND FREE ENERGY PREDICTED BY IDOCK:   -9.07 KCAL/MOL
REMARK 924 INTRA-LIGAND FREE ENERGY PREDICTED BY IDOCK:   -2.69 KCAL/MOL
REMARK 927      BINDING AFFINITY PREDICTED BY RF-SCORE:    0.00 PKD
ROOT
HETATM    1 CA   UNL     1      -8.954  12.223  67.299  1.00  0.00    -0.150 Ca 
HETATM    2  O   UNL     2     -11.342  15.761  71.133  1.00  0.00    -0.351 OA 
HETATM    3  O   UNL     3      -9.349   6.217  65.475  1.00  0.00    -0.372 OA 
HETATM    4  H   UNL     2     -10.664  15.810  71.797  1.00  0.00     0.000 HD 
HETATM    5  C   UNL     2     -10.927  14.849  70.117  1.00  0.00    -0.180 C  
HETATM    6  C   UNL     3      -8.591   7.077  66.321  1.00  0.00    -0.139 C  
HETATM    7  H   UNL     3      -8.771   5.731  64.899  1.00  0.00     0.000 HD 
ENDROOT
BRANCH   5   8
HETATM    8  C   UNL     2     -12.028  14.770  69.038  1.00  0.00    -0.273 C  
HETATM    9  O   UNL     2     -12.883  15.898  69.195  1.00  0.00    -0.224 OA 
HETATM   10  H   UNL     2     -13.561  15.849  68.531  1.00  0.00     0.000 HD 
BRANCH   8  11
HETATM   11  C   UNL     2     -11.428  14.821  67.623  1.00  0.00    -0.347 C  
HETATM   12  H   UNL     2      -9.629  14.658  66.743  1.00  0.00     0.000 HD 
HETATM   13  O   UNL     2     -10.000  14.627  67.617  1.00  0.00    -0.225 OA 
BRANCH  11  14
HETATM   14  C   UNL     2     -12.053  13.962  66.497  1.00  0.00    -0.449 C  
HETATM   15  O   UNL     2     -11.972  12.586  66.832  1.00  0.00    -0.507 OA 
HETATM   16  H   UNL     2     -12.356  12.059  66.141  1.00  0.00     0.000 HD 
BRANCH  14  17
HETATM   17  C   UNL     2     -11.683  14.300  65.040  1.00  0.00    -0.383 C  
HETATM   18  H   UNL     2     -10.925  15.853  64.129  1.00  0.00     0.000 HD 
HETATM   19  O   UNL     2     -11.154  15.645  65.028  1.00  0.00    -0.395 OA 
BRANCH  17  20
HETATM   20  C   UNL     2     -10.745  13.316  64.342  1.00  0.00    -0.415 C  
HETATM   21  O   UNL     2      -9.675  12.894  65.216  1.00  0.00    -0.469 OA 
HETATM   22  C   UNL     2     -11.592  12.081  63.923  1.00  0.00    -0.449 C  
HETATM   23  H   UNL     2      -9.092  12.282  64.782  1.00  0.00     0.000 HD 
HETATM   24  O   UNL     2     -12.738  12.365  63.483  1.00  0.00    -0.727 OA 
HETATM   25  O   UNL     2     -11.003  10.983  64.114  1.00  0.00    -0.314 OA 
ENDBRANCH  17  20
ENDBRANCH  14  17
ENDBRANCH  11  14
ENDBRANCH   8  11
ENDBRANCH   5   8
BRANCH   6  26
HETATM   26  C   UNL     3      -9.525   7.862  67.253  1.00  0.00    -0.149 C  
HETATM   27  H   UNL     3     -10.161   7.616  69.047  1.00  0.00     0.000 HD 
HETATM   28  O   UNL     3      -9.583   7.130  68.471  1.00  0.00    -0.139 OA 
BRANCH  26  29
HETATM   29  C   UNL     3      -9.068   9.332  67.442  1.00  0.00    -0.126 C  
HETATM   30  O   UNL     3     -10.098  10.241  66.851  1.00  0.00    -0.202 OA 
HETATM   31  H   UNL     3      -9.818  11.142  66.967  1.00  0.00     0.000 HD 
BRANCH  29  32
HETATM   32  C   UNL     3      -9.021   9.798  68.913  1.00  0.00    -0.144 C  
HETATM   33  H   UNL     3      -8.099   9.171  70.537  1.00  0.00     0.000 HD 
HETATM   34  O   UNL     3      -8.129   8.884  69.632  1.00  0.00    -0.098 OA 
BRANCH  32  35
HETATM   35  C   UNL     3     -10.231  10.285  69.725  1.00  0.00    -0.220 C  
HETATM   36  H   UNL     3     -11.535  11.697  69.512  1.00  0.00     0.000 HD 
HETATM   37  O   UNL     3     -10.786  11.396  69.010  1.00  0.00    -0.205 OA 
BRANCH  35  38
HETATM   38  C   UNL     3     -11.284   9.240  70.079  1.00  0.00    -0.168 C  
HETATM   39  C   UNL     3     -12.384   9.857  70.982  1.00  0.00    -0.357 C  
HETATM   40  O   UNL     3     -10.691   8.125  70.773  1.00  0.00    -0.215 OA 
HETATM   41  O   UNL     3     -12.287  11.104  71.207  1.00  0.00    -0.347 OA 
HETATM   42  O   UNL     3     -13.100   8.998  71.568  1.00  0.00    -0.329 OA 
HETATM   43  H   UNL     3     -11.347   7.474  70.993  1.00  0.00     0.000 HD 
ENDBRANCH  35  38
ENDBRANCH  32  35
ENDBRANCH  29  32
ENDBRANCH  26  29
ENDBRANCH   6  26
TORSDOF 10
ENDMDL
MODEL      147
REMARK 921   NORMALIZED FREE ENERGY PREDICTED BY IDOCK:   -5.84 KCAL/MOL
REMARK 922        TOTAL FREE ENERGY PREDICTED BY IDOCK:  -11.75 KCAL/MOL
REMARK 923 INTER-LIGAND FREE ENERGY PREDICTED BY IDOCK:   -9.08 KCAL/MOL
REMARK 924 INTRA-LIGAND FREE ENERGY PREDICTED BY IDOCK:   -2.67 KCAL/MOL
REMARK 927      BINDING AFFINITY PREDICTED BY RF-SCORE:    0.00 PKD
ROOT
HETATM    1 CA   UNL     1      -7.025  10.947  69.699  1.00  0.00    -0.060 Ca 
HETATM    2  O   UNL     2      -5.636  16.434  70.643  1.00  0.00    -0.145 OA 
HETATM    3  O   UNL     3     -11.995   7.134  70.253  1.00  0.00    -0.545 OA 
HETATM    4  H   UNL     2      -5.140  16.370  71.452  1.00  0.00     0.000 HD 
HETATM    5  C   UNL     2      -6.122  15.138  70.296  1.00  0.00    -0.127 C  
HETATM    6  C   UNL     3     -10.814   7.533  70.943  1.00  0.00    -0.240 C  
HETATM    7  H   UNL     3     -12.029   6.188  70.181  1.00  0.00     0.000 HD 
ENDROOT
BRANCH   5   8
HETATM    8  C   UNL     2      -6.927  15.242  68.984  1.00  0.00    -0.136 C  
HETATM    9  O   UNL     2      -8.194  14.626  69.192  1.00  0.00    -0.262 OA 
HETATM   10  H   UNL     2      -8.690  14.690  68.384  1.00  0.00     0.000 HD 
BRANCH   8  11
HETATM   11  C   UNL     2      -7.169  16.709  68.591  1.00  0.00    -0.192 C  
HETATM   12  H   UNL     2      -6.493  18.040  67.246  1.00  0.00     0.000 HD 
HETATM   13  O   UNL     2      -6.343  17.133  67.489  1.00  0.00    -0.131 OA 
BRANCH  11  14
HETATM   14  C   UNL     2      -8.616  17.208  68.353  1.00  0.00    -0.246 C  
HETATM   15  O   UNL     2      -9.194  16.518  67.257  1.00  0.00    -0.213 OA 
HETATM   16  H   UNL     2     -10.081  16.824  67.111  1.00  0.00     0.000 HD 
BRANCH  14  17
HETATM   17  C   UNL     2      -8.868  18.728  68.372  1.00  0.00    -0.342 C  
HETATM   18  H   UNL     2      -7.952  20.274  69.138  1.00  0.00     0.000 HD 
HETATM   19  O   UNL     2      -7.796  19.336  69.126  1.00  0.00    -0.321 OA 
BRANCH  17  20
HETATM   20  C   UNL     2      -9.050  19.393  67.008  1.00  0.00    -0.309 C  
HETATM   21  O   UNL     2      -8.207  18.784  66.006  1.00  0.00    -0.458 OA 
HETATM   22  C   UNL     2     -10.542  19.229  66.604  1.00  0.00    -0.438 C  
HETATM   23  H   UNL     2      -8.321  19.198  65.158  1.00  0.00     0.000 HD 
HETATM   24  O   UNL     2     -11.355  19.381  67.555  1.00  0.00    -0.169 OA 
HETATM   25  O   UNL     2     -10.702  18.944  65.387  1.00  0.00    -0.536 OA 
ENDBRANCH  17  20
ENDBRANCH  14  17
ENDBRANCH  11  14
ENDBRANCH   8  11
ENDBRANCH   5   8
BRANCH   6  26
HETATM   26  C   UNL     3     -10.759   9.062  71.060  1.00  0.00    -0.269 C  
HETATM   27  H   UNL     3      -9.659  10.436  70.293  1.00  0.00     0.000 HD 
HETATM   28  O   UNL     3      -9.693   9.490  70.221  1.00  0.00    -0.231 OA 
BRANCH  26  29
HETATM   29  C   UNL     3     -12.116   9.728  70.713  1.00  0.00    -0.279 C  
HETATM   30  O   UNL     3     -13.112   9.384  71.774  1.00  0.00    -0.352 OA 
HETATM   31  H   UNL     3     -13.943   9.792  71.561  1.00  0.00     0.000 HD 
BRANCH  29  32
HETATM   32  C   UNL     3     -12.098  11.271  70.764  1.00  0.00    -0.349 C  
HETATM   33  H   UNL     3     -13.203  12.643  71.645  1.00  0.00     0.000 HD 
HETATM   34  O   UNL     3     -13.215  11.694  71.613  1.00  0.00    -0.409 OA 
BRANCH  32  35
HETATM   35  C   UNL     3     -11.819  12.191  69.565  1.00  0.00    -0.321 C  
HETATM   36  H   UNL     3     -12.182  12.102  67.667  1.00  0.00     0.000 HD 
HETATM   37  O   UNL     3     -12.354  11.533  68.409  1.00  0.00    -0.461 OA 
BRANCH  35  38
HETATM   38  C   UNL     3     -12.297  13.634  69.683  1.00  0.00    -0.203 C  
HETATM   39  C   UNL     3     -11.590  14.532  68.635  1.00  0.00    -0.315 C  
HETATM   40  O   UNL     3     -12.027  14.161  70.997  1.00  0.00    -0.392 OA 
HETATM   41  O   UNL     3     -10.819  13.936  67.819  1.00  0.00    -0.246 OA 
HETATM   42  O   UNL     3     -11.688  15.767  68.875  1.00  0.00    -0.383 OA 
HETATM   43  H   UNL     3     -12.324  15.060  71.070  1.00  0.00     0.000 HD 
ENDBRANCH  35  38
ENDBRANCH  32  35
ENDBRANCH  29  32
ENDBRANCH  26  29
ENDBRANCH   6  26
TORSDOF 10
ENDMDL
MODEL      148
REMARK 921   NORMALIZED FREE ENERGY PREDICTED BY IDOCK:   -5.84 KCAL/MOL
REMARK 922        TOTAL FREE ENERGY PREDICTED BY IDOCK:  -11.75 KCAL/MOL
REMARK 923 INTER-LIGAND FREE ENERGY PREDICTED BY IDOCK:   -9.66 KCAL/MOL
REMARK 924 INTRA-LIGAND FREE ENERGY PREDICTED BY IDOCK:   -2.09 KCAL/MOL
REMARK 927      BINDING AFFINITY PREDICTED BY RF-SCORE:    0.00 PKD
ROOT
HETATM    1 CA   UNL     1      -9.634  13.559  69.445  1.00  0.00    -0.380 Ca 
HETATM    2  O   UNL     2      -6.484   8.971  70.840  1.00  0.00    -0.049 OA 
HETATM    3  O   UNL     3      -9.210  18.712  65.865  1.00  0.00    -0.472 OA 
HETATM    4  H   UNL     2      -6.177   9.205  71.709  1.00  0.00     0.000 HD 
HETATM    5  C   UNL     2      -7.244  10.056  70.310  1.00  0.00    -0.147 C  
HETATM    6  C   UNL     3      -9.028  18.269  67.207  1.00  0.00    -0.259 C  
HETATM    7  H   UNL     3      -9.782  19.470  65.844  1.00  0.00     0.000 HD 
ENDROOT
BRANCH   5   8
HETATM    8  C   UNL     2      -7.741   9.675  68.900  1.00  0.00    -0.077 C  
HETATM    9  O   UNL     2      -7.670   8.259  68.773  1.00  0.00    -0.108 OA 
HETATM   10  H   UNL     2      -7.976   8.024  67.905  1.00  0.00     0.000 HD 
BRANCH   8  11
HETATM   11  C   UNL     2      -9.204  10.099  68.690  1.00  0.00    -0.157 C  
HETATM   12  H   UNL     2     -10.342  10.925  67.255  1.00  0.00     0.000 HD 
HETATM   13  O   UNL     2      -9.438  10.663  67.384  1.00  0.00    -0.153 OA 
BRANCH  11  14
HETATM   14  C   UNL     2     -10.343   9.101  69.014  1.00  0.00    -0.215 C  
HETATM   15  O   UNL     2     -11.299   9.098  67.966  1.00  0.00    -0.382 OA 
HETATM   16  H   UNL     2     -11.998   8.485  68.166  1.00  0.00     0.000 HD 
BRANCH  14  17
HETATM   17  C   UNL     2     -10.935   9.118  70.436  1.00  0.00    -0.248 C  
HETATM   18  H   UNL     2     -11.925  10.416  71.509  1.00  0.00     0.000 HD 
HETATM   19  O   UNL     2     -11.560  10.406  70.631  1.00  0.00    -0.305 OA 
BRANCH  17  20
HETATM   20  C   UNL     2     -11.884   7.970  70.780  1.00  0.00    -0.162 C  
HETATM   21  O   UNL     2     -11.961   7.007  69.706  1.00  0.00    -0.588 OA 
HETATM   22  C   UNL     2     -11.338   7.279  72.061  1.00  0.00    -0.260 C  
HETATM   23  H   UNL     2     -12.550   6.294  69.919  1.00  0.00     0.000 HD 
HETATM   24  O   UNL     2     -10.885   8.076  72.925  1.00  0.00    -0.366 OA 
HETATM   25  O   UNL     2     -11.411   6.021  72.020  1.00  0.00    -0.288 OA 
ENDBRANCH  17  20
ENDBRANCH  14  17
ENDBRANCH  11  14
ENDBRANCH   8  11
ENDBRANCH   5   8
BRANCH   6  26
HETATM   26  C   UNL     3      -8.105  17.043  67.239  1.00  0.00    -0.181 C  
HETATM   27  H   UNL     3      -7.357  15.952  68.631  1.00  0.00     0.000 HD 
HETATM   28  O   UNL     3      -7.929  16.711  68.611  1.00  0.00    -0.212 OA 
BRANCH  26  29
HETATM   29  C   UNL     3      -8.656  15.868  66.390  1.00  0.00    -0.328 C  
HETATM   30  O   UNL     3      -8.064  14.588  66.887  1.00  0.00    -0.361 OA 
HETATM   31  H   UNL     3      -8.402  13.869  66.366  1.00  0.00     0.000 HD 
BRANCH  29  32
HETATM   32  C   UNL     3     -10.171  15.619  66.559  1.00  0.00    -0.283 C  
HETATM   33  H   UNL     3     -11.268  14.502  67.754  1.00  0.00     0.000 HD 
HETATM   34  O   UNL     3     -10.336  14.655  67.649  1.00  0.00    -0.233 OA 
BRANCH  32  35
HETATM   35  C   UNL     3     -11.174  15.463  65.406  1.00  0.00    -0.272 C  
HETATM   36  H   UNL     3     -11.785  16.604  63.968  1.00  0.00     0.000 HD 
HETATM   37  O   UNL     3     -11.165  16.701  64.682  1.00  0.00    -0.727 OA 
BRANCH  35  38
HETATM   38  C   UNL     3     -10.986  14.257  64.492  1.00  0.00    -0.298 C  
HETATM   39  C   UNL     3     -12.246  13.352  64.516  1.00  0.00    -0.398 C  
HETATM   40  O   UNL     3      -9.849  13.472  64.903  1.00  0.00    -0.583 OA 
HETATM   41  O   UNL     3     -13.230  13.782  65.196  1.00  0.00    -0.757 OA 
HETATM   42  O   UNL     3     -12.049  12.196  64.049  1.00  0.00    -0.414 OA 
HETATM   43  H   UNL     3      -9.732  12.720  64.333  1.00  0.00     0.000 HD 
ENDBRANCH  35  38
ENDBRANCH  32  35
ENDBRANCH  29  32
ENDBRANCH  26  29
ENDBRANCH   6  26
TORSDOF 10
ENDMDL
MODEL      149
REMARK 921   NORMALIZED FREE ENERGY PREDICTED BY IDOCK:   -5.83 KCAL/MOL
REMARK 922        TOTAL FREE ENERGY PREDICTED BY IDOCK:  -11.74 KCAL/MOL
REMARK 923 INTER-LIGAND FREE ENERGY PREDICTED BY IDOCK:   -8.71 KCAL/MOL
REMARK 924 INTRA-LIGAND FREE ENERGY PREDICTED BY IDOCK:   -3.03 KCAL/MOL
REMARK 927      BINDING AFFINITY PREDICTED BY RF-SCORE:    0.00 PKD
ROOT
HETATM    1 CA   UNL     1      -8.492  12.921  69.121  1.00  0.00    -0.300 Ca 
HETATM    2  O   UNL     2     -13.416  15.510  70.523  1.00  0.00    -0.794 OA 
HETATM    3  O   UNL     3      -6.297   8.870  64.841  1.00  0.00    -0.064 OA 
HETATM    4  H   UNL     2     -13.693  15.002  71.276  1.00  0.00     0.000 HD 
HETATM    5  C   UNL     2     -12.215  14.945  70.000  1.00  0.00    -0.333 C  
HETATM    6  C   UNL     3      -6.801   8.919  66.173  1.00  0.00    -0.074 C  
HETATM    7  H   UNL     3      -5.461   8.418  64.823  1.00  0.00     0.000 HD 
ENDROOT
BRANCH   5   8
HETATM    8  C   UNL     2     -11.766  15.771  68.776  1.00  0.00    -0.378 C  
HETATM    9  O   UNL     2     -10.915  16.815  69.236  1.00  0.00    -0.294 OA 
HETATM   10  H   UNL     2     -10.638  17.324  68.483  1.00  0.00     0.000 HD 
BRANCH   8  11
HETATM   11  C   UNL     2     -10.970  14.910  67.783  1.00  0.00    -0.293 C  
HETATM   12  H   UNL     2      -9.080  14.286  67.508  1.00  0.00     0.000 HD 
HETATM   13  O   UNL     2      -9.572  14.818  68.122  1.00  0.00    -0.200 OA 
BRANCH  11  14
HETATM   14  C   UNL     2     -11.487  13.499  67.409  1.00  0.00    -0.336 C  
HETATM   15  O   UNL     2     -10.568  12.512  67.850  1.00  0.00    -0.209 OA 
HETATM   16  H   UNL     2     -10.886  11.646  67.621  1.00  0.00     0.000 HD 
BRANCH  14  17
HETATM   17  C   UNL     2     -12.039  13.285  65.987  1.00  0.00    -0.436 C  
HETATM   18  H   UNL     2     -13.467  14.084  64.921  1.00  0.00     0.000 HD 
HETATM   19  O   UNL     2     -13.127  14.217  65.799  1.00  0.00    -0.512 OA 
BRANCH  17  20
HETATM   20  C   UNL     2     -11.018  13.369  64.852  1.00  0.00    -0.342 C  
HETATM   21  O   UNL     2      -9.703  12.963  65.293  1.00  0.00    -0.469 OA 
HETATM   22  C   UNL     2     -11.501  12.423  63.717  1.00  0.00    -0.467 C  
HETATM   23  H   UNL     2      -9.069  13.015  64.588  1.00  0.00     0.000 HD 
HETATM   24  O   UNL     2     -12.746  12.444  63.522  1.00  0.00    -0.727 OA 
HETATM   25  O   UNL     2     -10.569  11.762  63.185  1.00  0.00    -0.359 OA 
ENDBRANCH  17  20
ENDBRANCH  14  17
ENDBRANCH  11  14
ENDBRANCH   8  11
ENDBRANCH   5   8
BRANCH   6  26
HETATM   26  C   UNL     3      -8.151   9.649  66.201  1.00  0.00    -0.108 C  
HETATM   27  H   UNL     3      -9.014  10.937  65.070  1.00  0.00     0.000 HD 
HETATM   28  O   UNL     3      -8.178  10.486  65.052  1.00  0.00    -0.161 OA 
BRANCH  26  29
HETATM   29  C   UNL     3      -9.349   8.666  66.272  1.00  0.00    -0.220 C  
HETATM   30  O   UNL     3      -8.833   7.289  66.540  1.00  0.00    -0.129 OA 
HETATM   31  H   UNL     3      -9.567   6.687  66.584  1.00  0.00     0.000 HD 
BRANCH  29  32
HETATM   32  C   UNL     3     -10.295   8.904  67.470  1.00  0.00    -0.263 C  
HETATM   33  H   UNL     3     -10.272  10.092  69.040  1.00  0.00     0.000 HD 
HETATM   34  O   UNL     3      -9.690   9.946  68.304  1.00  0.00    -0.142 OA 
BRANCH  32  35
HETATM   35  C   UNL     3     -11.027   7.801  68.250  1.00  0.00     0.184 C  
HETATM   36  H   UNL     3     -11.833   6.107  67.780  1.00  0.00     0.000 HD 
HETATM   37  O   UNL     3     -11.381   6.789  67.298  1.00  0.00    -0.300 OA 
BRANCH  35  38
HETATM   38  C   UNL     3     -10.306   7.226  69.464  1.00  0.00    -0.225 C  
HETATM   39  C   UNL     3     -10.912   7.789  70.777  1.00  0.00    -0.252 C  
HETATM   40  O   UNL     3      -8.902   7.551  69.430  1.00  0.00    -0.136 OA 
HETATM   41  O   UNL     3     -11.927   8.541  70.645  1.00  0.00    -0.189 OA 
HETATM   42  O   UNL     3     -10.178   7.616  71.789  1.00  0.00    -0.186 OA 
HETATM   43  H   UNL     3      -8.452   7.193  70.187  1.00  0.00     0.000 HD 
ENDBRANCH  35  38
ENDBRANCH  32  35
ENDBRANCH  29  32
ENDBRANCH  26  29
ENDBRANCH   6  26
TORSDOF 10
ENDMDL
MODEL      150
REMARK 921   NORMALIZED FREE ENERGY PREDICTED BY IDOCK:   -5.83 KCAL/MOL
REMARK 922        TOTAL FREE ENERGY PREDICTED BY IDOCK:  -11.74 KCAL/MOL
REMARK 923 INTER-LIGAND FREE ENERGY PREDICTED BY IDOCK:   -9.27 KCAL/MOL
REMARK 924 INTRA-LIGAND FREE ENERGY PREDICTED BY IDOCK:   -2.47 KCAL/MOL
REMARK 927      BINDING AFFINITY PREDICTED BY RF-SCORE:    0.00 PKD
ROOT
HETATM    1 CA   UNL     1      -8.051  11.466  68.142  1.00  0.00    -0.101 Ca 
HETATM    2  O   UNL     2      -7.344   7.076  71.768  1.00  0.00    -0.083 OA 
HETATM    3  O   UNL     3     -11.796  13.146  63.377  1.00  0.00    -0.673 OA 
HETATM    4  H   UNL     2      -6.590   6.636  71.392  1.00  0.00     0.000 HD 
HETATM    5  C   UNL     2      -7.701   8.176  70.932  1.00  0.00    -0.085 C  
HETATM    6  C   UNL     3     -10.529  12.549  63.642  1.00  0.00    -0.384 C  
HETATM    7  H   UNL     3     -11.697  13.869  62.769  1.00  0.00     0.000 HD 
ENDROOT
BRANCH   5   8
HETATM    8  C   UNL     2      -8.926   8.889  71.543  1.00  0.00    -0.205 C  
HETATM    9  O   UNL     2      -9.623   9.547  70.490  1.00  0.00    -0.249 OA 
HETATM   10  H   UNL     2     -10.378   9.987  70.866  1.00  0.00     0.000 HD 
BRANCH   8  11
HETATM   11  C   UNL     2      -9.888   7.885  72.197  1.00  0.00    -0.205 C  
HETATM   12  H   UNL     2     -10.333   7.204  74.035  1.00  0.00     0.000 HD 
HETATM   13  O   UNL     2      -9.738   7.824  73.630  1.00  0.00    -0.293 OA 
BRANCH  11  14
HETATM   14  C   UNL     2     -11.397   7.938  71.855  1.00  0.00    -0.276 C  
HETATM   15  O   UNL     2     -12.134   8.403  72.975  1.00  0.00    -0.526 OA 
HETATM   16  H   UNL     2     -13.060   8.435  72.765  1.00  0.00     0.000 HD 
BRANCH  14  17
HETATM   17  C   UNL     2     -12.015   6.730  71.125  1.00  0.00    -0.370 C  
HETATM   18  H   UNL     2     -13.832   6.126  70.740  1.00  0.00     0.000 HD 
HETATM   19  O   UNL     2     -13.451   6.871  71.191  1.00  0.00    -0.226 OA 
BRANCH  17  20
HETATM   20  C   UNL     2     -11.534   6.497  69.693  1.00  0.00    -0.352 C  
HETATM   21  O   UNL     2     -11.223   7.742  69.029  1.00  0.00    -0.417 OA 
HETATM   22  C   UNL     2     -10.256   5.613  69.767  1.00  0.00    -0.251 C  
HETATM   23  H   UNL     2     -10.924   7.596  68.139  1.00  0.00     0.000 HD 
HETATM   24  O   UNL     2     -10.311   4.697  70.630  1.00  0.00    -0.182 OA 
HETATM   25  O   UNL     2      -9.353   5.972  68.965  1.00  0.00    -0.124 OA 
ENDBRANCH  17  20
ENDBRANCH  14  17
ENDBRANCH  11  14
ENDBRANCH   8  11
ENDBRANCH   5   8
BRANCH   6  26
HETATM   26  C   UNL     3     -10.690  11.380  64.624  1.00  0.00    -0.314 C  
HETATM   27  H   UNL     3     -10.193   9.526  64.609  1.00  0.00     0.000 HD 
HETATM   28  O   UNL     3     -10.093  10.250  64.001  1.00  0.00    -0.263 OA 
BRANCH  26  29
HETATM   29  C   UNL     3     -10.091  11.698  66.020  1.00  0.00    -0.224 C  
HETATM   30  O   UNL     3      -8.966  12.669  65.857  1.00  0.00    -0.422 OA 
HETATM   31  H   UNL     3      -8.600  12.863  66.712  1.00  0.00     0.000 HD 
BRANCH  29  32
HETATM   32  C   UNL     3     -11.050  12.456  66.963  1.00  0.00    -0.278 C  
HETATM   33  H   UNL     3     -12.668  11.973  67.978  1.00  0.00     0.000 HD 
HETATM   34  O   UNL     3     -12.078  11.507  67.397  1.00  0.00    -0.593 OA 
BRANCH  32  35
HETATM   35  C   UNL     3     -11.553  13.891  66.744  1.00  0.00    -0.378 C  
HETATM   36  H   UNL     3     -13.097  14.676  65.884  1.00  0.00     0.000 HD 
HETATM   37  O   UNL     3     -12.786  13.789  66.020  1.00  0.00    -0.444 OA 
BRANCH  35  38
HETATM   38  C   UNL     3     -11.682  14.769  67.984  1.00  0.00    -0.333 C  
HETATM   39  C   UNL     3     -10.337  15.476  68.296  1.00  0.00    -0.235 C  
HETATM   40  O   UNL     3     -12.066  13.986  69.132  1.00  0.00    -0.346 OA 
HETATM   41  O   UNL     3      -9.401  15.290  67.457  1.00  0.00    -0.201 OA 
HETATM   42  O   UNL     3     -10.273  15.954  69.462  1.00  0.00    -0.244 OA 
HETATM   43  H   UNL     3     -12.147  14.533  69.905  1.00  0.00     0.000 HD 
ENDBRANCH  35  38
ENDBRANCH  32  35
ENDBRANCH  29  32
ENDBRANCH  26  29
ENDBRANCH   6  26
TORSDOF 10
ENDMDL
MODEL      151
REMARK 921   NORMALIZED FREE ENERGY PREDICTED BY IDOCK:   -5.83 KCAL/MOL
REMARK 922        TOTAL FREE ENERGY PREDICTED BY IDOCK:  -11.73 KCAL/MOL
REMARK 923 INTER-LIGAND FREE ENERGY PREDICTED BY IDOCK:   -8.56 KCAL/MOL
REMARK 924 INTRA-LIGAND FREE ENERGY PREDICTED BY IDOCK:   -3.17 KCAL/MOL
REMARK 927      BINDING AFFINITY PREDICTED BY RF-SCORE:    0.00 PKD
ROOT
HETATM    1 CA   UNL     1      -7.980   7.615  67.381  1.00  0.00    -0.099 Ca 
HETATM    2  O   UNL     2      -6.754  11.040  62.944  1.00  0.00    -0.354 OA 
HETATM    3  O   UNL     3     -10.502   7.994  73.130  1.00  0.00    -0.338 OA 
HETATM    4  H   UNL     2      -5.815  11.150  63.041  1.00  0.00     0.000 HD 
HETATM    5  C   UNL     2      -7.240  10.252  64.029  1.00  0.00    -0.057 C  
HETATM    6  C   UNL     3      -9.242   7.988  72.464  1.00  0.00    -0.216 C  
HETATM    7  H   UNL     3     -10.512   7.341  73.819  1.00  0.00     0.000 HD 
ENDROOT
BRANCH   5   8
HETATM    8  C   UNL     2      -8.765  10.073  63.873  1.00  0.00    -0.206 C  
HETATM    9  O   UNL     2      -9.008   8.755  63.392  1.00  0.00    -0.418 OA 
HETATM   10  H   UNL     2      -9.947   8.645  63.296  1.00  0.00     0.000 HD 
BRANCH   8  11
HETATM   11  C   UNL     2      -9.487  10.230  65.221  1.00  0.00    -0.240 C  
HETATM   12  H   UNL     2      -9.592   9.286  66.992  1.00  0.00     0.000 HD 
HETATM   13  O   UNL     2      -9.146   9.190  66.159  1.00  0.00    -0.161 OA 
BRANCH  11  14
HETATM   14  C   UNL     2      -9.452  11.594  65.953  1.00  0.00    -0.228 C  
HETATM   15  O   UNL     2      -8.694  11.485  67.147  1.00  0.00    -0.150 OA 
HETATM   16  H   UNL     2      -8.672  12.322  67.596  1.00  0.00     0.000 HD 
BRANCH  14  17
HETATM   17  C   UNL     2     -10.772  12.375  66.088  1.00  0.00    -0.260 C  
HETATM   18  H   UNL     2     -11.640  13.391  67.513  1.00  0.00     0.000 HD 
HETATM   19  O   UNL     2     -10.825  12.909  67.430  1.00  0.00    -0.244 OA 
BRANCH  17  20
HETATM   20  C   UNL     2     -11.020  13.458  65.038  1.00  0.00    -0.316 C  
HETATM   21  O   UNL     2      -9.921  13.550  64.104  1.00  0.00    -0.766 OA 
HETATM   22  C   UNL     2     -12.321  13.079  64.275  1.00  0.00    -0.366 C  
HETATM   23  H   UNL     2     -10.076  14.223  63.452  1.00  0.00     0.000 HD 
HETATM   24  O   UNL     2     -13.233  12.614  65.008  1.00  0.00    -0.753 OA 
HETATM   25  O   UNL     2     -12.247  13.275  63.032  1.00  0.00    -0.525 OA 
ENDBRANCH  17  20
ENDBRANCH  14  17
ENDBRANCH  11  14
ENDBRANCH   8  11
ENDBRANCH   5   8
BRANCH   6  26
HETATM   26  C   UNL     3      -9.226   9.044  71.350  1.00  0.00    -0.223 C  
HETATM   27  H   UNL     3      -7.865  10.118  70.527  1.00  0.00     0.000 HD 
HETATM   28  O   UNL     3      -7.875   9.464  71.216  1.00  0.00    -0.335 OA 
BRANCH  26  29
HETATM   29  C   UNL     3      -9.837   8.513  70.026  1.00  0.00    -0.179 C  
HETATM   30  O   UNL     3      -9.053   9.057  68.876  1.00  0.00    -0.138 OA 
HETATM   31  H   UNL     3      -9.427   8.732  68.065  1.00  0.00     0.000 HD 
BRANCH  29  32
HETATM   32  C   UNL     3      -9.698   6.987  69.830  1.00  0.00    -0.163 C  
HETATM   33  H   UNL     3      -8.270   5.798  69.177  1.00  0.00     0.000 HD 
HETATM   34  O   UNL     3      -8.356   6.737  69.297  1.00  0.00    -0.123 OA 
BRANCH  32  35
HETATM   35  C   UNL     3     -10.793   6.064  69.274  1.00  0.00    -0.358 C  
HETATM   36  H   UNL     3     -12.701   5.897  69.547  1.00  0.00     0.000 HD 
HETATM   37  O   UNL     3     -12.023   6.468  69.891  1.00  0.00    -0.319 OA 
BRANCH  35  38
HETATM   38  C   UNL     3     -10.908   5.975  67.757  1.00  0.00    -0.290 C  
HETATM   39  C   UNL     3     -10.152   4.731  67.223  1.00  0.00    -0.146 C  
HETATM   40  O   UNL     3     -10.360   7.151  67.128  1.00  0.00    -0.227 OA 
HETATM   41  O   UNL     3      -9.648   3.964  68.103  1.00  0.00    -0.167 OA 
HETATM   42  O   UNL     3      -9.933   4.764  65.980  1.00  0.00    -0.192 OA 
HETATM   43  H   UNL     3     -10.432   7.095  66.182  1.00  0.00     0.000 HD 
ENDBRANCH  35  38
ENDBRANCH  32  35
ENDBRANCH  29  32
ENDBRANCH  26  29
ENDBRANCH   6  26
TORSDOF 10
ENDMDL
MODEL      152
REMARK 921   NORMALIZED FREE ENERGY PREDICTED BY IDOCK:   -5.82 KCAL/MOL
REMARK 922        TOTAL FREE ENERGY PREDICTED BY IDOCK:  -11.73 KCAL/MOL
REMARK 923 INTER-LIGAND FREE ENERGY PREDICTED BY IDOCK:   -9.75 KCAL/MOL
REMARK 924 INTRA-LIGAND FREE ENERGY PREDICTED BY IDOCK:   -1.98 KCAL/MOL
REMARK 927      BINDING AFFINITY PREDICTED BY RF-SCORE:    0.00 PKD
ROOT
HETATM    1 CA   UNL     1     -12.320  10.002  67.833  1.00  0.00    -0.379 Ca 
HETATM    2  O   UNL     2     -12.439  13.916  63.640  1.00  0.00    -0.872 OA 
HETATM    3  O   UNL     3      -8.868   5.064  69.636  1.00  0.00    -0.092 OA 
HETATM    4  H   UNL     2     -13.138  13.585  63.088  1.00  0.00     0.000 HD 
HETATM    5  C   UNL     2     -12.230  13.005  64.717  1.00  0.00    -0.435 C  
HETATM    6  C   UNL     3     -10.048   5.393  68.909  1.00  0.00    -0.195 C  
HETATM    7  H   UNL     3      -9.062   4.413  70.300  1.00  0.00     0.000 HD 
ENDROOT
BRANCH   5   8
HETATM    8  C   UNL     2     -11.095  13.543  65.613  1.00  0.00    -0.289 C  
HETATM    9  O   UNL     2      -9.977  13.835  64.782  1.00  0.00    -0.617 OA 
HETATM   10  H   UNL     2      -9.277  14.166  65.334  1.00  0.00     0.000 HD 
BRANCH   8  11
HETATM   11  C   UNL     2     -11.512  14.841  66.324  1.00  0.00    -0.316 C  
HETATM   12  H   UNL     2     -11.844  15.494  68.195  1.00  0.00     0.000 HD 
HETATM   13  O   UNL     2     -11.586  14.692  67.756  1.00  0.00    -0.330 OA 
BRANCH  11  14
HETATM   14  C   UNL     2     -10.774  16.163  65.997  1.00  0.00    -0.241 C  
HETATM   15  O   UNL     2     -10.727  16.359  64.593  1.00  0.00    -0.773 OA 
HETATM   16  H   UNL     2     -10.274  17.170  64.393  1.00  0.00     0.000 HD 
BRANCH  14  17
HETATM   17  C   UNL     2      -9.458  16.458  66.741  1.00  0.00    -0.247 C  
HETATM   18  H   UNL     2      -7.574  16.038  66.442  1.00  0.00     0.000 HD 
HETATM   19  O   UNL     2      -8.386  15.856  65.983  1.00  0.00    -0.202 OA 
BRANCH  17  20
HETATM   20  C   UNL     2      -9.178  17.929  67.047  1.00  0.00    -0.260 C  
HETATM   21  O   UNL     2      -9.118  18.719  65.839  1.00  0.00    -0.456 OA 
HETATM   22  C   UNL     2     -10.333  18.447  67.950  1.00  0.00    -0.401 C  
HETATM   23  H   UNL     2      -8.944  19.633  66.029  1.00  0.00     0.000 HD 
HETATM   24  O   UNL     2     -10.712  17.625  68.826  1.00  0.00    -0.257 OA 
HETATM   25  O   UNL     2     -10.727  19.605  67.645  1.00  0.00    -0.445 OA 
ENDBRANCH  17  20
ENDBRANCH  14  17
ENDBRANCH  11  14
ENDBRANCH   8  11
ENDBRANCH   5   8
BRANCH   6  26
HETATM   26  C   UNL     3      -9.733   6.445  67.836  1.00  0.00    -0.121 C  
HETATM   27  H   UNL     3     -10.732   7.267  66.418  1.00  0.00     0.000 HD 
HETATM   28  O   UNL     3     -10.926   6.616  67.081  1.00  0.00    -0.363 OA 
BRANCH  26  29
HETATM   29  C   UNL     3      -9.199   7.767  68.447  1.00  0.00    -0.137 C  
HETATM   30  O   UNL     3      -8.997   8.763  67.349  1.00  0.00    -0.132 OA 
HETATM   31  H   UNL     3      -8.669   9.572  67.724  1.00  0.00     0.000 HD 
BRANCH  29  32
HETATM   32  C   UNL     3     -10.203   8.491  69.370  1.00  0.00    -0.211 C  
HETATM   33  H   UNL     3     -10.911  10.325  69.481  1.00  0.00     0.000 HD 
HETATM   34  O   UNL     3     -10.293   9.880  68.913  1.00  0.00    -0.187 OA 
BRANCH  32  35
HETATM   35  C   UNL     3     -10.292   8.308  70.893  1.00  0.00    -0.192 C  
HETATM   36  H   UNL     3     -10.023   9.463  72.421  1.00  0.00     0.000 HD 
HETATM   37  O   UNL     3      -9.968   9.576  71.479  1.00  0.00    -0.188 OA 
BRANCH  35  38
HETATM   38  C   UNL     3     -11.595   7.735  71.439  1.00  0.00    -0.276 C  
HETATM   39  C   UNL     3     -11.314   6.526  72.369  1.00  0.00    -0.279 C  
HETATM   40  O   UNL     3     -12.456   7.300  70.367  1.00  0.00    -0.574 OA 
HETATM   41  O   UNL     3     -10.089   6.265  72.590  1.00  0.00    -0.175 OA 
HETATM   42  O   UNL     3     -12.330   5.813  72.597  1.00  0.00    -0.108 OA 
HETATM   43  H   UNL     3     -13.268   6.942  70.708  1.00  0.00     0.000 HD 
ENDBRANCH  35  38
ENDBRANCH  32  35
ENDBRANCH  29  32
ENDBRANCH  26  29
ENDBRANCH   6  26
TORSDOF 10
ENDMDL
MODEL      153
REMARK 921   NORMALIZED FREE ENERGY PREDICTED BY IDOCK:   -5.82 KCAL/MOL
REMARK 922        TOTAL FREE ENERGY PREDICTED BY IDOCK:  -11.73 KCAL/MOL
REMARK 923 INTER-LIGAND FREE ENERGY PREDICTED BY IDOCK:  -10.34 KCAL/MOL
REMARK 924 INTRA-LIGAND FREE ENERGY PREDICTED BY IDOCK:   -1.39 KCAL/MOL
REMARK 927      BINDING AFFINITY PREDICTED BY RF-SCORE:    0.00 PKD
ROOT
HETATM    1 CA   UNL     1      -8.148  15.344  65.930  1.00  0.00    -0.309 Ca 
HETATM    2  O   UNL     2     -11.975  12.343  62.886  1.00  0.00    -0.616 OA 
HETATM    3  O   UNL     3      -6.793  21.333  67.290  1.00  0.00    -0.492 OA 
HETATM    4  H   UNL     2     -11.467  12.107  62.119  1.00  0.00     0.000 HD 
HETATM    5  C   UNL     2     -11.175  13.166  63.734  1.00  0.00    -0.273 C  
HETATM    6  C   UNL     3      -6.430  20.283  66.398  1.00  0.00    -0.212 C  
HETATM    7  H   UNL     3      -6.019  21.687  67.713  1.00  0.00     0.000 HD 
ENDROOT
BRANCH   5   8
HETATM    8  C   UNL     2     -12.001  13.551  64.980  1.00  0.00    -0.372 C  
HETATM    9  O   UNL     2     -13.283  12.942  64.865  1.00  0.00    -0.782 OA 
HETATM   10  H   UNL     2     -13.791  13.179  65.633  1.00  0.00     0.000 HD 
BRANCH   8  11
HETATM   11  C   UNL     2     -11.341  13.034  66.268  1.00  0.00    -0.317 C  
HETATM   12  H   UNL     2      -9.611  12.185  66.839  1.00  0.00     0.000 HD 
HETATM   13  O   UNL     2     -10.019  12.505  66.043  1.00  0.00    -0.250 OA 
BRANCH  11  14
HETATM   14  C   UNL     2     -11.310  13.936  67.527  1.00  0.00    -0.318 C  
HETATM   15  O   UNL     2     -10.499  15.075  67.288  1.00  0.00    -0.258 OA 
HETATM   16  H   UNL     2     -10.480  15.628  68.061  1.00  0.00     0.000 HD 
BRANCH  14  17
HETATM   17  C   UNL     2     -11.099  13.260  68.895  1.00  0.00    -0.261 C  
HETATM   18  H   UNL     2     -11.417  13.768  70.754  1.00  0.00     0.000 HD 
HETATM   19  O   UNL     2     -11.548  14.185  69.910  1.00  0.00    -0.264 OA 
BRANCH  17  20
HETATM   20  C   UNL     2     -11.733  11.880  69.065  1.00  0.00    -0.331 C  
HETATM   21  O   UNL     2     -10.835  10.829  68.644  1.00  0.00    -0.189 OA 
HETATM   22  C   UNL     2     -12.070  11.703  70.572  1.00  0.00    -0.366 C  
HETATM   23  H   UNL     2     -11.230   9.972  68.749  1.00  0.00     0.000 HD 
HETATM   24  O   UNL     2     -12.525  12.739  71.125  1.00  0.00    -0.352 OA 
HETATM   25  O   UNL     2     -11.809  10.551  71.011  1.00  0.00    -0.350 OA 
ENDBRANCH  17  20
ENDBRANCH  14  17
ENDBRANCH  11  14
ENDBRANCH   8  11
ENDBRANCH   5   8
BRANCH   6  26
HETATM   26  C   UNL     3      -7.680  19.713  65.714  1.00  0.00    -0.234 C  
HETATM   27  H   UNL     3      -8.165  17.998  65.001  1.00  0.00     0.000 HD 
HETATM   28  O   UNL     3      -7.391  18.351  65.424  1.00  0.00    -0.521 OA 
BRANCH  26  29
HETATM   29  C   UNL     3      -8.958  19.899  66.575  1.00  0.00    -0.366 C  
HETATM   30  O   UNL     3     -10.093  20.287  65.682  1.00  0.00    -0.549 OA 
HETATM   31  H   UNL     3     -10.875  20.401  66.210  1.00  0.00     0.000 HD 
BRANCH  29  32
HETATM   32  C   UNL     3      -9.478  18.600  67.227  1.00  0.00    -0.298 C  
HETATM   33  H   UNL     3     -11.209  17.659  67.255  1.00  0.00     0.000 HD 
HETATM   34  O   UNL     3     -10.888  18.458  66.854  1.00  0.00    -0.325 OA 
BRANCH  32  35
HETATM   35  C   UNL     3      -9.140  18.128  68.650  1.00  0.00    -0.277 C  
HETATM   36  H   UNL     3     -10.076  17.119  70.008  1.00  0.00     0.000 HD 
HETATM   37  O   UNL     3     -10.285  17.411  69.128  1.00  0.00    -0.329 OA 
BRANCH  35  38
HETATM   38  C   UNL     3      -7.849  17.336  68.820  1.00  0.00    -0.254 C  
HETATM   39  C   UNL     3      -6.686  18.270  69.247  1.00  0.00    -0.217 C  
HETATM   40  O   UNL     3      -7.482  16.678  67.591  1.00  0.00    -0.142 OA 
HETATM   41  O   UNL     3      -6.996  19.484  69.462  1.00  0.00    -0.331 OA 
HETATM   42  O   UNL     3      -5.542  17.758  69.097  1.00  0.00    -0.182 OA 
HETATM   43  H   UNL     3      -6.677  16.184  67.697  1.00  0.00     0.000 HD 
ENDBRANCH  35  38
ENDBRANCH  32  35
ENDBRANCH  29  32
ENDBRANCH  26  29
ENDBRANCH   6  26
TORSDOF 10
ENDMDL
MODEL      154
REMARK 921   NORMALIZED FREE ENERGY PREDICTED BY IDOCK:   -5.82 KCAL/MOL
REMARK 922        TOTAL FREE ENERGY PREDICTED BY IDOCK:  -11.73 KCAL/MOL
REMARK 923 INTER-LIGAND FREE ENERGY PREDICTED BY IDOCK:   -9.37 KCAL/MOL
REMARK 924 INTRA-LIGAND FREE ENERGY PREDICTED BY IDOCK:   -2.35 KCAL/MOL
REMARK 927      BINDING AFFINITY PREDICTED BY RF-SCORE:    0.00 PKD
ROOT
HETATM    1 CA   UNL     1     -13.240  14.075  69.009  1.00  0.00    -0.430 Ca 
HETATM    2  O   UNL     2     -13.411   9.702  72.719  1.00  0.00    -0.574 OA 
HETATM    3  O   UNL     3      -9.259  18.565  67.126  1.00  0.00    -0.270 OA 
HETATM    4  H   UNL     2     -13.935  10.068  73.423  1.00  0.00     0.000 HD 
HETATM    5  C   UNL     2     -13.212  10.704  71.723  1.00  0.00    -0.421 C  
HETATM    6  C   UNL     3     -10.346  18.342  68.020  1.00  0.00    -0.384 C  
HETATM    7  H   UNL     3      -9.433  19.323  66.581  1.00  0.00     0.000 HD 
ENDROOT
BRANCH   5   8
HETATM    8  C   UNL     2     -12.360  10.111  70.581  1.00  0.00    -0.293 C  
HETATM    9  O   UNL     2     -12.253  11.091  69.554  1.00  0.00    -0.336 OA 
HETATM   10  H   UNL     2     -11.729  10.725  68.851  1.00  0.00     0.000 HD 
BRANCH   8  11
HETATM   11  C   UNL     2     -10.941   9.769  71.063  1.00  0.00    -0.332 C  
HETATM   12  H   UNL     2     -10.038   8.430  72.259  1.00  0.00     0.000 HD 
HETATM   13  O   UNL     2     -10.915   8.642  71.962  1.00  0.00    -0.316 OA 
BRANCH  11  14
HETATM   14  C   UNL     2      -9.800   9.609  70.028  1.00  0.00    -0.246 C  
HETATM   15  O   UNL     2      -9.219  10.871  69.746  1.00  0.00    -0.330 OA 
HETATM   16  H   UNL     2      -8.518  10.773  69.111  1.00  0.00     0.000 HD 
BRANCH  14  17
HETATM   17  C   UNL     2     -10.061   8.722  68.796  1.00  0.00    -0.198 C  
HETATM   18  H   UNL     2      -9.966   8.977  66.861  1.00  0.00     0.000 HD 
HETATM   19  O   UNL     2      -9.805   9.524  67.622  1.00  0.00    -0.153 OA 
BRANCH  17  20
HETATM   20  C   UNL     2      -9.303   7.396  68.752  1.00  0.00    -0.144 C  
HETATM   21  O   UNL     2      -8.026   7.494  69.420  1.00  0.00    -0.118 OA 
HETATM   22  C   UNL     2     -10.182   6.331  69.467  1.00  0.00    -0.194 C  
HETATM   23  H   UNL     2      -7.554   6.670  69.393  1.00  0.00     0.000 HD 
HETATM   24  O   UNL     2     -11.413   6.425  69.216  1.00  0.00    -0.381 OA 
HETATM   25  O   UNL     2      -9.523   5.553  70.207  1.00  0.00    -0.155 OA 
ENDBRANCH  17  20
ENDBRANCH  14  17
ENDBRANCH  11  14
ENDBRANCH   8  11
ENDBRANCH   5   8
BRANCH   6  26
HETATM   26  C   UNL     3     -10.064  17.117  68.901  1.00  0.00    -0.322 C  
HETATM   27  H   UNL     3     -11.077  15.575  69.432  1.00  0.00     0.000 HD 
HETATM   28  O   UNL     3     -11.251  16.334  68.888  1.00  0.00    -0.331 OA 
BRANCH  26  29
HETATM   29  C   UNL     3      -8.808  16.334  68.435  1.00  0.00    -0.202 C  
HETATM   30  O   UNL     3      -8.551  15.214  69.393  1.00  0.00    -0.280 OA 
HETATM   31  H   UNL     3      -7.782  14.735  69.108  1.00  0.00     0.000 HD 
BRANCH  29  32
HETATM   32  C   UNL     3      -8.986  15.588  67.095  1.00  0.00    -0.214 C  
HETATM   33  H   UNL     3      -8.302  15.843  65.265  1.00  0.00     0.000 HD 
HETATM   34  O   UNL     3      -8.193  16.302  66.090  1.00  0.00    -0.315 OA 
BRANCH  32  35
HETATM   35  C   UNL     3     -10.311  15.009  66.574  1.00  0.00    -0.284 C  
HETATM   36  H   UNL     3     -11.347  15.222  64.955  1.00  0.00     0.000 HD 
HETATM   37  O   UNL     3     -10.527  15.580  65.277  1.00  0.00    -0.370 OA 
BRANCH  35  38
HETATM   38  C   UNL     3     -10.439  13.490  66.567  1.00  0.00    -0.284 C  
HETATM   39  C   UNL     3     -11.930  13.067  66.608  1.00  0.00    -0.387 C  
HETATM   40  O   UNL     3      -9.765  12.911  67.702  1.00  0.00    -0.202 OA 
HETATM   41  O   UNL     3     -12.780  14.011  66.557  1.00  0.00    -0.310 OA 
HETATM   42  O   UNL     3     -12.107  11.858  66.923  1.00  0.00    -0.599 OA 
HETATM   43  H   UNL     3      -9.845  11.964  67.697  1.00  0.00     0.000 HD 
ENDBRANCH  35  38
ENDBRANCH  32  35
ENDBRANCH  29  32
ENDBRANCH  26  29
ENDBRANCH   6  26
TORSDOF 10
ENDMDL
MODEL      155
REMARK 921   NORMALIZED FREE ENERGY PREDICTED BY IDOCK:   -5.80 KCAL/MOL
REMARK 922        TOTAL FREE ENERGY PREDICTED BY IDOCK:  -11.70 KCAL/MOL
REMARK 923 INTER-LIGAND FREE ENERGY PREDICTED BY IDOCK:   -9.07 KCAL/MOL
REMARK 924 INTRA-LIGAND FREE ENERGY PREDICTED BY IDOCK:   -2.62 KCAL/MOL
REMARK 927      BINDING AFFINITY PREDICTED BY RF-SCORE:    0.00 PKD
ROOT
HETATM    1 CA   UNL     1     -11.020  10.262  67.984  1.00  0.00    -0.178 Ca 
HETATM    2  O   UNL     2     -14.120   8.281  72.387  1.00  0.00    -0.570 OA 
HETATM    3  O   UNL     3      -8.264  15.602  66.127  1.00  0.00    -0.320 OA 
HETATM    4  H   UNL     2     -14.995   8.272  72.017  1.00  0.00     0.000 HD 
HETATM    5  C   UNL     2     -13.217   8.822  71.424  1.00  0.00    -0.249 C  
HETATM    6  C   UNL     3      -9.463  14.851  65.962  1.00  0.00    -0.281 C  
HETATM    7  H   UNL     3      -7.891  15.815  65.280  1.00  0.00     0.000 HD 
ENDROOT
BRANCH   5   8
HETATM    8  C   UNL     2     -11.795   8.836  72.025  1.00  0.00    -0.372 C  
HETATM    9  O   UNL     2     -11.762   7.908  73.104  1.00  0.00    -0.630 OA 
HETATM   10  H   UNL     2     -10.887   7.917  73.474  1.00  0.00     0.000 HD 
BRANCH   8  11
HETATM   11  C   UNL     2     -10.746   8.399  70.989  1.00  0.00    -0.223 C  
HETATM   12  H   UNL     2     -10.685   7.766  69.083  1.00  0.00     0.000 HD 
HETATM   13  O   UNL     2     -11.333   8.036  69.724  1.00  0.00    -0.062 OA 
BRANCH  11  14
HETATM   14  C   UNL     2      -9.510   9.295  70.728  1.00  0.00    -0.271 C  
HETATM   15  O   UNL     2      -9.870  10.392  69.904  1.00  0.00    -0.397 OA 
HETATM   16  H   UNL     2      -9.112  10.941  69.744  1.00  0.00     0.000 HD 
BRANCH  14  17
HETATM   17  C   UNL     2      -8.185   8.605  70.353  1.00  0.00    -0.120 C  
HETATM   18  H   UNL     2      -7.455   6.805  70.554  1.00  0.00     0.000 HD 
HETATM   19  O   UNL     2      -8.273   7.230  70.786  1.00  0.00    -0.110 OA 
BRANCH  17  20
HETATM   20  C   UNL     2      -7.767   8.712  68.887  1.00  0.00    -0.100 C  
HETATM   21  O   UNL     2      -8.881   8.472  67.999  1.00  0.00    -0.140 OA 
HETATM   22  C   UNL     2      -7.222  10.151  68.659  1.00  0.00    -0.080 C  
HETATM   23  H   UNL     2      -8.621   8.538  67.088  1.00  0.00     0.000 HD 
HETATM   24  O   UNL     2      -6.519  10.592  69.607  1.00  0.00    -0.068 OA 
HETATM   25  O   UNL     2      -7.593  10.660  67.568  1.00  0.00    -0.092 OA 
ENDBRANCH  17  20
ENDBRANCH  14  17
ENDBRANCH  11  14
ENDBRANCH   8  11
ENDBRANCH   5   8
BRANCH   6  26
HETATM   26  C   UNL     3     -10.066  14.506  67.331  1.00  0.00    -0.235 C  
HETATM   27  H   UNL     3     -10.811  15.529  68.773  1.00  0.00     0.000 HD 
HETATM   28  O   UNL     3     -10.438  15.742  67.926  1.00  0.00    -0.257 OA 
BRANCH  26  29
HETATM   29  C   UNL     3     -11.242  13.500  67.220  1.00  0.00    -0.298 C  
HETATM   30  O   UNL     3     -12.415  14.038  67.976  1.00  0.00    -0.489 OA 
HETATM   31  H   UNL     3     -13.135  13.422  67.908  1.00  0.00     0.000 HD 
BRANCH  29  32
HETATM   32  C   UNL     3     -11.811  13.344  65.793  1.00  0.00    -0.377 C  
HETATM   33  H   UNL     3     -13.294  14.169  64.793  1.00  0.00     0.000 HD 
HETATM   34  O   UNL     3     -12.944  14.265  65.671  1.00  0.00    -0.535 OA 
BRANCH  32  35
HETATM   35  C   UNL     3     -11.986  12.008  65.054  1.00  0.00    -0.196 C  
HETATM   36  H   UNL     3     -13.386  11.223  63.975  1.00  0.00     0.000 HD 
HETATM   37  O   UNL     3     -13.277  12.049  64.432  1.00  0.00    -0.669 OA 
BRANCH  35  38
HETATM   38  C   UNL     3     -10.885  11.618  64.074  1.00  0.00    -0.392 C  
HETATM   39  C   UNL     3      -9.886  10.635  64.738  1.00  0.00    -0.310 C  
HETATM   40  O   UNL     3     -10.158  12.779  63.626  1.00  0.00    -0.611 OA 
HETATM   41  O   UNL     3     -10.175  10.256  65.917  1.00  0.00    -0.254 OA 
HETATM   42  O   UNL     3      -8.795  10.520  64.114  1.00  0.00    -0.184 OA 
HETATM   43  H   UNL     3      -9.471  12.536  63.016  1.00  0.00     0.000 HD 
ENDBRANCH  35  38
ENDBRANCH  32  35
ENDBRANCH  29  32
ENDBRANCH  26  29
ENDBRANCH   6  26
TORSDOF 10
ENDMDL
MODEL      156
REMARK 921   NORMALIZED FREE ENERGY PREDICTED BY IDOCK:   -5.80 KCAL/MOL
REMARK 922        TOTAL FREE ENERGY PREDICTED BY IDOCK:  -11.69 KCAL/MOL
REMARK 923 INTER-LIGAND FREE ENERGY PREDICTED BY IDOCK:   -9.99 KCAL/MOL
REMARK 924 INTRA-LIGAND FREE ENERGY PREDICTED BY IDOCK:   -1.70 KCAL/MOL
REMARK 927      BINDING AFFINITY PREDICTED BY RF-SCORE:    0.00 PKD
ROOT
HETATM    1 CA   UNL     1      -6.633  12.225  67.748  1.00  0.00    -0.061 Ca 
HETATM    2  O   UNL     2      -8.963  17.451  68.172  1.00  0.00    -0.245 OA 
HETATM    3  O   UNL     3      -8.458   6.218  67.384  1.00  0.00    -0.109 OA 
HETATM    4  H   UNL     2      -8.825  17.649  69.091  1.00  0.00     0.000 HD 
HETATM    5  C   UNL     2      -8.490  16.131  67.907  1.00  0.00    -0.163 C  
HETATM    6  C   UNL     3      -8.018   7.194  68.324  1.00  0.00    -0.123 C  
HETATM    7  H   UNL     3      -7.931   5.431  67.458  1.00  0.00     0.000 HD 
ENDROOT
BRANCH   5   8
HETATM    8  C   UNL     2      -8.714  15.811  66.414  1.00  0.00    -0.337 C  
HETATM    9  O   UNL     2      -8.734  14.395  66.265  1.00  0.00    -0.457 OA 
HETATM   10  H   UNL     2      -8.872  14.198  65.345  1.00  0.00     0.000 HD 
BRANCH   8  11
HETATM   11  C   UNL     2     -10.062  16.362  65.921  1.00  0.00    -0.347 C  
HETATM   12  H   UNL     2     -10.865  18.126  65.391  1.00  0.00     0.000 HD 
HETATM   13  O   UNL     2     -10.032  17.785  65.696  1.00  0.00    -0.548 OA 
BRANCH  11  14
HETATM   14  C   UNL     2     -10.774  15.682  64.725  1.00  0.00    -0.276 C  
HETATM   15  O   UNL     2     -11.275  16.666  63.835  1.00  0.00    -1.440 OA 
HETATM   16  H   UNL     2     -11.712  16.249  63.101  1.00  0.00     0.000 HD 
BRANCH  14  17
HETATM   17  C   UNL     2     -11.741  14.522  65.025  1.00  0.00    -0.392 C  
HETATM   18  H   UNL     2     -13.654  14.214  64.776  1.00  0.00     0.000 HD 
HETATM   19  O   UNL     2     -13.057  14.930  64.590  1.00  0.00    -0.217 OA 
BRANCH  17  20
HETATM   20  C   UNL     2     -11.352  13.160  64.450  1.00  0.00    -0.363 C  
HETATM   21  O   UNL     2     -10.057  13.206  63.811  1.00  0.00    -0.731 OA 
HETATM   22  C   UNL     2     -11.315  12.148  65.630  1.00  0.00    -0.347 C  
HETATM   23  H   UNL     2      -9.816  12.360  63.454  1.00  0.00     0.000 HD 
HETATM   24  O   UNL     2     -12.242  12.298  66.469  1.00  0.00    -0.588 OA 
HETATM   25  O   UNL     2     -10.342  11.349  65.573  1.00  0.00    -0.247 OA 
ENDBRANCH  17  20
ENDBRANCH  14  17
ENDBRANCH  11  14
ENDBRANCH   8  11
ENDBRANCH   5   8
BRANCH   6  26
HETATM   26  C   UNL     3      -8.870   8.466  68.204  1.00  0.00    -0.142 C  
HETATM   27  H   UNL     3      -9.216   9.732  66.804  1.00  0.00     0.000 HD 
HETATM   28  O   UNL     3      -8.689   8.945  66.878  1.00  0.00    -0.117 OA 
BRANCH  26  29
HETATM   29  C   UNL     3     -10.357   8.214  68.567  1.00  0.00    -0.198 C  
HETATM   30  O   UNL     3     -11.075   7.711  67.356  1.00  0.00    -0.537 OA 
HETATM   31  H   UNL     3     -11.986   7.558  67.578  1.00  0.00     0.000 HD 
BRANCH  29  32
HETATM   32  C   UNL     3     -10.578   7.071  69.581  1.00  0.00    -0.234 C  
HETATM   33  H   UNL     3     -11.375   5.271  69.491  1.00  0.00     0.000 HD 
HETATM   34  O   UNL     3     -11.240   5.975  68.867  1.00  0.00    -0.344 OA 
BRANCH  32  35
HETATM   35  C   UNL     3     -11.035   7.256  71.037  1.00  0.00    -0.251 C  
HETATM   36  H   UNL     3     -12.605   6.751  72.046  1.00  0.00     0.000 HD 
HETATM   37  O   UNL     3     -12.323   6.636  71.146  1.00  0.00    -0.353 OA 
BRANCH  35  38
HETATM   38  C   UNL     3     -10.073   6.786  72.122  1.00  0.00    -0.181 C  
HETATM   39  C   UNL     3      -9.343   7.994  72.766  1.00  0.00    -0.263 C  
HETATM   40  O   UNL     3      -9.084   5.888  71.580  1.00  0.00    -0.143 OA 
HETATM   41  O   UNL     3      -9.709   9.144  72.367  1.00  0.00    -0.108 OA 
HETATM   42  O   UNL     3      -8.320   7.673  73.432  1.00  0.00    -0.127 OA 
HETATM   43  H   UNL     3      -8.484   5.596  72.256  1.00  0.00     0.000 HD 
ENDBRANCH  35  38
ENDBRANCH  32  35
ENDBRANCH  29  32
ENDBRANCH  26  29
ENDBRANCH   6  26
TORSDOF 10
ENDMDL
MODEL      157
REMARK 921   NORMALIZED FREE ENERGY PREDICTED BY IDOCK:   -5.78 KCAL/MOL
REMARK 922        TOTAL FREE ENERGY PREDICTED BY IDOCK:  -11.65 KCAL/MOL
REMARK 923 INTER-LIGAND FREE ENERGY PREDICTED BY IDOCK:  -10.73 KCAL/MOL
REMARK 924 INTRA-LIGAND FREE ENERGY PREDICTED BY IDOCK:   -0.92 KCAL/MOL
REMARK 927      BINDING AFFINITY PREDICTED BY RF-SCORE:    0.00 PKD
ROOT
HETATM    1 CA   UNL     1      -9.442  14.796  69.807  1.00  0.00    -0.254 Ca 
HETATM    2  O   UNL     2     -10.115   9.148  69.048  1.00  0.00    -0.179 OA 
HETATM    3  O   UNL     3     -10.774  20.185  66.852  1.00  0.00    -0.331 OA 
HETATM    4  H   UNL     2      -9.242   8.886  68.777  1.00  0.00     0.000 HD 
HETATM    5  C   UNL     2     -10.139  10.565  69.218  1.00  0.00    -0.224 C  
HETATM    6  C   UNL     3      -9.720  19.243  67.031  1.00  0.00    -0.328 C  
HETATM    7  H   UNL     3     -10.467  21.062  67.048  1.00  0.00     0.000 HD 
ENDROOT
BRANCH   5   8
HETATM    8  C   UNL     2     -11.555  10.990  69.659  1.00  0.00    -0.318 C  
HETATM    9  O   UNL     2     -12.490  10.432  68.742  1.00  0.00    -0.593 OA 
HETATM   10  H   UNL     2     -13.362  10.694  69.014  1.00  0.00     0.000 HD 
BRANCH   8  11
HETATM   11  C   UNL     2     -11.887  10.458  71.062  1.00  0.00    -0.361 C  
HETATM   12  H   UNL     2     -12.937  11.024  72.680  1.00  0.00     0.000 HD 
HETATM   13  O   UNL     2     -12.732  11.353  71.812  1.00  0.00    -0.348 OA 
BRANCH  11  14
HETATM   14  C   UNL     2     -12.421   9.013  71.225  1.00  0.00    -0.289 C  
HETATM   15  O   UNL     2     -13.714   9.036  71.809  1.00  0.00    -0.390 OA 
HETATM   16  H   UNL     2     -14.042   8.150  71.909  1.00  0.00     0.000 HD 
BRANCH  14  17
HETATM   17  C   UNL     2     -11.466   7.950  71.799  1.00  0.00    -0.269 C  
HETATM   18  H   UNL     2     -11.269   7.051  73.522  1.00  0.00     0.000 HD 
HETATM   19  O   UNL     2     -11.859   7.707  73.168  1.00  0.00    -0.096 OA 
BRANCH  17  20
HETATM   20  C   UNL     2     -11.355   6.650  71.002  1.00  0.00    -0.315 C  
HETATM   21  O   UNL     2     -12.028   6.751  69.728  1.00  0.00    -0.654 OA 
HETATM   22  C   UNL     2      -9.843   6.371  70.771  1.00  0.00    -0.184 C  
HETATM   23  H   UNL     2     -11.959   5.944  69.233  1.00  0.00     0.000 HD 
HETATM   24  O   UNL     2      -9.112   6.632  71.763  1.00  0.00    -0.145 OA 
HETATM   25  O   UNL     2      -9.584   5.951  69.612  1.00  0.00    -0.143 OA 
ENDBRANCH  17  20
ENDBRANCH  14  17
ENDBRANCH  11  14
ENDBRANCH   8  11
ENDBRANCH   5   8
BRANCH   6  26
HETATM   26  C   UNL     3     -10.218  17.826  66.714  1.00  0.00    -0.351 C  
HETATM   27  H   UNL     3      -9.701  16.460  65.469  1.00  0.00     0.000 HD 
HETATM   28  O   UNL     3      -9.393  17.337  65.664  1.00  0.00    -0.506 OA 
BRANCH  26  29
HETATM   29  C   UNL     3     -10.222  16.910  67.967  1.00  0.00    -0.310 C  
HETATM   30  O   UNL     3     -10.470  17.748  69.181  1.00  0.00    -0.426 OA 
HETATM   31  H   UNL     3     -10.472  17.187  69.948  1.00  0.00     0.000 HD 
BRANCH  29  32
HETATM   32  C   UNL     3     -11.392  15.904  68.014  1.00  0.00    -0.284 C  
HETATM   33  H   UNL     3     -12.616  15.265  69.419  1.00  0.00     0.000 HD 
HETATM   34  O   UNL     3     -11.895  15.883  69.390  1.00  0.00    -0.362 OA 
BRANCH  32  35
HETATM   35  C   UNL     3     -11.416  14.543  67.301  1.00  0.00    -0.365 C  
HETATM   36  H   UNL     3     -11.983  12.760  67.790  1.00  0.00     0.000 HD 
HETATM   37  O   UNL     3     -11.968  13.602  68.231  1.00  0.00    -0.354 OA 
BRANCH  35  38
HETATM   38  C   UNL     3     -12.112  14.492  65.945  1.00  0.00    -0.280 C  
HETATM   39  C   UNL     3     -12.353  13.023  65.509  1.00  0.00    -0.472 C  
HETATM   40  O   UNL     3     -11.320  15.148  64.935  1.00  0.00    -0.385 OA 
HETATM   41  O   UNL     3     -12.025  12.130  66.352  1.00  0.00    -0.611 OA 
HETATM   42  O   UNL     3     -12.624  12.896  64.283  1.00  0.00    -0.604 OA 
HETATM   43  H   UNL     3     -11.753  15.116  64.090  1.00  0.00     0.000 HD 
ENDBRANCH  35  38
ENDBRANCH  32  35
ENDBRANCH  29  32
ENDBRANCH  26  29
ENDBRANCH   6  26
TORSDOF 10
ENDMDL
MODEL      158
REMARK 921   NORMALIZED FREE ENERGY PREDICTED BY IDOCK:   -5.77 KCAL/MOL
REMARK 922        TOTAL FREE ENERGY PREDICTED BY IDOCK:  -11.65 KCAL/MOL
REMARK 923 INTER-LIGAND FREE ENERGY PREDICTED BY IDOCK:   -9.62 KCAL/MOL
REMARK 924 INTRA-LIGAND FREE ENERGY PREDICTED BY IDOCK:   -2.03 KCAL/MOL
REMARK 927      BINDING AFFINITY PREDICTED BY RF-SCORE:    0.00 PKD
ROOT
HETATM    1 CA   UNL     1      -7.592  12.236  70.106  1.00  0.00    -0.277 Ca 
HETATM    2  O   UNL     2     -11.525  16.414  70.070  1.00  0.00    -0.380 OA 
HETATM    3  O   UNL     3      -6.891   6.381  72.292  1.00  0.00    -0.067 OA 
HETATM    4  H   UNL     2     -11.184  17.004  70.732  1.00  0.00     0.000 HD 
HETATM    5  C   UNL     2     -10.683  15.265  69.999  1.00  0.00    -0.279 C  
HETATM    6  C   UNL     3      -6.594   7.735  72.618  1.00  0.00    -0.066 C  
HETATM    7  H   UNL     3      -6.103   5.852  72.334  1.00  0.00     0.000 HD 
ENDROOT
BRANCH   5   8
HETATM    8  C   UNL     2     -11.237  14.306  68.924  1.00  0.00    -0.264 C  
HETATM    9  O   UNL     2     -12.209  15.012  68.160  1.00  0.00    -0.557 OA 
HETATM   10  H   UNL     2     -12.550  14.422  67.498  1.00  0.00     0.000 HD 
BRANCH   8  11
HETATM   11  C   UNL     2     -10.128  13.837  67.968  1.00  0.00    -0.245 C  
HETATM   12  H   UNL     2      -8.756  12.373  67.855  1.00  0.00     0.000 HD 
HETATM   13  O   UNL     2      -9.442  12.663  68.446  1.00  0.00    -0.214 OA 
BRANCH  11  14
HETATM   14  C   UNL     2     -10.443  13.654  66.463  1.00  0.00    -0.281 C  
HETATM   15  O   UNL     2     -10.784  14.902  65.882  1.00  0.00    -0.300 OA 
HETATM   16  H   UNL     2     -10.977  14.789  64.959  1.00  0.00     0.000 HD 
BRANCH  14  17
HETATM   17  C   UNL     2     -11.346  12.475  66.052  1.00  0.00    -0.344 C  
HETATM   18  H   UNL     2     -12.329  11.085  67.008  1.00  0.00     0.000 HD 
HETATM   19  O   UNL     2     -11.772  11.812  67.262  1.00  0.00    -0.546 OA 
BRANCH  17  20
HETATM   20  C   UNL     2     -12.529  12.822  65.148  1.00  0.00    -0.501 C  
HETATM   21  O   UNL     2     -13.274  13.948  65.661  1.00  0.00    -0.623 OA 
HETATM   22  C   UNL     2     -11.959  13.170  63.744  1.00  0.00    -0.508 C  
HETATM   23  H   UNL     2     -14.009  14.163  65.099  1.00  0.00     0.000 HD 
HETATM   24  O   UNL     2     -11.008  12.431  63.375  1.00  0.00    -0.456 OA 
HETATM   25  O   UNL     2     -12.525  14.159  63.206  1.00  0.00    -0.758 OA 
ENDBRANCH  17  20
ENDBRANCH  14  17
ENDBRANCH  11  14
ENDBRANCH   8  11
ENDBRANCH   5   8
BRANCH   6  26
HETATM   26  C   UNL     3      -7.868   8.589  72.550  1.00  0.00    -0.034 C  
HETATM   27  H   UNL     3      -8.557   9.890  71.318  1.00  0.00     0.000 HD 
HETATM   28  O   UNL     3      -7.768   9.362  71.360  1.00  0.00    -0.334 OA 
BRANCH  26  29
HETATM   29  C   UNL     3      -9.157   7.728  72.615  1.00  0.00    -0.173 C  
HETATM   30  O   UNL     3      -9.646   7.693  74.028  1.00  0.00    -0.387 OA 
HETATM   31  H   UNL     3     -10.435   7.165  74.068  1.00  0.00     0.000 HD 
BRANCH  29  32
HETATM   32  C   UNL     3     -10.362   8.332  71.863  1.00  0.00    -0.255 C  
HETATM   33  H   UNL     3     -12.214   8.791  72.352  1.00  0.00     0.000 HD 
HETATM   34  O   UNL     3     -11.473   8.419  72.815  1.00  0.00    -0.350 OA 
BRANCH  32  35
HETATM   35  C   UNL     3     -10.775   7.976  70.426  1.00  0.00    -0.233 C  
HETATM   36  H   UNL     3     -12.347   7.195  69.615  1.00  0.00     0.000 HD 
HETATM   37  O   UNL     3     -12.092   7.415  70.503  1.00  0.00    -0.186 OA 
BRANCH  35  38
HETATM   38  C   UNL     3     -10.681   9.091  69.390  1.00  0.00    -0.191 C  
HETATM   39  C   UNL     3      -9.799   8.652  68.192  1.00  0.00    -0.165 C  
HETATM   40  O   UNL     3     -10.112  10.283  69.967  1.00  0.00    -0.372 OA 
HETATM   41  O   UNL     3      -9.380   7.452  68.218  1.00  0.00    -0.140 OA 
HETATM   42  O   UNL     3      -9.417   9.609  67.465  1.00  0.00    -0.132 OA 
HETATM   43  H   UNL     3     -10.053  10.978  69.321  1.00  0.00     0.000 HD 
ENDBRANCH  35  38
ENDBRANCH  32  35
ENDBRANCH  29  32
ENDBRANCH  26  29
ENDBRANCH   6  26
TORSDOF 10
ENDMDL
MODEL      159
REMARK 921   NORMALIZED FREE ENERGY PREDICTED BY IDOCK:   -5.77 KCAL/MOL
REMARK 922        TOTAL FREE ENERGY PREDICTED BY IDOCK:  -11.64 KCAL/MOL
REMARK 923 INTER-LIGAND FREE ENERGY PREDICTED BY IDOCK:   -9.25 KCAL/MOL
REMARK 924 INTRA-LIGAND FREE ENERGY PREDICTED BY IDOCK:   -2.39 KCAL/MOL
REMARK 927      BINDING AFFINITY PREDICTED BY RF-SCORE:    0.00 PKD
ROOT
HETATM    1 CA   UNL     1      -6.740  10.850  67.687  1.00  0.00    -0.061 Ca 
HETATM    2  O   UNL     2      -9.377  15.749  69.091  1.00  0.00    -0.223 OA 
HETATM    3  O   UNL     3      -8.205   4.980  65.972  1.00  0.00    -0.110 OA 
HETATM    4  H   UNL     2      -9.286  15.751  70.037  1.00  0.00     0.000 HD 
HETATM    5  C   UNL     2      -8.821  14.540  68.577  1.00  0.00    -0.182 C  
HETATM    6  C   UNL     3      -7.858   5.752  67.118  1.00  0.00    -0.102 C  
HETATM    7  H   UNL     3      -7.638   4.221  65.904  1.00  0.00     0.000 HD 
ENDROOT
BRANCH   5   8
HETATM    8  C   UNL     2      -8.969  14.535  67.040  1.00  0.00    -0.240 C  
HETATM    9  O   UNL     2      -8.688  13.220  66.573  1.00  0.00    -0.431 OA 
HETATM   10  H   UNL     2      -8.779  13.217  65.627  1.00  0.00     0.000 HD 
BRANCH   8  11
HETATM   11  C   UNL     2     -10.403  14.895  66.617  1.00  0.00    -0.283 C  
HETATM   12  H   UNL     2     -11.571  16.525  66.486  1.00  0.00     0.000 HD 
HETATM   13  O   UNL     2     -10.685  16.302  66.747  1.00  0.00    -0.293 OA 
BRANCH  11  14
HETATM   14  C   UNL     2     -10.943  14.402  65.252  1.00  0.00    -0.350 C  
HETATM   15  O   UNL     2     -11.218  15.509  64.409  1.00  0.00    -0.689 OA 
HETATM   16  H   UNL     2     -11.550  15.207  63.572  1.00  0.00     0.000 HD 
BRANCH  14  17
HETATM   17  C   UNL     2     -12.022  13.303  65.256  1.00  0.00    -0.388 C  
HETATM   18  H   UNL     2     -13.975  13.279  65.290  1.00  0.00     0.000 HD 
HETATM   19  O   UNL     2     -13.309  13.958  65.287  1.00  0.00    -0.732 OA 
BRANCH  17  20
HETATM   20  C   UNL     2     -11.936  12.276  64.127  1.00  0.00    -0.432 C  
HETATM   21  O   UNL     2     -11.772  12.915  62.842  1.00  0.00    -0.776 OA 
HETATM   22  C   UNL     2     -10.709  11.365  64.416  1.00  0.00    -0.342 C  
HETATM   23  H   UNL     2     -11.718  12.276  62.140  1.00  0.00     0.000 HD 
HETATM   24  O   UNL     2     -10.565  11.062  65.630  1.00  0.00    -0.252 OA 
HETATM   25  O   UNL     2     -10.035  11.093  63.387  1.00  0.00    -0.314 OA 
ENDBRANCH  17  20
ENDBRANCH  14  17
ENDBRANCH  11  14
ENDBRANCH   8  11
ENDBRANCH   5   8
BRANCH   6  26
HETATM   26  C   UNL     3      -8.776   6.978  67.228  1.00  0.00    -0.120 C  
HETATM   27  H   UNL     3     -10.341   7.581  66.296  1.00  0.00     0.000 HD 
HETATM   28  O   UNL     3      -9.773   6.823  66.227  1.00  0.00    -0.112 OA 
BRANCH  26  29
HETATM   29  C   UNL     3      -9.360   7.150  68.655  1.00  0.00    -0.134 C  
HETATM   30  O   UNL     3      -8.310   6.789  69.657  1.00  0.00    -0.129 OA 
HETATM   31  H   UNL     3      -8.668   6.894  70.531  1.00  0.00     0.000 HD 
BRANCH  29  32
HETATM   32  C   UNL     3      -9.692   8.609  69.034  1.00  0.00    -0.173 C  
HETATM   33  H   UNL     3      -8.789  10.343  68.797  1.00  0.00     0.000 HD 
HETATM   34  O   UNL     3      -8.584   9.445  68.564  1.00  0.00    -0.122 OA 
BRANCH  32  35
HETATM   35  C   UNL     3     -10.315   9.057  70.365  1.00  0.00    -0.212 C  
HETATM   36  H   UNL     3      -9.613   9.716  72.043  1.00  0.00     0.000 HD 
HETATM   37  O   UNL     3      -9.228   9.439  71.219  1.00  0.00    -0.262 OA 
BRANCH  35  38
HETATM   38  C   UNL     3     -11.397  10.128  70.290  1.00  0.00    -0.315 C  
HETATM   39  C   UNL     3     -12.570   9.789  71.246  1.00  0.00    -0.365 C  
HETATM   40  O   UNL     3     -11.915  10.244  68.950  1.00  0.00    -0.600 OA 
HETATM   41  O   UNL     3     -12.415   8.760  71.976  1.00  0.00    -0.336 OA 
HETATM   42  O   UNL     3     -13.623  10.442  71.009  1.00  0.00    -0.173 OA 
HETATM   43  H   UNL     3     -12.589  10.912  68.903  1.00  0.00     0.000 HD 
ENDBRANCH  35  38
ENDBRANCH  32  35
ENDBRANCH  29  32
ENDBRANCH  26  29
ENDBRANCH   6  26
TORSDOF 10
ENDMDL
MODEL      160
REMARK 921   NORMALIZED FREE ENERGY PREDICTED BY IDOCK:   -5.76 KCAL/MOL
REMARK 922        TOTAL FREE ENERGY PREDICTED BY IDOCK:  -11.63 KCAL/MOL
REMARK 923 INTER-LIGAND FREE ENERGY PREDICTED BY IDOCK:  -10.73 KCAL/MOL
REMARK 924 INTRA-LIGAND FREE ENERGY PREDICTED BY IDOCK:   -0.90 KCAL/MOL
REMARK 927      BINDING AFFINITY PREDICTED BY RF-SCORE:    0.00 PKD
ROOT
HETATM    1 CA   UNL     1     -11.680   7.678  67.732  1.00  0.00    -0.443 Ca 
HETATM    2  O   UNL     2     -14.383   8.979  72.624  1.00  0.00    -0.791 OA 
HETATM    3  O   UNL     3      -8.181  10.501  63.334  1.00  0.00    -0.214 OA 
HETATM    4  H   UNL     2     -15.288   9.025  72.336  1.00  0.00     0.000 HD 
HETATM    5  C   UNL     2     -13.552   8.724  71.492  1.00  0.00    -0.331 C  
HETATM    6  C   UNL     3      -9.524  10.113  63.611  1.00  0.00    -0.267 C  
HETATM    7  H   UNL     3      -7.912  10.170  62.486  1.00  0.00     0.000 HD 
ENDROOT
BRANCH   5   8
HETATM    8  C   UNL     2     -12.083   8.649  71.959  1.00  0.00    -0.375 C  
HETATM    9  O   UNL     2     -12.070   8.186  73.305  1.00  0.00    -0.543 OA 
HETATM   10  H   UNL     2     -11.165   8.140  73.592  1.00  0.00     0.000 HD 
BRANCH   8  11
HETATM   11  C   UNL     2     -11.277   7.656  71.106  1.00  0.00    -0.261 C  
HETATM   12  H   UNL     2     -11.610   6.262  69.698  1.00  0.00     0.000 HD 
HETATM   13  O   UNL     2     -12.109   6.876  70.225  1.00  0.00    -0.278 OA 
BRANCH  11  14
HETATM   14  C   UNL     2     -10.041   8.153  70.316  1.00  0.00    -0.192 C  
HETATM   15  O   UNL     2     -10.456   8.849  69.152  1.00  0.00    -0.224 OA 
HETATM   16  H   UNL     2      -9.698   9.154  68.668  1.00  0.00     0.000 HD 
BRANCH  14  17
HETATM   17  C   UNL     2      -8.874   7.170  70.106  1.00  0.00    -0.145 C  
HETATM   18  H   UNL     2      -8.109   5.691  71.126  1.00  0.00     0.000 HD 
HETATM   19  O   UNL     2      -8.829   6.297  71.256  1.00  0.00    -0.138 OA 
BRANCH  17  20
HETATM   20  C   UNL     2      -8.890   6.382  68.797  1.00  0.00    -0.124 C  
HETATM   21  O   UNL     2     -10.240   6.090  68.371  1.00  0.00    -0.150 OA 
HETATM   22  C   UNL     2      -8.181   7.250  67.719  1.00  0.00    -0.119 C  
HETATM   23  H   UNL     2     -10.250   5.600  67.558  1.00  0.00     0.000 HD 
HETATM   24  O   UNL     2      -7.163   7.863  68.137  1.00  0.00    -0.085 OA 
HETATM   25  O   UNL     2      -8.755   7.223  66.598  1.00  0.00    -0.121 OA 
ENDBRANCH  17  20
ENDBRANCH  14  17
ENDBRANCH  11  14
ENDBRANCH   8  11
ENDBRANCH   5   8
BRANCH   6  26
HETATM   26  C   UNL     3      -9.958  10.648  64.983  1.00  0.00    -0.305 C  
HETATM   27  H   UNL     3      -9.447  10.287  66.796  1.00  0.00     0.000 HD 
HETATM   28  O   UNL     3      -9.178   9.955  65.948  1.00  0.00    -0.156 OA 
BRANCH  26  29
HETATM   29  C   UNL     3      -9.827  12.191  65.081  1.00  0.00    -0.180 C  
HETATM   30  O   UNL     3      -9.684  12.755  63.703  1.00  0.00    -0.655 OA 
HETATM   31  H   UNL     3      -9.603  13.700  63.764  1.00  0.00     0.000 HD 
BRANCH  29  32
HETATM   32  C   UNL     3     -11.094  12.904  65.601  1.00  0.00    -0.279 C  
HETATM   33  H   UNL     3     -12.766  12.312  66.458  1.00  0.00     0.000 HD 
HETATM   34  O   UNL     3     -11.986  11.873  66.137  1.00  0.00    -0.537 OA 
BRANCH  32  35
HETATM   35  C   UNL     3     -11.808  14.065  64.892  1.00  0.00    -0.393 C  
HETATM   36  H   UNL     3     -13.428  15.070  65.218  1.00  0.00     0.000 HD 
HETATM   37  O   UNL     3     -12.987  14.351  65.656  1.00  0.00    -0.447 OA 
BRANCH  35  38
HETATM   38  C   UNL     3     -10.979  15.315  64.618  1.00  0.00    -0.304 C  
HETATM   39  C   UNL     3     -10.600  16.021  65.946  1.00  0.00    -0.328 C  
HETATM   40  O   UNL     3     -11.707  16.246  63.794  1.00  0.00    -1.511 OA 
HETATM   41  O   UNL     3     -10.951  15.428  67.014  1.00  0.00    -0.321 OA 
HETATM   42  O   UNL     3     -10.199  17.208  65.793  1.00  0.00    -0.520 OA 
HETATM   43  H   UNL     3     -11.190  17.025  63.623  1.00  0.00     0.000 HD 
ENDBRANCH  35  38
ENDBRANCH  32  35
ENDBRANCH  29  32
ENDBRANCH  26  29
ENDBRANCH   6  26
TORSDOF 10
ENDMDL
MODEL      161
REMARK 921   NORMALIZED FREE ENERGY PREDICTED BY IDOCK:   -5.76 KCAL/MOL
REMARK 922        TOTAL FREE ENERGY PREDICTED BY IDOCK:  -11.63 KCAL/MOL
REMARK 923 INTER-LIGAND FREE ENERGY PREDICTED BY IDOCK:   -8.93 KCAL/MOL
REMARK 924 INTRA-LIGAND FREE ENERGY PREDICTED BY IDOCK:   -2.70 KCAL/MOL
REMARK 927      BINDING AFFINITY PREDICTED BY RF-SCORE:    0.00 PKD
ROOT
HETATM    1 CA   UNL     1     -12.892  10.516  68.655  1.00  0.00    -0.433 Ca 
HETATM    2  O   UNL     2     -10.573  12.808  63.933  1.00  0.00    -0.414 OA 
HETATM    3  O   UNL     3     -11.460   6.294  73.090  1.00  0.00    -0.468 OA 
HETATM    4  H   UNL     2     -11.042  12.348  63.247  1.00  0.00     0.000 HD 
HETATM    5  C   UNL     2     -10.991  12.299  65.199  1.00  0.00    -0.303 C  
HETATM    6  C   UNL     3     -12.163   6.421  71.858  1.00  0.00    -0.279 C  
HETATM    7  H   UNL     3     -12.024   5.912  73.753  1.00  0.00     0.000 HD 
ENDROOT
BRANCH   5   8
HETATM    8  C   UNL     2     -10.230  13.047  66.314  1.00  0.00    -0.288 C  
HETATM    9  O   UNL     2      -9.531  14.135  65.719  1.00  0.00    -0.505 OA 
HETATM   10  H   UNL     2      -9.063  14.596  66.406  1.00  0.00     0.000 HD 
BRANCH   8  11
HETATM   11  C   UNL     2     -11.198  13.619  67.363  1.00  0.00    -0.302 C  
HETATM   12  H   UNL     2     -12.784  13.013  68.438  1.00  0.00     0.000 HD 
HETATM   13  O   UNL     2     -12.186  12.660  67.789  1.00  0.00    -0.338 OA 
BRANCH  11  14
HETATM   14  C   UNL     2     -10.632  14.341  68.611  1.00  0.00    -0.250 C  
HETATM   15  O   UNL     2     -10.986  13.629  69.786  1.00  0.00    -0.456 OA 
HETATM   16  H   UNL     2     -10.639  14.073  70.552  1.00  0.00     0.000 HD 
BRANCH  14  17
HETATM   17  C   UNL     2     -10.801  15.869  68.700  1.00  0.00    -0.291 C  
HETATM   18  H   UNL     2     -11.643  17.099  69.963  1.00  0.00     0.000 HD 
HETATM   19  O   UNL     2     -11.539  16.155  69.909  1.00  0.00    -0.316 OA 
BRANCH  17  20
HETATM   20  C   UNL     2      -9.516  16.691  68.612  1.00  0.00    -0.249 C  
HETATM   21  O   UNL     2      -8.379  15.862  68.284  1.00  0.00    -0.158 OA 
HETATM   22  C   UNL     2      -9.718  17.760  67.502  1.00  0.00    -0.284 C  
HETATM   23  H   UNL     2      -7.580  16.373  68.230  1.00  0.00     0.000 HD 
HETATM   24  O   UNL     2     -10.866  18.280  67.488  1.00  0.00    -0.399 OA 
HETATM   25  O   UNL     2      -8.704  17.920  66.771  1.00  0.00    -0.239 OA 
ENDBRANCH  17  20
ENDBRANCH  14  17
ENDBRANCH  11  14
ENDBRANCH   8  11
ENDBRANCH   5   8
BRANCH   6  26
HETATM   26  C   UNL     3     -11.251   7.037  70.788  1.00  0.00    -0.285 C  
HETATM   27  H   UNL     3     -10.841   6.619  68.960  1.00  0.00     0.000 HD 
HETATM   28  O   UNL     3     -11.405   6.238  69.622  1.00  0.00    -0.405 OA 
BRANCH  26  29
HETATM   29  C   UNL     3     -11.558   8.538  70.547  1.00  0.00    -0.132 C  
HETATM   30  O   UNL     3     -11.975   9.163  71.840  1.00  0.00    -0.352 OA 
HETATM   31  H   UNL     3     -12.163  10.083  71.692  1.00  0.00     0.000 HD 
BRANCH  29  32
HETATM   32  C   UNL     3     -10.327   9.383  70.153  1.00  0.00    -0.233 C  
HETATM   33  H   UNL     3      -9.984  11.308  69.913  1.00  0.00     0.000 HD 
HETATM   34  O   UNL     3     -10.742  10.788  70.155  1.00  0.00    -0.188 OA 
BRANCH  32  35
HETATM   35  C   UNL     3      -9.317   9.013  69.055  1.00  0.00    -0.140 C  
HETATM   36  H   UNL     3      -7.955   7.654  68.860  1.00  0.00     0.000 HD 
HETATM   37  O   UNL     3      -8.580   7.883  69.539  1.00  0.00    -0.134 OA 
BRANCH  35  38
HETATM   38  C   UNL     3      -9.879   8.782  67.657  1.00  0.00    -0.180 C  
HETATM   39  C   UNL     3      -8.856   9.221  66.577  1.00  0.00    -0.133 C  
HETATM   40  O   UNL     3     -11.100   9.524  67.463  1.00  0.00    -0.450 OA 
HETATM   41  O   UNL     3      -7.724   9.608  67.005  1.00  0.00    -0.095 OA 
HETATM   42  O   UNL     3      -9.359   9.360  65.427  1.00  0.00    -0.232 OA 
HETATM   43  H   UNL     3     -11.450   9.380  66.591  1.00  0.00     0.000 HD 
ENDBRANCH  35  38
ENDBRANCH  32  35
ENDBRANCH  29  32
ENDBRANCH  26  29
ENDBRANCH   6  26
TORSDOF 10
ENDMDL
MODEL      162
REMARK 921   NORMALIZED FREE ENERGY PREDICTED BY IDOCK:   -5.75 KCAL/MOL
REMARK 922        TOTAL FREE ENERGY PREDICTED BY IDOCK:  -11.62 KCAL/MOL
REMARK 923 INTER-LIGAND FREE ENERGY PREDICTED BY IDOCK:   -7.75 KCAL/MOL
REMARK 924 INTRA-LIGAND FREE ENERGY PREDICTED BY IDOCK:   -3.87 KCAL/MOL
REMARK 927      BINDING AFFINITY PREDICTED BY RF-SCORE:    0.00 PKD
ROOT
HETATM    1 CA   UNL     1      -7.617   9.364  70.192  1.00  0.00    -0.055 Ca 
HETATM    2  O   UNL     2      -7.971  14.068  66.926  1.00  0.00    -0.378 OA 
HETATM    3  O   UNL     3     -11.379   5.618  73.563  1.00  0.00    -0.462 OA 
HETATM    4  H   UNL     2      -7.638  14.736  67.514  1.00  0.00     0.000 HD 
HETATM    5  C   UNL     2      -8.014  12.822  67.619  1.00  0.00    -0.165 C  
HETATM    6  C   UNL     3     -10.501   6.732  73.701  1.00  0.00    -0.347 C  
HETATM    7  H   UNL     3     -11.141   4.934  74.178  1.00  0.00     0.000 HD 
ENDROOT
BRANCH   5   8
HETATM    8  C   UNL     2      -8.555  11.738  66.663  1.00  0.00    -0.170 C  
HETATM    9  O   UNL     2      -7.447  11.142  65.997  1.00  0.00    -0.320 OA 
HETATM   10  H   UNL     2      -7.781  10.474  65.409  1.00  0.00     0.000 HD 
BRANCH   8  11
HETATM   11  C   UNL     2      -9.298  10.634  67.434  1.00  0.00    -0.143 C  
HETATM   12  H   UNL     2      -8.928   8.800  68.168  1.00  0.00     0.000 HD 
HETATM   13  O   UNL     2      -8.470   9.482  67.692  1.00  0.00    -0.121 OA 
BRANCH  11  14
HETATM   14  C   UNL     2     -10.071  10.992  68.727  1.00  0.00    -0.203 C  
HETATM   15  O   UNL     2      -9.830  10.013  69.725  1.00  0.00    -0.227 OA 
HETATM   16  H   UNL     2     -10.305  10.233  70.518  1.00  0.00     0.000 HD 
BRANCH  14  17
HETATM   17  C   UNL     2     -11.540  11.435  68.591  1.00  0.00    -0.320 C  
HETATM   18  H   UNL     2     -13.202  11.028  69.532  1.00  0.00     0.000 HD 
HETATM   19  O   UNL     2     -12.296  10.754  69.616  1.00  0.00    -0.316 OA 
BRANCH  17  20
HETATM   20  C   UNL     2     -11.789  12.943  68.611  1.00  0.00    -0.312 C  
HETATM   21  O   UNL     2     -10.799  13.632  69.406  1.00  0.00    -0.420 OA 
HETATM   22  C   UNL     2     -11.719  13.448  67.142  1.00  0.00    -0.379 C  
HETATM   23  H   UNL     2     -10.954  14.569  69.419  1.00  0.00     0.000 HD 
HETATM   24  O   UNL     2     -12.256  12.676  66.304  1.00  0.00    -0.562 OA 
HETATM   25  O   UNL     2     -11.110  14.545  67.018  1.00  0.00    -0.304 OA 
ENDBRANCH  17  20
ENDBRANCH  14  17
ENDBRANCH  11  14
ENDBRANCH   8  11
ENDBRANCH   5   8
BRANCH   6  26
HETATM   26  C   UNL     3     -10.886   7.836  72.707  1.00  0.00    -0.379 C  
HETATM   27  H   UNL     3      -9.969   9.332  71.929  1.00  0.00     0.000 HD 
HETATM   28  O   UNL     3      -9.731   8.649  72.545  1.00  0.00    -0.276 OA 
BRANCH  26  29
HETATM   29  C   UNL     3     -11.424   7.262  71.370  1.00  0.00    -0.266 C  
HETATM   30  O   UNL     3     -12.270   8.298  70.701  1.00  0.00    -0.496 OA 
HETATM   31  H   UNL     3     -12.600   7.947  69.883  1.00  0.00     0.000 HD 
BRANCH  29  32
HETATM   32  C   UNL     3     -10.334   6.992  70.310  1.00  0.00    -0.203 C  
HETATM   33  H   UNL     3     -10.193   7.263  68.364  1.00  0.00     0.000 HD 
HETATM   34  O   UNL     3     -10.864   7.429  69.016  1.00  0.00    -0.184 OA 
BRANCH  32  35
HETATM   35  C   UNL     3      -9.452   5.734  70.251  1.00  0.00    -0.161 C  
HETATM   36  H   UNL     3      -9.717   3.913  69.656  1.00  0.00     0.000 HD 
HETATM   37  O   UNL     3     -10.262   4.691  69.693  1.00  0.00    -0.221 OA 
BRANCH  35  38
HETATM   38  C   UNL     3      -8.112   5.871  69.539  1.00  0.00    -0.106 C  
HETATM   39  C   UNL     3      -6.961   5.336  70.432  1.00  0.00    -0.056 C  
HETATM   40  O   UNL     3      -7.839   7.248  69.213  1.00  0.00    -0.112 OA 
HETATM   41  O   UNL     3      -7.309   4.812  71.536  1.00  0.00    -0.065 OA 
HETATM   42  O   UNL     3      -5.814   5.702  70.054  1.00  0.00    -0.021 OA 
HETATM   43  H   UNL     3      -7.003   7.333  68.769  1.00  0.00     0.000 HD 
ENDBRANCH  35  38
ENDBRANCH  32  35
ENDBRANCH  29  32
ENDBRANCH  26  29
ENDBRANCH   6  26
TORSDOF 10
ENDMDL
MODEL      163
REMARK 921   NORMALIZED FREE ENERGY PREDICTED BY IDOCK:   -5.75 KCAL/MOL
REMARK 922        TOTAL FREE ENERGY PREDICTED BY IDOCK:  -11.61 KCAL/MOL
REMARK 923 INTER-LIGAND FREE ENERGY PREDICTED BY IDOCK:   -9.33 KCAL/MOL
REMARK 924 INTRA-LIGAND FREE ENERGY PREDICTED BY IDOCK:   -2.29 KCAL/MOL
REMARK 927      BINDING AFFINITY PREDICTED BY RF-SCORE:    0.00 PKD
ROOT
HETATM    1 CA   UNL     1      -8.973  10.315  67.766  1.00  0.00    -0.125 Ca 
HETATM    2  O   UNL     2      -6.551   5.270  69.033  1.00  0.00    -0.047 OA 
HETATM    3  O   UNL     3     -12.416  12.925  63.196  1.00  0.00    -0.694 OA 
HETATM    4  H   UNL     2      -5.638   5.439  68.829  1.00  0.00     0.000 HD 
HETATM    5  C   UNL     2      -7.319   6.426  68.704  1.00  0.00    -0.087 C  
HETATM    6  C   UNL     3     -11.068  12.796  63.641  1.00  0.00    -0.393 C  
HETATM    7  H   UNL     3     -12.631  13.841  63.063  1.00  0.00     0.000 HD 
ENDROOT
BRANCH   5   8
HETATM    8  C   UNL     2      -8.801   6.152  69.035  1.00  0.00    -0.123 C  
HETATM    9  O   UNL     2      -8.868   4.963  69.815  1.00  0.00    -0.094 OA 
HETATM   10  H   UNL     2      -9.780   4.794  70.018  1.00  0.00     0.000 HD 
BRANCH   8  11
HETATM   11  C   UNL     2      -9.411   7.297  69.860  1.00  0.00    -0.154 C  
HETATM   12  H   UNL     2      -9.185   9.282  70.078  1.00  0.00     0.000 HD 
HETATM   13  O   UNL     2      -8.809   8.574  69.568  1.00  0.00    -0.138 OA 
BRANCH  11  14
HETATM   14  C   UNL     2     -10.949   7.470  69.909  1.00  0.00    -0.211 C  
HETATM   15  O   UNL     2     -11.321   8.688  69.284  1.00  0.00    -0.416 OA 
HETATM   16  H   UNL     2     -12.265   8.794  69.314  1.00  0.00     0.000 HD 
BRANCH  14  17
HETATM   17  C   UNL     2     -11.668   7.173  71.238  1.00  0.00    -0.306 C  
HETATM   18  H   UNL     2     -11.374   5.942  72.726  1.00  0.00     0.000 HD 
HETATM   19  O   UNL     2     -10.930   6.125  71.906  1.00  0.00    -0.241 OA 
BRANCH  17  20
HETATM   20  C   UNL     2     -11.901   8.373  72.155  1.00  0.00    -0.375 C  
HETATM   21  O   UNL     2     -10.969   9.441  71.878  1.00  0.00    -0.325 OA 
HETATM   22  C   UNL     2     -13.353   8.874  71.910  1.00  0.00    -0.405 C  
HETATM   23  H   UNL     2     -11.114  10.187  72.448  1.00  0.00     0.000 HD 
HETATM   24  O   UNL     2     -14.198   7.952  71.758  1.00  0.00    -0.404 OA 
HETATM   25  O   UNL     2     -13.450  10.130  71.876  1.00  0.00    -0.385 OA 
ENDBRANCH  17  20
ENDBRANCH  14  17
ENDBRANCH  11  14
ENDBRANCH   8  11
ENDBRANCH   5   8
BRANCH   6  26
HETATM   26  C   UNL     3     -10.721  11.317  63.856  1.00  0.00    -0.384 C  
HETATM   27  H   UNL     3      -9.574  10.057  62.972  1.00  0.00     0.000 HD 
HETATM   28  O   UNL     3      -9.789  10.973  62.838  1.00  0.00    -0.310 OA 
BRANCH  26  29
HETATM   29  C   UNL     3     -10.195  11.038  65.289  1.00  0.00    -0.284 C  
HETATM   30  O   UNL     3      -8.699  11.047  65.268  1.00  0.00    -0.290 OA 
HETATM   31  H   UNL     3      -8.378  10.876  66.145  1.00  0.00     0.000 HD 
BRANCH  29  32
HETATM   32  C   UNL     3     -10.519  12.149  66.311  1.00  0.00    -0.239 C  
HETATM   33  H   UNL     3      -9.469  13.172  67.627  1.00  0.00     0.000 HD 
HETATM   34  O   UNL     3      -9.270  12.488  66.998  1.00  0.00    -0.200 OA 
BRANCH  32  35
HETATM   35  C   UNL     3     -11.772  12.195  67.198  1.00  0.00    -0.302 C  
HETATM   36  H   UNL     3     -12.664  10.932  68.361  1.00  0.00     0.000 HD 
HETATM   37  O   UNL     3     -11.889  10.904  67.812  1.00  0.00    -0.579 OA 
BRANCH  35  38
HETATM   38  C   UNL     3     -11.852  13.328  68.214  1.00  0.00    -0.354 C  
HETATM   39  C   UNL     3     -11.911  14.702  67.496  1.00  0.00    -0.347 C  
HETATM   40  O   UNL     3     -10.707  13.316  69.090  1.00  0.00    -0.407 OA 
HETATM   41  O   UNL     3     -11.968  14.667  66.227  1.00  0.00    -0.348 OA 
HETATM   42  O   UNL     3     -11.658  15.681  68.252  1.00  0.00    -0.362 OA 
HETATM   43  H   UNL     3     -10.757  14.023  69.723  1.00  0.00     0.000 HD 
ENDBRANCH  35  38
ENDBRANCH  32  35
ENDBRANCH  29  32
ENDBRANCH  26  29
ENDBRANCH   6  26
TORSDOF 10
ENDMDL
MODEL      164
REMARK 921   NORMALIZED FREE ENERGY PREDICTED BY IDOCK:   -5.75 KCAL/MOL
REMARK 922        TOTAL FREE ENERGY PREDICTED BY IDOCK:  -11.61 KCAL/MOL
REMARK 923 INTER-LIGAND FREE ENERGY PREDICTED BY IDOCK:   -9.23 KCAL/MOL
REMARK 924 INTRA-LIGAND FREE ENERGY PREDICTED BY IDOCK:   -2.38 KCAL/MOL
REMARK 927      BINDING AFFINITY PREDICTED BY RF-SCORE:    0.00 PKD
ROOT
HETATM    1 CA   UNL     1     -12.614  10.222  68.824  1.00  0.00    -0.520 Ca 
HETATM    2  O   UNL     2      -9.754  13.585  65.159  1.00  0.00    -0.546 OA 
HETATM    3  O   UNL     3     -11.426   5.890  73.225  1.00  0.00    -0.477 OA 
HETATM    4  H   UNL     2      -9.880  13.124  64.337  1.00  0.00     0.000 HD 
HETATM    5  C   UNL     2     -10.359  12.831  66.208  1.00  0.00    -0.258 C  
HETATM    6  C   UNL     3     -11.771   6.014  71.848  1.00  0.00    -0.226 C  
HETATM    7  H   UNL     3     -12.033   5.306  73.664  1.00  0.00     0.000 HD 
ENDROOT
BRANCH   5   8
HETATM    8  C   UNL     2     -10.153  13.579  67.542  1.00  0.00    -0.234 C  
HETATM    9  O   UNL     2      -9.771  14.917  67.244  1.00  0.00    -0.224 OA 
HETATM   10  H   UNL     2      -9.644  15.378  68.066  1.00  0.00     0.000 HD 
BRANCH   8  11
HETATM   11  C   UNL     2     -11.453  13.626  68.362  1.00  0.00    -0.311 C  
HETATM   12  H   UNL     2     -13.076  12.485  68.680  1.00  0.00     0.000 HD 
HETATM   13  O   UNL     2     -12.272  12.455  68.173  1.00  0.00    -0.314 OA 
BRANCH  11  14
HETATM   14  C   UNL     2     -11.391  13.954  69.874  1.00  0.00    -0.111 C  
HETATM   15  O   UNL     2     -12.026  12.928  70.620  1.00  0.00    -0.508 OA 
HETATM   16  H   UNL     2     -11.988  13.130  71.548  1.00  0.00     0.000 HD 
BRANCH  14  17
HETATM   17  C   UNL     2     -11.735  15.389  70.317  1.00  0.00    -0.327 C  
HETATM   18  H   UNL     2     -11.920  17.110  69.412  1.00  0.00     0.000 HD 
HETATM   19  O   UNL     2     -11.708  16.225  69.139  1.00  0.00    -0.281 OA 
BRANCH  17  20
HETATM   20  C   UNL     2     -13.037  15.555  71.100  1.00  0.00    -0.507 C  
HETATM   21  O   UNL     2     -14.097  14.749  70.540  1.00  0.00    -0.347 OA 
HETATM   22  C   UNL     2     -12.762  15.109  72.564  1.00  0.00    -0.356 C  
HETATM   23  H   UNL     2     -14.906  14.852  71.027  1.00  0.00     0.000 HD 
HETATM   24  O   UNL     2     -11.642  15.471  73.012  1.00  0.00    -0.439 OA 
HETATM   25  O   UNL     2     -13.699  14.431  73.064  1.00  0.00    -0.596 OA 
ENDBRANCH  17  20
ENDBRANCH  14  17
ENDBRANCH  11  14
ENDBRANCH   8  11
ENDBRANCH   5   8
BRANCH   6  26
HETATM   26  C   UNL     3     -10.789   6.958  71.139  1.00  0.00    -0.240 C  
HETATM   27  H   UNL     3      -9.706   6.840  69.559  1.00  0.00     0.000 HD 
HETATM   28  O   UNL     3     -10.313   6.256  69.998  1.00  0.00    -0.179 OA 
BRANCH  26  29
HETATM   29  C   UNL     3     -11.434   8.326  70.793  1.00  0.00    -0.252 C  
HETATM   30  O   UNL     3     -11.828   9.012  72.062  1.00  0.00    -0.358 OA 
HETATM   31  H   UNL     3     -12.223   9.850  71.850  1.00  0.00     0.000 HD 
BRANCH  29  32
HETATM   32  C   UNL     3     -10.463   9.342  70.155  1.00  0.00    -0.240 C  
HETATM   33  H   UNL     3     -10.392  11.307  70.036  1.00  0.00     0.000 HD 
HETATM   34  O   UNL     3     -10.990  10.682  70.429  1.00  0.00    -0.256 OA 
BRANCH  32  35
HETATM   35  C   UNL     3      -9.796   9.183  68.780  1.00  0.00    -0.167 C  
HETATM   36  H   UNL     3     -10.443   9.007  66.965  1.00  0.00     0.000 HD 
HETATM   37  O   UNL     3     -10.855   9.106  67.816  1.00  0.00    -0.217 OA 
BRANCH  35  38
HETATM   38  C   UNL     3      -8.746  10.223  68.403  1.00  0.00    -0.129 C  
HETATM   39  C   UNL     3      -7.449   9.533  67.904  1.00  0.00    -0.083 C  
HETATM   40  O   UNL     3      -8.418  11.056  69.532  1.00  0.00    -0.377 OA 
HETATM   41  O   UNL     3      -7.491   8.267  67.809  1.00  0.00    -0.091 OA 
HETATM   42  O   UNL     3      -6.445  10.298  67.880  1.00  0.00    -0.060 OA 
HETATM   43  H   UNL     3      -7.764  11.704  69.297  1.00  0.00     0.000 HD 
ENDBRANCH  35  38
ENDBRANCH  32  35
ENDBRANCH  29  32
ENDBRANCH  26  29
ENDBRANCH   6  26
TORSDOF 10
ENDMDL
MODEL      165
REMARK 921   NORMALIZED FREE ENERGY PREDICTED BY IDOCK:   -5.75 KCAL/MOL
REMARK 922        TOTAL FREE ENERGY PREDICTED BY IDOCK:  -11.61 KCAL/MOL
REMARK 923 INTER-LIGAND FREE ENERGY PREDICTED BY IDOCK:  -10.12 KCAL/MOL
REMARK 924 INTRA-LIGAND FREE ENERGY PREDICTED BY IDOCK:   -1.49 KCAL/MOL
REMARK 927      BINDING AFFINITY PREDICTED BY RF-SCORE:    0.00 PKD
ROOT
HETATM    1 CA   UNL     1      -7.691  12.298  68.665  1.00  0.00    -0.092 Ca 
HETATM    2  O   UNL     2      -7.982   6.769  70.169  1.00  0.00    -0.108 OA 
HETATM    3  O   UNL     3     -11.114  16.575  65.575  1.00  0.00    -0.127 OA 
HETATM    4  H   UNL     2      -7.396   6.367  69.537  1.00  0.00     0.000 HD 
HETATM    5  C   UNL     2      -8.077   8.164  69.887  1.00  0.00    -0.115 C  
HETATM    6  C   UNL     3     -10.041  15.657  65.384  1.00  0.00    -0.335 C  
HETATM    7  H   UNL     3     -10.859  17.442  65.283  1.00  0.00     0.000 HD 
ENDROOT
BRANCH   5   8
HETATM    8  C   UNL     2      -9.029   8.816  70.912  1.00  0.00    -0.201 C  
HETATM    9  O   UNL     2      -9.969   9.613  70.199  1.00  0.00    -0.230 OA 
HETATM   10  H   UNL     2     -10.555  10.014  70.830  1.00  0.00     0.000 HD 
BRANCH   8  11
HETATM   11  C   UNL     2      -9.809   7.754  71.704  1.00  0.00    -0.163 C  
HETATM   12  H   UNL     2      -9.478   6.431  73.181  1.00  0.00     0.000 HD 
HETATM   13  O   UNL     2      -8.996   7.088  72.691  1.00  0.00    -0.124 OA 
BRANCH  11  14
HETATM   14  C   UNL     2     -11.169   8.124  72.345  1.00  0.00    -0.386 C  
HETATM   15  O   UNL     2     -11.309   7.474  73.598  1.00  0.00    -0.561 OA 
HETATM   16  H   UNL     2     -12.144   7.701  73.992  1.00  0.00     0.000 HD 
BRANCH  14  17
HETATM   17  C   UNL     2     -12.423   8.091  71.451  1.00  0.00    -0.301 C  
HETATM   18  H   UNL     2     -13.654   6.701  70.843  1.00  0.00     0.000 HD 
HETATM   19  O   UNL     2     -12.880   6.721  71.395  1.00  0.00    -0.335 OA 
BRANCH  17  20
HETATM   20  C   UNL     2     -13.548   9.049  71.839  1.00  0.00    -0.431 C  
HETATM   21  O   UNL     2     -13.787   9.035  73.263  1.00  0.00    -1.159 OA 
HETATM   22  C   UNL     2     -13.120  10.477  71.397  1.00  0.00    -0.410 C  
HETATM   23  H   UNL     2     -14.487   9.631  73.505  1.00  0.00     0.000 HD 
HETATM   24  O   UNL     2     -12.538  10.519  70.280  1.00  0.00    -0.310 OA 
HETATM   25  O   UNL     2     -13.402  11.368  72.242  1.00  0.00    -0.410 OA 
ENDBRANCH  17  20
ENDBRANCH  14  17
ENDBRANCH  11  14
ENDBRANCH   8  11
ENDBRANCH   5   8
BRANCH   6  26
HETATM   26  C   UNL     3     -10.453  14.255  65.856  1.00  0.00    -0.307 C  
HETATM   27  H   UNL     3     -10.777  12.578  64.982  1.00  0.00     0.000 HD 
HETATM   28  O   UNL     3     -10.522  13.445  64.690  1.00  0.00    -0.385 OA 
BRANCH  26  29
HETATM   29  C   UNL     3      -9.493  13.692  66.937  1.00  0.00    -0.262 C  
HETATM   30  O   UNL     3      -8.302  14.591  67.045  1.00  0.00    -0.249 OA 
HETATM   31  H   UNL     3      -7.714  14.246  67.707  1.00  0.00     0.000 HD 
BRANCH  29  32
HETATM   32  C   UNL     3     -10.063  13.724  68.371  1.00  0.00    -0.241 C  
HETATM   33  H   UNL     3     -11.578  12.853  69.281  1.00  0.00     0.000 HD 
HETATM   34  O   UNL     3     -11.227  12.834  68.398  1.00  0.00    -0.243 OA 
BRANCH  32  35
HETATM   35  C   UNL     3     -10.198  14.984  69.241  1.00  0.00    -0.241 C  
HETATM   36  H   UNL     3      -9.275  16.681  69.331  1.00  0.00     0.000 HD 
HETATM   37  O   UNL     3      -9.192  15.902  68.793  1.00  0.00    -0.194 OA 
BRANCH  35  38
HETATM   38  C   UNL     3     -11.579  15.627  69.306  1.00  0.00    -0.366 C  
HETATM   39  C   UNL     3     -12.177  15.494  70.731  1.00  0.00    -0.403 C  
HETATM   40  O   UNL     3     -12.482  15.005  68.369  1.00  0.00    -0.529 OA 
HETATM   41  O   UNL     3     -11.420  14.969  71.607  1.00  0.00    -0.367 OA 
HETATM   42  O   UNL     3     -13.420  15.709  70.782  1.00  0.00    -0.536 OA 
HETATM   43  H   UNL     3     -13.343  15.406  68.410  1.00  0.00     0.000 HD 
ENDBRANCH  35  38
ENDBRANCH  32  35
ENDBRANCH  29  32
ENDBRANCH  26  29
ENDBRANCH   6  26
TORSDOF 10
ENDMDL
MODEL      166
REMARK 921   NORMALIZED FREE ENERGY PREDICTED BY IDOCK:   -5.74 KCAL/MOL
REMARK 922        TOTAL FREE ENERGY PREDICTED BY IDOCK:  -11.60 KCAL/MOL
REMARK 923 INTER-LIGAND FREE ENERGY PREDICTED BY IDOCK:   -9.64 KCAL/MOL
REMARK 924 INTRA-LIGAND FREE ENERGY PREDICTED BY IDOCK:   -1.96 KCAL/MOL
REMARK 927      BINDING AFFINITY PREDICTED BY RF-SCORE:    0.00 PKD
ROOT
HETATM    1 CA   UNL     1      -7.714  13.488  69.901  1.00  0.00    -0.325 Ca 
HETATM    2  O   UNL     2     -10.554   8.685  68.565  1.00  0.00    -0.317 OA 
HETATM    3  O   UNL     3      -6.253  19.028  67.308  1.00  0.00    -0.176 OA 
HETATM    4  H   UNL     2      -9.841   8.087  68.374  1.00  0.00     0.000 HD 
HETATM    5  C   UNL     2     -10.012   9.972  68.857  1.00  0.00    -0.192 C  
HETATM    6  C   UNL     3      -5.722  17.723  67.521  1.00  0.00    -0.140 C  
HETATM    7  H   UNL     3      -5.640  19.686  67.615  1.00  0.00     0.000 HD 
ENDROOT
BRANCH   5   8
HETATM    8  C   UNL     2     -11.171  10.942  69.169  1.00  0.00    -0.256 C  
HETATM    9  O   UNL     2     -12.197  10.729  68.205  1.00  0.00    -0.815 OA 
HETATM   10  H   UNL     2     -12.911  11.327  68.397  1.00  0.00     0.000 HD 
BRANCH   8  11
HETATM   11  C   UNL     2     -11.763  10.677  70.562  1.00  0.00    -0.356 C  
HETATM   12  H   UNL     2     -12.809  11.661  71.967  1.00  0.00     0.000 HD 
HETATM   13  O   UNL     2     -12.443  11.825  71.106  1.00  0.00    -0.358 OA 
BRANCH  11  14
HETATM   14  C   UNL     2     -12.641   9.422  70.794  1.00  0.00    -0.047 C  
HETATM   15  O   UNL     2     -14.010   9.747  70.621  1.00  0.00    -0.406 OA 
HETATM   16  H   UNL     2     -14.548   8.977  70.763  1.00  0.00     0.000 HD 
BRANCH  14  17
HETATM   17  C   UNL     2     -12.330   8.539  72.017  1.00  0.00    -0.365 C  
HETATM   18  H   UNL     2     -13.165   8.243  73.758  1.00  0.00     0.000 HD 
HETATM   19  O   UNL     2     -13.356   8.788  73.003  1.00  0.00    -0.284 OA 
BRANCH  17  20
HETATM   20  C   UNL     2     -12.161   7.045  71.739  1.00  0.00    -0.351 C  
HETATM   21  O   UNL     2     -12.137   6.770  70.321  1.00  0.00    -0.600 OA 
HETATM   22  C   UNL     2     -10.816   6.600  72.378  1.00  0.00    -0.235 C  
HETATM   23  H   UNL     2     -12.032   5.842  70.149  1.00  0.00     0.000 HD 
HETATM   24  O   UNL     2     -10.581   7.119  73.502  1.00  0.00    -0.353 OA 
HETATM   25  O   UNL     2     -10.157   5.805  71.656  1.00  0.00    -0.184 OA 
ENDBRANCH  17  20
ENDBRANCH  14  17
ENDBRANCH  11  14
ENDBRANCH   8  11
ENDBRANCH   5   8
BRANCH   6  26
HETATM   26  C   UNL     3      -6.713  16.661  67.024  1.00  0.00    -0.207 C  
HETATM   27  H   UNL     3      -6.574  14.810  66.534  1.00  0.00     0.000 HD 
HETATM   28  O   UNL     3      -5.962  15.468  66.841  1.00  0.00    -0.180 OA 
BRANCH  26  29
HETATM   29  C   UNL     3      -7.919  16.485  67.983  1.00  0.00    -0.158 C  
HETATM   30  O   UNL     3      -8.063  17.721  68.814  1.00  0.00    -0.282 OA 
HETATM   31  H   UNL     3      -8.802  17.613  69.401  1.00  0.00     0.000 HD 
BRANCH  29  32
HETATM   32  C   UNL     3      -9.288  16.402  67.274  1.00  0.00    -0.221 C  
HETATM   33  H   UNL     3     -10.432  14.930  66.636  1.00  0.00     0.000 HD 
HETATM   34  O   UNL     3      -9.589  14.982  67.072  1.00  0.00    -0.215 OA 
BRANCH  32  35
HETATM   35  C   UNL     3      -9.750  17.324  66.135  1.00  0.00    -0.224 C  
HETATM   36  H   UNL     3     -10.798  17.082  64.527  1.00  0.00     0.000 HD 
HETATM   37  O   UNL     3     -10.511  16.512  65.232  1.00  0.00    -0.590 OA 
BRANCH  35  38
HETATM   38  C   UNL     3     -10.494  18.592  66.540  1.00  0.00    -0.398 C  
HETATM   39  C   UNL     3      -9.625  19.847  66.266  1.00  0.00    -0.425 C  
HETATM   40  O   UNL     3     -10.834  18.565  67.941  1.00  0.00    -0.350 OA 
HETATM   41  O   UNL     3      -8.510  19.639  65.692  1.00  0.00    -0.369 OA 
HETATM   42  O   UNL     3     -10.031  20.885  66.859  1.00  0.00    -0.264 OA 
HETATM   43  H   UNL     3     -11.298  19.355  68.193  1.00  0.00     0.000 HD 
ENDBRANCH  35  38
ENDBRANCH  32  35
ENDBRANCH  29  32
ENDBRANCH  26  29
ENDBRANCH   6  26
TORSDOF 10
ENDMDL
MODEL      167
REMARK 921   NORMALIZED FREE ENERGY PREDICTED BY IDOCK:   -5.74 KCAL/MOL
REMARK 922        TOTAL FREE ENERGY PREDICTED BY IDOCK:  -11.60 KCAL/MOL
REMARK 923 INTER-LIGAND FREE ENERGY PREDICTED BY IDOCK:   -8.62 KCAL/MOL
REMARK 924 INTRA-LIGAND FREE ENERGY PREDICTED BY IDOCK:   -2.98 KCAL/MOL
REMARK 927      BINDING AFFINITY PREDICTED BY RF-SCORE:    0.00 PKD
ROOT
HETATM    1 CA   UNL     1     -12.403   9.875  68.099  1.00  0.00    -0.433 Ca 
HETATM    2  O   UNL     2     -11.081  12.097  62.976  1.00  0.00    -0.680 OA 
HETATM    3  O   UNL     3     -10.071   5.761  72.245  1.00  0.00    -0.179 OA 
HETATM    4  H   UNL     2     -11.667  11.617  62.402  1.00  0.00     0.000 HD 
HETATM    5  C   UNL     2     -11.238  11.609  64.308  1.00  0.00    -0.319 C  
HETATM    6  C   UNL     3     -11.003   5.855  71.171  1.00  0.00    -0.260 C  
HETATM    7  H   UNL     3     -10.490   5.387  73.011  1.00  0.00     0.000 HD 
ENDROOT
BRANCH   5   8
HETATM    8  C   UNL     2     -10.287  12.389  65.240  1.00  0.00    -0.282 C  
HETATM    9  O   UNL     2      -9.854  13.558  64.553  1.00  0.00    -0.621 OA 
HETATM   10  H   UNL     2      -9.268  14.038  65.127  1.00  0.00     0.000 HD 
BRANCH   8  11
HETATM   11  C   UNL     2     -11.003  12.830  66.527  1.00  0.00    -0.262 C  
HETATM   12  H   UNL     2     -12.270  12.063  67.884  1.00  0.00     0.000 HD 
HETATM   13  O   UNL     2     -11.827  11.790  67.089  1.00  0.00    -0.599 OA 
BRANCH  11  14
HETATM   14  C   UNL     2     -10.191  13.495  67.665  1.00  0.00    -0.239 C  
HETATM   15  O   UNL     2     -10.143  12.636  68.793  1.00  0.00    -0.386 OA 
HETATM   16  H   UNL     2      -9.644  13.043  69.492  1.00  0.00     0.000 HD 
BRANCH  14  17
HETATM   17  C   UNL     2     -10.472  14.975  67.985  1.00  0.00    -0.242 C  
HETATM   18  H   UNL     2     -10.602  16.618  66.937  1.00  0.00     0.000 HD 
HETATM   19  O   UNL     2     -10.428  15.704  66.739  1.00  0.00    -0.286 OA 
BRANCH  17  20
HETATM   20  C   UNL     2     -11.757  15.259  68.763  1.00  0.00    -0.353 C  
HETATM   21  O   UNL     2     -12.415  14.036  69.163  1.00  0.00    -0.483 OA 
HETATM   22  C   UNL     2     -11.368  16.078  70.026  1.00  0.00    -0.352 C  
HETATM   23  H   UNL     2     -13.213  14.213  69.646  1.00  0.00     0.000 HD 
HETATM   24  O   UNL     2     -10.483  16.951  69.823  1.00  0.00    -0.225 OA 
HETATM   25  O   UNL     2     -11.986  15.720  71.064  1.00  0.00    -0.354 OA 
ENDBRANCH  17  20
ENDBRANCH  14  17
ENDBRANCH  11  14
ENDBRANCH   8  11
ENDBRANCH   5   8
BRANCH   6  26
HETATM   26  C   UNL     3     -10.326   6.459  69.933  1.00  0.00    -0.196 C  
HETATM   27  H   UNL     3     -10.220   5.974  68.079  1.00  0.00     0.000 HD 
HETATM   28  O   UNL     3     -10.639   5.599  68.845  1.00  0.00    -0.239 OA 
BRANCH  26  29
HETATM   29  C   UNL     3     -10.750   7.932  69.691  1.00  0.00    -0.218 C  
HETATM   30  O   UNL     3     -11.322   8.487  70.957  1.00  0.00    -0.259 OA 
HETATM   31  H   UNL     3     -11.582   9.389  70.808  1.00  0.00     0.000 HD 
BRANCH  29  32
HETATM   32  C   UNL     3      -9.574   8.893  69.411  1.00  0.00    -0.163 C  
HETATM   33  H   UNL     3      -9.077  10.695  70.031  1.00  0.00     0.000 HD 
HETATM   34  O   UNL     3      -9.801  10.105  70.203  1.00  0.00    -0.207 OA 
BRANCH  32  35
HETATM   35  C   UNL     3      -8.942   9.137  68.031  1.00  0.00    -0.128 C  
HETATM   36  H   UNL     3      -8.140  10.661  67.151  1.00  0.00     0.000 HD 
HETATM   37  O   UNL     3      -8.531  10.510  68.004  1.00  0.00    -0.117 OA 
BRANCH  35  38
HETATM   38  C   UNL     3      -7.823   8.190  67.613  1.00  0.00    -0.114 C  
HETATM   39  C   UNL     3      -8.353   7.121  66.622  1.00  0.00    -0.114 C  
HETATM   40  O   UNL     3      -7.263   7.516  68.758  1.00  0.00    -0.078 OA 
HETATM   41  O   UNL     3      -9.565   7.247  66.260  1.00  0.00    -0.140 OA 
HETATM   42  O   UNL     3      -7.583   6.130  66.483  1.00  0.00    -0.091 OA 
HETATM   43  H   UNL     3      -6.565   6.926  68.497  1.00  0.00     0.000 HD 
ENDBRANCH  35  38
ENDBRANCH  32  35
ENDBRANCH  29  32
ENDBRANCH  26  29
ENDBRANCH   6  26
TORSDOF 10
ENDMDL
MODEL      168
REMARK 921   NORMALIZED FREE ENERGY PREDICTED BY IDOCK:   -5.74 KCAL/MOL
REMARK 922        TOTAL FREE ENERGY PREDICTED BY IDOCK:  -11.59 KCAL/MOL
REMARK 923 INTER-LIGAND FREE ENERGY PREDICTED BY IDOCK:   -9.55 KCAL/MOL
REMARK 924 INTRA-LIGAND FREE ENERGY PREDICTED BY IDOCK:   -2.04 KCAL/MOL
REMARK 927      BINDING AFFINITY PREDICTED BY RF-SCORE:    0.00 PKD
ROOT
HETATM    1 CA   UNL     1     -11.631   8.429  67.849  1.00  0.00    -0.455 Ca 
HETATM    2  O   UNL     2      -9.626  12.023  63.851  1.00  0.00    -0.510 OA 
HETATM    3  O   UNL     3      -9.443   4.381  72.136  1.00  0.00    -0.126 OA 
HETATM    4  H   UNL     2      -9.784  11.531  63.054  1.00  0.00     0.000 HD 
HETATM    5  C   UNL     2     -10.015  11.228  64.970  1.00  0.00    -0.274 C  
HETATM    6  C   UNL     3      -9.950   4.429  70.805  1.00  0.00    -0.177 C  
HETATM    7  H   UNL     3      -9.922   3.739  72.646  1.00  0.00     0.000 HD 
ENDROOT
BRANCH   5   8
HETATM    8  C   UNL     2      -9.758  12.027  66.264  1.00  0.00    -0.235 C  
HETATM    9  O   UNL     2      -8.394  12.435  66.269  1.00  0.00    -0.395 OA 
HETATM   10  H   UNL     2      -8.235  12.927  67.066  1.00  0.00     0.000 HD 
BRANCH   8  11
HETATM   11  C   UNL     2     -10.633  13.290  66.324  1.00  0.00    -0.289 C  
HETATM   12  H   UNL     2     -11.804  14.370  65.100  1.00  0.00     0.000 HD 
HETATM   13  O   UNL     2     -11.264  13.590  65.064  1.00  0.00    -0.306 OA 
BRANCH  11  14
HETATM   14  C   UNL     2     -11.679  13.442  67.455  1.00  0.00    -0.366 C  
HETATM   15  O   UNL     2     -12.706  14.333  67.051  1.00  0.00    -0.483 OA 
HETATM   16  H   UNL     2     -13.348  14.426  67.745  1.00  0.00     0.000 HD 
BRANCH  14  17
HETATM   17  C   UNL     2     -11.165  13.651  68.892  1.00  0.00    -0.270 C  
HETATM   18  H   UNL     2      -9.666  14.608  69.701  1.00  0.00     0.000 HD 
HETATM   19  O   UNL     2      -9.983  14.479  68.815  1.00  0.00    -0.230 OA 
BRANCH  17  20
HETATM   20  C   UNL     2     -12.180  14.204  69.893  1.00  0.00    -0.359 C  
HETATM   21  O   UNL     2     -12.010  13.612  71.200  1.00  0.00    -0.448 OA 
HETATM   22  C   UNL     2     -11.957  15.740  69.984  1.00  0.00    -0.337 C  
HETATM   23  H   UNL     2     -12.641  13.956  71.821  1.00  0.00     0.000 HD 
HETATM   24  O   UNL     2     -11.713  16.293  68.879  1.00  0.00    -0.313 OA 
HETATM   25  O   UNL     2     -12.031  16.187  71.160  1.00  0.00    -0.412 OA 
ENDBRANCH  17  20
ENDBRANCH  14  17
ENDBRANCH  11  14
ENDBRANCH   8  11
ENDBRANCH   5   8
BRANCH   6  26
HETATM   26  C   UNL     3      -9.175   5.467  69.980  1.00  0.00    -0.140 C  
HETATM   27  H   UNL     3      -8.805   5.704  68.112  1.00  0.00     0.000 HD 
HETATM   28  O   UNL     3      -9.284   5.061  68.622  1.00  0.00    -0.112 OA 
BRANCH  26  29
HETATM   29  C   UNL     3      -9.680   6.913  70.231  1.00  0.00    -0.172 C  
HETATM   30  O   UNL     3      -9.776   7.628  68.921  1.00  0.00    -0.153 OA 
HETATM   31  H   UNL     3     -10.085   8.513  69.075  1.00  0.00     0.000 HD 
BRANCH  29  32
HETATM   32  C   UNL     3     -11.128   6.996  70.760  1.00  0.00    -0.273 C  
HETATM   33  H   UNL     3     -12.915   6.860  69.941  1.00  0.00     0.000 HD 
HETATM   34  O   UNL     3     -12.024   6.809  69.615  1.00  0.00    -0.128 OA 
BRANCH  32  35
HETATM   35  C   UNL     3     -11.629   8.002  71.809  1.00  0.00    -0.285 C  
HETATM   36  H   UNL     3     -11.094   8.474  73.606  1.00  0.00     0.000 HD 
HETATM   37  O   UNL     3     -10.785   7.852  72.958  1.00  0.00    -0.365 OA 
BRANCH  35  38
HETATM   38  C   UNL     3     -11.747   9.455  71.363  1.00  0.00    -0.378 C  
HETATM   39  C   UNL     3     -13.109  10.053  71.803  1.00  0.00    -0.457 C  
HETATM   40  O   UNL     3     -11.639   9.565  69.930  1.00  0.00    -0.427 OA 
HETATM   41  O   UNL     3     -13.847   9.298  72.511  1.00  0.00    -0.468 OA 
HETATM   42  O   UNL     3     -13.410  11.124  71.207  1.00  0.00    -0.206 OA 
HETATM   43  H   UNL     3     -11.712  10.471  69.652  1.00  0.00     0.000 HD 
ENDBRANCH  35  38
ENDBRANCH  32  35
ENDBRANCH  29  32
ENDBRANCH  26  29
ENDBRANCH   6  26
TORSDOF 10
ENDMDL
MODEL      169
REMARK 921   NORMALIZED FREE ENERGY PREDICTED BY IDOCK:   -5.73 KCAL/MOL
REMARK 922        TOTAL FREE ENERGY PREDICTED BY IDOCK:  -11.58 KCAL/MOL
REMARK 923 INTER-LIGAND FREE ENERGY PREDICTED BY IDOCK:   -9.29 KCAL/MOL
REMARK 924 INTRA-LIGAND FREE ENERGY PREDICTED BY IDOCK:   -2.29 KCAL/MOL
REMARK 927      BINDING AFFINITY PREDICTED BY RF-SCORE:    0.00 PKD
ROOT
HETATM    1 CA   UNL     1     -10.425  10.136  68.281  1.00  0.00    -0.160 Ca 
HETATM    2  O   UNL     2     -13.843   7.785  72.244  1.00  0.00    -0.527 OA 
HETATM    3  O   UNL     3      -7.455  15.569  67.177  1.00  0.00    -0.206 OA 
HETATM    4  H   UNL     2     -14.692   7.837  71.820  1.00  0.00     0.000 HD 
HETATM    5  C   UNL     2     -12.869   8.400  71.403  1.00  0.00    -0.245 C  
HETATM    6  C   UNL     3      -8.654  14.869  66.858  1.00  0.00    -0.239 C  
HETATM    7  H   UNL     3      -7.023  15.860  66.383  1.00  0.00     0.000 HD 
ENDROOT
BRANCH   5   8
HETATM    8  C   UNL     2     -11.490   8.316  72.091  1.00  0.00    -0.361 C  
HETATM    9  O   UNL     2     -11.657   7.641  73.333  1.00  0.00    -0.641 OA 
HETATM   10  H   UNL     2     -10.808   7.589  73.757  1.00  0.00     0.000 HD 
BRANCH   8  11
HETATM   11  C   UNL     2     -10.491   7.512  71.243  1.00  0.00    -0.207 C  
HETATM   12  H   UNL     2      -8.807   6.448  71.505  1.00  0.00     0.000 HD 
HETATM   13  O   UNL     2      -9.424   6.944  72.029  1.00  0.00    -0.142 OA 
BRANCH  11  14
HETATM   14  C   UNL     2     -11.014   6.436  70.260  1.00  0.00    -0.318 C  
HETATM   15  O   UNL     2     -10.845   5.143  70.819  1.00  0.00    -0.132 OA 
HETATM   16  H   UNL     2     -11.166   4.483  70.216  1.00  0.00     0.000 HD 
BRANCH  14  17
HETATM   17  C   UNL     2     -10.620   6.560  68.776  1.00  0.00    -0.243 C  
HETATM   18  H   UNL     2     -10.428   8.038  67.513  1.00  0.00     0.000 HD 
HETATM   19  O   UNL     2     -10.671   7.962  68.429  1.00  0.00    -0.141 OA 
BRANCH  17  20
HETATM   20  C   UNL     2      -9.286   5.927  68.382  1.00  0.00    -0.120 C  
HETATM   21  O   UNL     2      -8.518   5.545  69.544  1.00  0.00    -0.103 OA 
HETATM   22  C   UNL     2      -9.601   4.665  67.529  1.00  0.00    -0.163 C  
HETATM   23  H   UNL     2      -7.689   5.152  69.299  1.00  0.00     0.000 HD 
HETATM   24  O   UNL     2     -10.555   4.814  66.720  1.00  0.00    -0.193 OA 
HETATM   25  O   UNL     2      -8.864   3.680  67.802  1.00  0.00    -0.101 OA 
ENDBRANCH  17  20
ENDBRANCH  14  17
ENDBRANCH  11  14
ENDBRANCH   8  11
ENDBRANCH   5   8
BRANCH   6  26
HETATM   26  C   UNL     3      -9.352  14.399  68.142  1.00  0.00    -0.203 C  
HETATM   27  H   UNL     3      -9.176  14.822  70.006  1.00  0.00     0.000 HD 
HETATM   28  O   UNL     3      -8.744  15.112  69.211  1.00  0.00    -0.219 OA 
BRANCH  26  29
HETATM   29  C   UNL     3     -10.891  14.585  68.077  1.00  0.00    -0.244 C  
HETATM   30  O   UNL     3     -11.220  15.536  66.970  1.00  0.00    -0.285 OA 
HETATM   31  H   UNL     3     -12.162  15.650  66.931  1.00  0.00     0.000 HD 
BRANCH  29  32
HETATM   32  C   UNL     3     -11.667  13.316  67.664  1.00  0.00    -0.366 C  
HETATM   33  H   UNL     3     -12.193  11.653  68.580  1.00  0.00     0.000 HD 
HETATM   34  O   UNL     3     -11.716  12.434  68.834  1.00  0.00    -0.288 OA 
BRANCH  32  35
HETATM   35  C   UNL     3     -11.520  12.589  66.319  1.00  0.00    -0.370 C  
HETATM   36  H   UNL     3     -11.341  10.739  65.783  1.00  0.00     0.000 HD 
HETATM   37  O   UNL     3     -11.432  11.189  66.615  1.00  0.00    -0.338 OA 
BRANCH  35  38
HETATM   38  C   UNL     3     -12.573  12.891  65.259  1.00  0.00    -0.439 C  
HETATM   39  C   UNL     3     -11.917  13.033  63.860  1.00  0.00    -0.485 C  
HETATM   40  O   UNL     3     -13.275  14.112  65.563  1.00  0.00    -0.688 OA 
HETATM   41  O   UNL     3     -10.668  12.800  63.804  1.00  0.00    -0.413 OA 
HETATM   42  O   UNL     3     -12.660  13.588  63.005  1.00  0.00    -0.716 OA 
HETATM   43  H   UNL     3     -13.932  14.301  64.902  1.00  0.00     0.000 HD 
ENDBRANCH  35  38
ENDBRANCH  32  35
ENDBRANCH  29  32
ENDBRANCH  26  29
ENDBRANCH   6  26
TORSDOF 10
ENDMDL
MODEL      170
REMARK 921   NORMALIZED FREE ENERGY PREDICTED BY IDOCK:   -5.73 KCAL/MOL
REMARK 922        TOTAL FREE ENERGY PREDICTED BY IDOCK:  -11.58 KCAL/MOL
REMARK 923 INTER-LIGAND FREE ENERGY PREDICTED BY IDOCK:   -9.14 KCAL/MOL
REMARK 924 INTRA-LIGAND FREE ENERGY PREDICTED BY IDOCK:   -2.43 KCAL/MOL
REMARK 927      BINDING AFFINITY PREDICTED BY RF-SCORE:    0.00 PKD
ROOT
HETATM    1 CA   UNL     1     -12.783  11.310  68.477  1.00  0.00    -0.256 Ca 
HETATM    2  O   UNL     2     -10.248  13.259  63.712  1.00  0.00    -0.681 OA 
HETATM    3  O   UNL     3     -11.691   7.193  73.104  1.00  0.00    -0.531 OA 
HETATM    4  H   UNL     2     -10.733  12.800  63.036  1.00  0.00     0.000 HD 
HETATM    5  C   UNL     2     -10.718  12.829  64.989  1.00  0.00    -0.296 C  
HETATM    6  C   UNL     3     -12.365   7.313  71.854  1.00  0.00    -0.312 C  
HETATM    7  H   UNL     3     -12.289   6.875  73.770  1.00  0.00     0.000 HD 
ENDROOT
BRANCH   5   8
HETATM    8  C   UNL     2      -9.931  13.574  66.088  1.00  0.00    -0.304 C  
HETATM    9  O   UNL     2      -9.358  14.741  65.507  1.00  0.00    -0.483 OA 
HETATM   10  H   UNL     2      -8.873  15.199  66.184  1.00  0.00     0.000 HD 
BRANCH   8  11
HETATM   11  C   UNL     2     -10.854  14.016  67.234  1.00  0.00    -0.284 C  
HETATM   12  H   UNL     2     -12.594  13.455  68.069  1.00  0.00     0.000 HD 
HETATM   13  O   UNL     2     -12.023  13.182  67.360  1.00  0.00    -0.365 OA 
BRANCH  11  14
HETATM   14  C   UNL     2     -10.261  14.260  68.644  1.00  0.00    -0.246 C  
HETATM   15  O   UNL     2      -9.504  13.133  69.054  1.00  0.00    -0.378 OA 
HETATM   16  H   UNL     2      -9.139  13.283  69.919  1.00  0.00     0.000 HD 
BRANCH  14  17
HETATM   17  C   UNL     2     -11.185  14.853  69.724  1.00  0.00    -0.280 C  
HETATM   18  H   UNL     2     -12.283  16.461  69.877  1.00  0.00     0.000 HD 
HETATM   19  O   UNL     2     -11.713  16.096  69.210  1.00  0.00    -0.313 OA 
BRANCH  17  20
HETATM   20  C   UNL     2     -12.295  13.933  70.233  1.00  0.00    -0.345 C  
HETATM   21  O   UNL     2     -11.852  12.560  70.307  1.00  0.00    -0.489 OA 
HETATM   22  C   UNL     2     -12.697  14.427  71.652  1.00  0.00    -0.344 C  
HETATM   23  H   UNL     2     -12.542  11.989  70.623  1.00  0.00     0.000 HD 
HETATM   24  O   UNL     2     -12.738  15.681  71.770  1.00  0.00    -0.394 OA 
HETATM   25  O   UNL     2     -12.896  13.490  72.470  1.00  0.00    -0.264 OA 
ENDBRANCH  17  20
ENDBRANCH  14  17
ENDBRANCH  11  14
ENDBRANCH   8  11
ENDBRANCH   5   8
BRANCH   6  26
HETATM   26  C   UNL     3     -11.399   7.827  70.778  1.00  0.00    -0.279 C  
HETATM   27  H   UNL     3      -9.883   9.004  70.776  1.00  0.00     0.000 HD 
HETATM   28  O   UNL     3     -10.481   8.686  71.442  1.00  0.00    -0.217 OA 
BRANCH  26  29
HETATM   29  C   UNL     3     -10.708   6.671  70.007  1.00  0.00    -0.240 C  
HETATM   30  O   UNL     3     -11.519   6.344  68.793  1.00  0.00    -0.572 OA 
HETATM   31  H   UNL     3     -11.096   5.637  68.321  1.00  0.00     0.000 HD 
BRANCH  29  32
HETATM   32  C   UNL     3      -9.338   7.043  69.399  1.00  0.00    -0.146 C  
HETATM   33  H   UNL     3      -7.467   6.602  69.826  1.00  0.00     0.000 HD 
HETATM   34  O   UNL     3      -8.310   6.373  70.200  1.00  0.00    -0.129 OA 
BRANCH  32  35
HETATM   35  C   UNL     3      -8.948   8.439  68.889  1.00  0.00    -0.146 C  
HETATM   36  H   UNL     3      -7.283   9.407  68.714  1.00  0.00     0.000 HD 
HETATM   37  O   UNL     3      -7.525   8.544  69.029  1.00  0.00    -0.085 OA 
BRANCH  35  38
HETATM   38  C   UNL     3      -9.421   8.814  67.490  1.00  0.00    -0.141 C  
HETATM   39  C   UNL     3     -10.419  10.000  67.550  1.00  0.00    -0.254 C  
HETATM   40  O   UNL     3     -10.070   7.698  66.849  1.00  0.00    -0.232 OA 
HETATM   41  O   UNL     3     -10.614  10.508  68.698  1.00  0.00    -0.177 OA 
HETATM   42  O   UNL     3     -11.088  10.155  66.490  1.00  0.00     0.044 OA 
HETATM   43  H   UNL     3     -10.365   7.932  65.976  1.00  0.00     0.000 HD 
ENDBRANCH  35  38
ENDBRANCH  32  35
ENDBRANCH  29  32
ENDBRANCH  26  29
ENDBRANCH   6  26
TORSDOF 10
ENDMDL
MODEL      171
REMARK 921   NORMALIZED FREE ENERGY PREDICTED BY IDOCK:   -5.72 KCAL/MOL
REMARK 922        TOTAL FREE ENERGY PREDICTED BY IDOCK:  -11.56 KCAL/MOL
REMARK 923 INTER-LIGAND FREE ENERGY PREDICTED BY IDOCK:   -8.62 KCAL/MOL
REMARK 924 INTRA-LIGAND FREE ENERGY PREDICTED BY IDOCK:   -2.94 KCAL/MOL
REMARK 927      BINDING AFFINITY PREDICTED BY RF-SCORE:    0.00 PKD
ROOT
HETATM    1 CA   UNL     1     -12.973  10.221  69.555  1.00  0.00    -0.538 Ca 
HETATM    2  O   UNL     2     -11.163  14.516  66.209  1.00  0.00    -0.330 OA 
HETATM    3  O   UNL     3     -10.772   6.489  74.114  1.00  0.00    -0.443 OA 
HETATM    4  H   UNL     2     -11.017  14.068  65.383  1.00  0.00     0.000 HD 
HETATM    5  C   UNL     2     -11.561  13.560  67.189  1.00  0.00    -0.357 C  
HETATM    6  C   UNL     3     -10.981   6.523  72.704  1.00  0.00    -0.255 C  
HETATM    7  H   UNL     3     -11.166   5.709  74.485  1.00  0.00     0.000 HD 
ENDROOT
BRANCH   5   8
HETATM    8  C   UNL     2     -11.797  14.287  68.530  1.00  0.00    -0.347 C  
HETATM    9  O   UNL     2     -12.358  13.353  69.446  1.00  0.00    -0.236 OA 
HETATM   10  H   UNL     2     -12.504  13.801  70.272  1.00  0.00     0.000 HD 
BRANCH   8  11
HETATM   11  C   UNL     2     -10.477  14.804  69.125  1.00  0.00    -0.239 C  
HETATM   12  H   UNL     2      -8.505  14.653  68.773  1.00  0.00     0.000 HD 
HETATM   13  O   UNL     2      -9.321  14.333  68.405  1.00  0.00    -0.199 OA 
BRANCH  11  14
HETATM   14  C   UNL     2     -10.307  16.317  69.408  1.00  0.00    -0.278 C  
HETATM   15  O   UNL     2     -11.314  16.760  70.303  1.00  0.00    -0.437 OA 
HETATM   16  H   UNL     2     -11.210  17.688  70.477  1.00  0.00     0.000 HD 
BRANCH  14  17
HETATM   17  C   UNL     2     -10.041  17.251  68.212  1.00  0.00    -0.321 C  
HETATM   18  H   UNL     2     -10.620  19.045  67.702  1.00  0.00     0.000 HD 
HETATM   19  O   UNL     2     -10.784  18.469  68.440  1.00  0.00    -0.199 OA 
BRANCH  17  20
HETATM   20  C   UNL     2      -8.573  17.532  67.896  1.00  0.00    -0.239 C  
HETATM   21  O   UNL     2      -7.704  17.043  68.941  1.00  0.00    -0.244 OA 
HETATM   22  C   UNL     2      -8.236  16.812  66.560  1.00  0.00    -0.290 C  
HETATM   23  H   UNL     2      -6.791  17.218  68.745  1.00  0.00     0.000 HD 
HETATM   24  O   UNL     2      -9.148  16.878  65.694  1.00  0.00    -0.499 OA 
HETATM   25  O   UNL     2      -7.107  16.253  66.564  1.00  0.00    -0.168 OA 
ENDBRANCH  17  20
ENDBRANCH  14  17
ENDBRANCH  11  14
ENDBRANCH   8  11
ENDBRANCH   5   8
BRANCH   6  26
HETATM   26  C   UNL     3     -10.344   7.783  72.104  1.00  0.00    -0.224 C  
HETATM   27  H   UNL     3      -8.571   8.518  72.075  1.00  0.00     0.000 HD 
HETATM   28  O   UNL     3      -8.965   7.738  72.447  1.00  0.00    -0.129 OA 
BRANCH  26  29
HETATM   29  C   UNL     3     -10.592   7.897  70.576  1.00  0.00    -0.223 C  
HETATM   30  O   UNL     3     -12.014   8.300  70.343  1.00  0.00    -0.480 OA 
HETATM   31  H   UNL     3     -12.165   8.370  69.408  1.00  0.00     0.000 HD 
BRANCH  29  32
HETATM   32  C   UNL     3      -9.808   9.036  69.889  1.00  0.00    -0.183 C  
HETATM   33  H   UNL     3      -9.995  10.996  69.808  1.00  0.00     0.000 HD 
HETATM   34  O   UNL     3     -10.478  10.295  70.230  1.00  0.00    -0.265 OA 
BRANCH  32  35
HETATM   35  C   UNL     3      -9.234   8.980  68.465  1.00  0.00    -0.136 C  
HETATM   36  H   UNL     3      -8.064   7.766  67.517  1.00  0.00     0.000 HD 
HETATM   37  O   UNL     3      -8.420   7.802  68.397  1.00  0.00    -0.124 OA 
BRANCH  35  38
HETATM   38  C   UNL     3     -10.236   9.057  67.319  1.00  0.00    -0.256 C  
HETATM   39  C   UNL     3      -9.676   9.926  66.162  1.00  0.00    -0.236 C  
HETATM   40  O   UNL     3     -11.482   9.630  67.762  1.00  0.00    -0.458 OA 
HETATM   41  O   UNL     3      -8.486  10.348  66.306  1.00  0.00    -0.135 OA 
HETATM   42  O   UNL     3     -10.554  10.296  65.334  1.00  0.00    -0.152 OA 
HETATM   43  H   UNL     3     -12.107   9.679  67.047  1.00  0.00     0.000 HD 
ENDBRANCH  35  38
ENDBRANCH  32  35
ENDBRANCH  29  32
ENDBRANCH  26  29
ENDBRANCH   6  26
TORSDOF 10
ENDMDL
MODEL      172
REMARK 921   NORMALIZED FREE ENERGY PREDICTED BY IDOCK:   -5.70 KCAL/MOL
REMARK 922        TOTAL FREE ENERGY PREDICTED BY IDOCK:  -11.53 KCAL/MOL
REMARK 923 INTER-LIGAND FREE ENERGY PREDICTED BY IDOCK:   -8.70 KCAL/MOL
REMARK 924 INTRA-LIGAND FREE ENERGY PREDICTED BY IDOCK:   -2.82 KCAL/MOL
REMARK 927      BINDING AFFINITY PREDICTED BY RF-SCORE:    0.00 PKD
ROOT
HETATM    1 CA   UNL     1     -11.803   9.175  67.938  1.00  0.00    -0.462 Ca 
HETATM    2  O   UNL     2     -11.387   7.604  73.441  1.00  0.00    -0.622 OA 
HETATM    3  O   UNL     3      -9.832  13.789  64.146  1.00  0.00    -0.638 OA 
HETATM    4  H   UNL     2     -12.238   7.861  73.778  1.00  0.00     0.000 HD 
HETATM    5  C   UNL     2     -11.298   7.993  72.071  1.00  0.00    -0.302 C  
HETATM    6  C   UNL     3     -10.953  13.395  64.932  1.00  0.00    -0.342 C  
HETATM    7  H   UNL     3     -10.107  13.988  63.258  1.00  0.00     0.000 HD 
ENDROOT
BRANCH   5   8
HETATM    8  C   UNL     2      -9.917   7.576  71.523  1.00  0.00    -0.177 C  
HETATM    9  O   UNL     2      -9.926   6.166  71.327  1.00  0.00    -0.178 OA 
HETATM   10  H   UNL     2      -9.076   5.909  70.989  1.00  0.00     0.000 HD 
BRANCH   8  11
HETATM   11  C   UNL     2      -9.629   8.243  70.168  1.00  0.00    -0.167 C  
HETATM   12  H   UNL     2     -10.441   9.641  68.975  1.00  0.00     0.000 HD 
HETATM   13  O   UNL     2     -10.619   9.228  69.812  1.00  0.00    -0.216 OA 
BRANCH  11  14
HETATM   14  C   UNL     2      -8.222   8.824  69.885  1.00  0.00    -0.118 C  
HETATM   15  O   UNL     2      -8.141  10.157  70.364  1.00  0.00    -0.403 OA 
HETATM   16  H   UNL     2      -7.277  10.513  70.191  1.00  0.00     0.000 HD 
BRANCH  14  17
HETATM   17  C   UNL     2      -7.613   8.596  68.489  1.00  0.00    -0.095 C  
HETATM   18  H   UNL     2      -7.553   7.102  67.232  1.00  0.00     0.000 HD 
HETATM   19  O   UNL     2      -7.929   7.242  68.093  1.00  0.00    -0.119 OA 
BRANCH  17  20
HETATM   20  C   UNL     2      -8.008   9.607  67.413  1.00  0.00    -0.106 C  
HETATM   21  O   UNL     2      -9.133  10.412  67.830  1.00  0.00    -0.131 OA 
HETATM   22  C   UNL     2      -6.778  10.524  67.159  1.00  0.00    -0.079 C  
HETATM   23  H   UNL     2      -9.378  11.040  67.162  1.00  0.00     0.000 HD 
HETATM   24  O   UNL     2      -5.673   9.918  67.158  1.00  0.00    -0.046 OA 
HETATM   25  O   UNL     2      -7.080  11.739  67.019  1.00  0.00    -0.137 OA 
ENDBRANCH  17  20
ENDBRANCH  14  17
ENDBRANCH  11  14
ENDBRANCH   8  11
ENDBRANCH   5   8
BRANCH   6  26
HETATM   26  C   UNL     3     -10.509  13.074  66.366  1.00  0.00    -0.276 C  
HETATM   27  H   UNL     3      -9.292  13.878  67.613  1.00  0.00     0.000 HD 
HETATM   28  O   UNL     3      -9.567  14.076  66.726  1.00  0.00    -0.265 OA 
BRANCH  26  29
HETATM   29  C   UNL     3     -11.708  12.978  67.346  1.00  0.00    -0.374 C  
HETATM   30  O   UNL     3     -12.058  11.538  67.546  1.00  0.00    -0.614 OA 
HETATM   31  H   UNL     3     -12.793  11.480  68.146  1.00  0.00     0.000 HD 
BRANCH  29  32
HETATM   32  C   UNL     3     -11.391  13.445  68.783  1.00  0.00    -0.292 C  
HETATM   33  H   UNL     3     -11.651  12.678  70.579  1.00  0.00     0.000 HD 
HETATM   34  O   UNL     3     -11.846  12.392  69.694  1.00  0.00    -0.305 OA 
BRANCH  32  35
HETATM   35  C   UNL     3     -11.582  14.876  69.309  1.00  0.00    -0.306 C  
HETATM   36  H   UNL     3     -12.664  15.684  70.694  1.00  0.00     0.000 HD 
HETATM   37  O   UNL     3     -12.546  14.799  70.368  1.00  0.00    -0.343 OA 
BRANCH  35  38
HETATM   38  C   UNL     3     -10.322  15.626  69.727  1.00  0.00    -0.305 C  
HETATM   39  C   UNL     3     -10.122  16.889  68.849  1.00  0.00    -0.297 C  
HETATM   40  O   UNL     3      -9.157  14.787  69.598  1.00  0.00    -0.424 OA 
HETATM   41  O   UNL     3     -11.045  17.139  68.012  1.00  0.00    -0.313 OA 
HETATM   42  O   UNL     3      -8.958  17.374  68.916  1.00  0.00    -0.250 OA 
HETATM   43  H   UNL     3      -8.371  15.255  69.858  1.00  0.00     0.000 HD 
ENDBRANCH  35  38
ENDBRANCH  32  35
ENDBRANCH  29  32
ENDBRANCH  26  29
ENDBRANCH   6  26
TORSDOF 10
ENDMDL
MODEL      173
REMARK 921   NORMALIZED FREE ENERGY PREDICTED BY IDOCK:   -5.67 KCAL/MOL
REMARK 922        TOTAL FREE ENERGY PREDICTED BY IDOCK:  -11.49 KCAL/MOL
REMARK 923 INTER-LIGAND FREE ENERGY PREDICTED BY IDOCK:   -8.90 KCAL/MOL
REMARK 924 INTRA-LIGAND FREE ENERGY PREDICTED BY IDOCK:   -2.59 KCAL/MOL
REMARK 927      BINDING AFFINITY PREDICTED BY RF-SCORE:    0.00 PKD
ROOT
HETATM    1 CA   UNL     1     -13.013  14.453  68.206  1.00  0.00    -0.571 Ca 
HETATM    2  O   UNL     2     -12.649   9.402  70.905  1.00  0.00    -0.455 OA 
HETATM    3  O   UNL     3      -9.482  19.549  67.150  1.00  0.00    -0.311 OA 
HETATM    4  H   UNL     2     -13.155   9.569  71.692  1.00  0.00     0.000 HD 
HETATM    5  C   UNL     2     -12.582  10.603  70.137  1.00  0.00    -0.214 C  
HETATM    6  C   UNL     3     -10.494  19.055  68.023  1.00  0.00    -0.355 C  
HETATM    7  H   UNL     3      -9.741  20.387  66.787  1.00  0.00     0.000 HD 
ENDROOT
BRANCH   5   8
HETATM    8  C   UNL     2     -11.760  10.333  68.859  1.00  0.00     0.013 C  
HETATM    9  O   UNL     2     -12.140  11.293  67.878  1.00  0.00    -0.634 OA 
HETATM   10  H   UNL     2     -11.634  11.127  67.091  1.00  0.00     0.000 HD 
BRANCH   8  11
HETATM   11  C   UNL     2     -10.253  10.490  69.120  1.00  0.00    -0.224 C  
HETATM   12  H   UNL     2      -8.866   9.798  70.398  1.00  0.00     0.000 HD 
HETATM   13  O   UNL     2      -9.797   9.701  70.236  1.00  0.00    -0.241 OA 
BRANCH  11  14
HETATM   14  C   UNL     2      -9.253  10.326  67.950  1.00  0.00    -0.138 C  
HETATM   15  O   UNL     2      -9.224  11.506  67.164  1.00  0.00    -0.165 OA 
HETATM   16  H   UNL     2      -8.610  11.405  66.446  1.00  0.00     0.000 HD 
BRANCH  14  17
HETATM   17  C   UNL     2      -9.289   9.011  67.148  1.00  0.00    -0.147 C  
HETATM   18  H   UNL     2     -10.111   8.432  65.474  1.00  0.00     0.000 HD 
HETATM   19  O   UNL     2     -10.089   9.243  65.968  1.00  0.00    -0.297 OA 
BRANCH  17  20
HETATM   20  C   UNL     2      -7.931   8.401  66.802  1.00  0.00    -0.098 C  
HETATM   21  O   UNL     2      -6.973   9.417  66.434  1.00  0.00    -0.082 OA 
HETATM   22  C   UNL     2      -7.425   7.639  68.059  1.00  0.00    -0.104 C  
HETATM   23  H   UNL     2      -6.129   9.038  66.218  1.00  0.00     0.000 HD 
HETATM   24  O   UNL     2      -8.323   7.007  68.676  1.00  0.00    -0.120 OA 
HETATM   25  O   UNL     2      -6.194   7.797  68.278  1.00  0.00    -0.042 OA 
ENDBRANCH  17  20
ENDBRANCH  14  17
ENDBRANCH  11  14
ENDBRANCH   8  11
ENDBRANCH   5   8
BRANCH   6  26
HETATM   26  C   UNL     3     -10.074  17.700  68.609  1.00  0.00    -0.377 C  
HETATM   27  H   UNL     3     -10.912  15.981  68.770  1.00  0.00     0.000 HD 
HETATM   28  O   UNL     3     -11.172  16.820  68.408  1.00  0.00    -0.332 OA 
BRANCH  26  29
HETATM   29  C   UNL     3      -8.749  17.179  67.994  1.00  0.00    -0.221 C  
HETATM   30  O   UNL     3      -8.321  15.950  68.732  1.00  0.00    -0.178 OA 
HETATM   31  H   UNL     3      -7.509  15.631  68.355  1.00  0.00     0.000 HD 
BRANCH  29  32
HETATM   32  C   UNL     3      -8.881  16.665  66.544  1.00  0.00    -0.279 C  
HETATM   33  H   UNL     3      -8.232  17.282  64.790  1.00  0.00     0.000 HD 
HETATM   34  O   UNL     3      -8.151  17.598  65.682  1.00  0.00    -0.518 OA 
BRANCH  32  35
HETATM   35  C   UNL     3     -10.163  16.087  65.925  1.00  0.00    -0.365 C  
HETATM   36  H   UNL     3     -11.403  16.678  64.563  1.00  0.00     0.000 HD 
HETATM   37  O   UNL     3     -10.610  17.035  64.947  1.00  0.00    -0.673 OA 
BRANCH  35  38
HETATM   38  C   UNL     3     -10.076  14.673  65.363  1.00  0.00    -0.372 C  
HETATM   39  C   UNL     3     -11.410  13.913  65.584  1.00  0.00    -0.309 C  
HETATM   40  O   UNL     3      -9.015  13.931  65.997  1.00  0.00    -0.457 OA 
HETATM   41  O   UNL     3     -12.357  14.587  66.099  1.00  0.00    -0.338 OA 
HETATM   42  O   UNL     3     -11.312  12.663  65.441  1.00  0.00    -0.293 OA 
HETATM   43  H   UNL     3      -8.960  13.049  65.647  1.00  0.00     0.000 HD 
ENDBRANCH  35  38
ENDBRANCH  32  35
ENDBRANCH  29  32
ENDBRANCH  26  29
ENDBRANCH   6  26
TORSDOF 10
ENDMDL
MODEL      174
REMARK 921   NORMALIZED FREE ENERGY PREDICTED BY IDOCK:   -5.67 KCAL/MOL
REMARK 922        TOTAL FREE ENERGY PREDICTED BY IDOCK:  -11.48 KCAL/MOL
REMARK 923 INTER-LIGAND FREE ENERGY PREDICTED BY IDOCK:   -8.47 KCAL/MOL
REMARK 924 INTRA-LIGAND FREE ENERGY PREDICTED BY IDOCK:   -3.01 KCAL/MOL
REMARK 927      BINDING AFFINITY PREDICTED BY RF-SCORE:    0.00 PKD
ROOT
HETATM    1 CA   UNL     1      -6.444  11.559  70.332  1.00  0.00    -0.130 Ca 
HETATM    2  O   UNL     2      -7.148  17.098  69.009  1.00  0.00    -0.226 OA 
HETATM    3  O   UNL     3      -9.930   6.399  71.218  1.00  0.00    -0.181 OA 
HETATM    4  H   UNL     2      -7.038  17.513  69.857  1.00  0.00     0.000 HD 
HETATM    5  C   UNL     2      -7.067  15.683  69.174  1.00  0.00    -0.168 C  
HETATM    6  C   UNL     3      -9.304   7.459  71.937  1.00  0.00    -0.136 C  
HETATM    7  H   UNL     3      -9.668   5.560  71.578  1.00  0.00     0.000 HD 
ENDROOT
BRANCH   5   8
HETATM    8  C   UNL     2      -7.245  15.009  67.797  1.00  0.00    -0.168 C  
HETATM    9  O   UNL     2      -6.035  14.330  67.477  1.00  0.00    -0.337 OA 
HETATM   10  H   UNL     2      -6.145  13.915  66.630  1.00  0.00     0.000 HD 
BRANCH   8  11
HETATM   11  C   UNL     2      -8.379  13.972  67.826  1.00  0.00    -0.176 C  
HETATM   12  H   UNL     2      -8.720  12.131  68.556  1.00  0.00     0.000 HD 
HETATM   13  O   UNL     2      -8.019  12.772  68.538  1.00  0.00    -0.144 OA 
BRANCH  11  14
HETATM   14  C   UNL     2      -9.800  14.405  68.264  1.00  0.00    -0.229 C  
HETATM   15  O   UNL     2     -10.396  13.388  69.053  1.00  0.00    -0.411 OA 
HETATM   16  H   UNL     2     -11.268  13.654  69.322  1.00  0.00     0.000 HD 
BRANCH  14  17
HETATM   17  C   UNL     2     -10.724  15.031  67.202  1.00  0.00    -0.303 C  
HETATM   18  H   UNL     2     -12.597  14.811  66.694  1.00  0.00     0.000 HD 
HETATM   19  O   UNL     2     -12.028  14.425  67.349  1.00  0.00    -0.398 OA 
BRANCH  17  20
HETATM   20  C   UNL     2     -10.806  16.557  67.203  1.00  0.00    -0.142 C  
HETATM   21  O   UNL     2     -10.051  17.127  68.294  1.00  0.00    -0.279 OA 
HETATM   22  C   UNL     2     -10.225  17.057  65.851  1.00  0.00    -0.296 C  
HETATM   23  H   UNL     2     -10.102  18.076  68.295  1.00  0.00     0.000 HD 
HETATM   24  O   UNL     2     -10.549  16.354  64.857  1.00  0.00    -0.677 OA 
HETATM   25  O   UNL     2      -9.496  18.079  65.966  1.00  0.00    -0.504 OA 
ENDBRANCH  17  20
ENDBRANCH  14  17
ENDBRANCH  11  14
ENDBRANCH   8  11
ENDBRANCH   5   8
BRANCH   6  26
HETATM   26  C   UNL     3      -9.726   8.815  71.356  1.00  0.00    -0.280 C  
HETATM   27  H   UNL     3      -8.790  10.391  70.788  1.00  0.00     0.000 HD 
HETATM   28  O   UNL     3      -8.528   9.552  71.148  1.00  0.00    -0.278 OA 
BRANCH  26  29
HETATM   29  C   UNL     3     -10.584   8.664  70.071  1.00  0.00    -0.227 C  
HETATM   30  O   UNL     3     -12.000   8.385  70.462  1.00  0.00    -0.488 OA 
HETATM   31  H   UNL     3     -12.524   8.292  69.676  1.00  0.00     0.000 HD 
BRANCH  29  32
HETATM   32  C   UNL     3     -10.718   9.959  69.241  1.00  0.00    -0.224 C  
HETATM   33  H   UNL     3     -11.583  11.705  69.526  1.00  0.00     0.000 HD 
HETATM   34  O   UNL     3     -11.501  10.908  70.036  1.00  0.00    -0.284 OA 
BRANCH  32  35
HETATM   35  C   UNL     3     -10.983  10.015  67.729  1.00  0.00    -0.249 C  
HETATM   36  H   UNL     3     -11.934  11.225  66.558  1.00  0.00     0.000 HD 
HETATM   37  O   UNL     3     -11.770  11.190  67.493  1.00  0.00    -0.574 OA 
BRANCH  35  38
HETATM   38  C   UNL     3      -9.764   9.942  66.816  1.00  0.00    -0.192 C  
HETATM   39  C   UNL     3      -9.566   8.499  66.283  1.00  0.00    -0.236 C  
HETATM   40  O   UNL     3      -8.570  10.341  67.518  1.00  0.00    -0.119 OA 
HETATM   41  O   UNL     3     -10.461   7.656  66.607  1.00  0.00    -0.281 OA 
HETATM   42  O   UNL     3      -8.421   8.291  65.793  1.00  0.00    -0.134 OA 
HETATM   43  H   UNL     3      -7.810  10.295  66.949  1.00  0.00     0.000 HD 
ENDBRANCH  35  38
ENDBRANCH  32  35
ENDBRANCH  29  32
ENDBRANCH  26  29
ENDBRANCH   6  26
TORSDOF 10
ENDMDL
MODEL      175
REMARK 921   NORMALIZED FREE ENERGY PREDICTED BY IDOCK:   -5.66 KCAL/MOL
REMARK 922        TOTAL FREE ENERGY PREDICTED BY IDOCK:  -11.47 KCAL/MOL
REMARK 923 INTER-LIGAND FREE ENERGY PREDICTED BY IDOCK:   -9.21 KCAL/MOL
REMARK 924 INTRA-LIGAND FREE ENERGY PREDICTED BY IDOCK:   -2.26 KCAL/MOL
REMARK 927      BINDING AFFINITY PREDICTED BY RF-SCORE:    0.00 PKD
ROOT
HETATM    1 CA   UNL     1     -12.365  10.241  68.502  1.00  0.00    -0.507 Ca 
HETATM    2  O   UNL     2     -11.559  11.584  62.982  1.00  0.00    -0.848 OA 
HETATM    3  O   UNL     3      -9.104   7.949  73.366  1.00  0.00    -0.237 OA 
HETATM    4  H   UNL     2     -11.966  10.846  62.544  1.00  0.00     0.000 HD 
HETATM    5  C   UNL     2     -11.614  11.371  64.392  1.00  0.00     0.003 C  
HETATM    6  C   UNL     3      -9.989   7.541  72.327  1.00  0.00    -0.181 C  
HETATM    7  H   UNL     3      -9.425   7.646  74.208  1.00  0.00     0.000 HD 
ENDROOT
BRANCH   5   8
HETATM    8  C   UNL     2     -10.952  12.570  65.104  1.00  0.00    -0.297 C  
HETATM    9  O   UNL     2     -10.753  13.600  64.142  1.00  0.00    -0.565 OA 
HETATM   10  H   UNL     2     -10.345  14.338  64.581  1.00  0.00     0.000 HD 
BRANCH   8  11
HETATM   11  C   UNL     2     -11.854  13.125  66.218  1.00  0.00    -0.401 C  
HETATM   12  H   UNL     2     -12.874  12.445  67.811  1.00  0.00     0.000 HD 
HETATM   13  O   UNL     2     -12.316  12.102  67.122  1.00  0.00    -0.372 OA 
BRANCH  11  14
HETATM   14  C   UNL     2     -11.384  14.347  67.045  1.00  0.00    -0.346 C  
HETATM   15  O   UNL     2     -10.634  15.229  66.226  1.00  0.00    -0.294 OA 
HETATM   16  H   UNL     2     -10.345  15.979  66.733  1.00  0.00     0.000 HD 
BRANCH  14  17
HETATM   17  C   UNL     2     -10.787  14.088  68.441  1.00  0.00    -0.249 C  
HETATM   18  H   UNL     2      -9.009  13.664  69.130  1.00  0.00     0.000 HD 
HETATM   19  O   UNL     2      -9.377  13.824  68.268  1.00  0.00    -0.203 OA 
BRANCH  17  20
HETATM   20  C   UNL     2     -11.036  15.174  69.488  1.00  0.00    -0.277 C  
HETATM   21  O   UNL     2     -11.385  16.433  68.871  1.00  0.00    -0.332 OA 
HETATM   22  C   UNL     2     -12.208  14.694  70.390  1.00  0.00    -0.329 C  
HETATM   23  H   UNL     2     -11.540  17.108  69.522  1.00  0.00     0.000 HD 
HETATM   24  O   UNL     2     -12.174  13.466  70.670  1.00  0.00    -0.356 OA 
HETATM   25  O   UNL     2     -13.024  15.609  70.678  1.00  0.00    -0.463 OA 
ENDBRANCH  17  20
ENDBRANCH  14  17
ENDBRANCH  11  14
ENDBRANCH   8  11
ENDBRANCH   5   8
BRANCH   6  26
HETATM   26  C   UNL     3      -9.470   8.030  70.967  1.00  0.00    -0.157 C  
HETATM   27  H   UNL     3      -7.765   8.011  70.087  1.00  0.00     0.000 HD 
HETATM   28  O   UNL     3      -8.086   7.708  70.928  1.00  0.00    -0.100 OA 
BRANCH  26  29
HETATM   29  C   UNL     3     -10.273   7.433  69.781  1.00  0.00    -0.209 C  
HETATM   30  O   UNL     3     -11.271   8.443  69.312  1.00  0.00    -0.432 OA 
HETATM   31  H   UNL     3     -11.762   8.076  68.587  1.00  0.00     0.000 HD 
BRANCH  29  32
HETATM   32  C   UNL     3      -9.433   7.181  68.510  1.00  0.00    -0.139 C  
HETATM   33  H   UNL     3      -9.039   8.217  66.881  1.00  0.00     0.000 HD 
HETATM   34  O   UNL     3      -9.556   8.371  67.663  1.00  0.00    -0.146 OA 
BRANCH  32  35
HETATM   35  C   UNL     3      -9.369   5.851  67.743  1.00  0.00    -0.106 C  
HETATM   36  H   UNL     3      -8.793   4.057  68.177  1.00  0.00     0.000 HD 
HETATM   37  O   UNL     3      -8.833   4.879  68.650  1.00  0.00    -0.096 OA 
BRANCH  35  38
HETATM   38  C   UNL     3     -10.659   5.377  67.083  1.00  0.00    -0.201 C  
HETATM   39  C   UNL     3     -10.353   4.636  65.755  1.00  0.00    -0.264 C  
HETATM   40  O   UNL     3     -11.530   6.489  66.798  1.00  0.00    -0.774 OA 
HETATM   41  O   UNL     3      -9.123   4.470  65.479  1.00  0.00    -0.131 OA 
HETATM   42  O   UNL     3     -11.360   4.500  65.006  1.00  0.00    -0.201 OA 
HETATM   43  H   UNL     3     -12.334   6.194  66.387  1.00  0.00     0.000 HD 
ENDBRANCH  35  38
ENDBRANCH  32  35
ENDBRANCH  29  32
ENDBRANCH  26  29
ENDBRANCH   6  26
TORSDOF 10
ENDMDL
MODEL      176
REMARK 921   NORMALIZED FREE ENERGY PREDICTED BY IDOCK:   -5.65 KCAL/MOL
REMARK 922        TOTAL FREE ENERGY PREDICTED BY IDOCK:  -11.46 KCAL/MOL
REMARK 923 INTER-LIGAND FREE ENERGY PREDICTED BY IDOCK:   -9.09 KCAL/MOL
REMARK 924 INTRA-LIGAND FREE ENERGY PREDICTED BY IDOCK:   -2.36 KCAL/MOL
REMARK 927      BINDING AFFINITY PREDICTED BY RF-SCORE:    0.00 PKD
ROOT
HETATM    1 CA   UNL     1      -7.707  13.107  66.186  1.00  0.00    -0.329 Ca 
HETATM    2  O   UNL     2      -8.561   8.008  63.697  1.00  0.00    -0.393 OA 
HETATM    3  O   UNL     3     -10.895  18.379  67.449  1.00  0.00    -0.403 OA 
HETATM    4  H   UNL     2      -8.134   8.132  62.857  1.00  0.00     0.000 HD 
HETATM    5  C   UNL     2      -8.497   9.231  64.431  1.00  0.00    -0.188 C  
HETATM    6  C   UNL     3     -10.002  17.819  66.490  1.00  0.00    -0.346 C  
HETATM    7  H   UNL     3     -10.564  19.215  67.757  1.00  0.00     0.000 HD 
ENDROOT
BRANCH   5   8
HETATM    8  C   UNL     2      -9.189   9.031  65.796  1.00  0.00    -0.232 C  
HETATM    9  O   UNL     2      -9.472   7.644  65.949  1.00  0.00    -0.404 OA 
HETATM   10  H   UNL     2      -9.898   7.521  66.789  1.00  0.00     0.000 HD 
BRANCH   8  11
HETATM   11  C   UNL     2      -8.274   9.461  66.954  1.00  0.00    -0.116 C  
HETATM   12  H   UNL     2      -7.516  11.155  67.725  1.00  0.00     0.000 HD 
HETATM   13  O   UNL     2      -8.082  10.889  67.009  1.00  0.00    -0.123 OA 
BRANCH  11  14
HETATM   14  C   UNL     2      -8.555   8.939  68.385  1.00  0.00    -0.134 C  
HETATM   15  O   UNL     2      -7.957   7.666  68.563  1.00  0.00    -0.119 OA 
HETATM   16  H   UNL     2      -8.130   7.345  69.441  1.00  0.00     0.000 HD 
BRANCH  14  17
HETATM   17  C   UNL     2      -9.989   9.069  68.932  1.00  0.00    -0.189 C  
HETATM   18  H   UNL     2     -11.476   7.836  69.223  1.00  0.00     0.000 HD 
HETATM   19  O   UNL     2     -10.592   7.756  68.885  1.00  0.00    -0.210 OA 
BRANCH  17  20
HETATM   20  C   UNL     2     -10.122   9.704  70.316  1.00  0.00    -0.275 C  
HETATM   21  O   UNL     2     -11.393  10.373  70.471  1.00  0.00    -0.310 OA 
HETATM   22  C   UNL     2     -10.002   8.565  71.367  1.00  0.00    -0.233 C  
HETATM   23  H   UNL     2     -11.476  10.768  71.331  1.00  0.00     0.000 HD 
HETATM   24  O   UNL     2      -9.130   7.698  71.093  1.00  0.00    -0.144 OA 
HETATM   25  O   UNL     2     -10.818   8.677  72.321  1.00  0.00    -0.354 OA 
ENDBRANCH  17  20
ENDBRANCH  14  17
ENDBRANCH  11  14
ENDBRANCH   8  11
ENDBRANCH   5   8
BRANCH   6  26
HETATM   26  C   UNL     3     -10.537  16.469  65.993  1.00  0.00    -0.253 C  
HETATM   27  H   UNL     3     -10.999  15.750  64.275  1.00  0.00     0.000 HD 
HETATM   28  O   UNL     3     -10.668  16.585  64.582  1.00  0.00    -0.713 OA 
BRANCH  26  29
HETATM   29  C   UNL     3      -9.636  15.283  66.429  1.00  0.00    -0.292 C  
HETATM   30  O   UNL     3      -9.098  15.558  67.797  1.00  0.00    -0.177 OA 
HETATM   31  H   UNL     3      -8.547  14.832  68.064  1.00  0.00     0.000 HD 
BRANCH  29  32
HETATM   32  C   UNL     3     -10.393  13.953  66.632  1.00  0.00    -0.278 C  
HETATM   33  H   UNL     3     -10.619  12.309  65.570  1.00  0.00     0.000 HD 
HETATM   34  O   UNL     3     -10.154  13.128  65.445  1.00  0.00    -0.289 OA 
BRANCH  32  35
HETATM   35  C   UNL     3     -11.801  13.820  67.233  1.00  0.00    -0.401 C  
HETATM   36  H   UNL     3     -13.394  12.829  66.762  1.00  0.00     0.000 HD 
HETATM   37  O   UNL     3     -12.523  12.912  66.391  1.00  0.00    -0.422 OA 
BRANCH  35  38
HETATM   38  C   UNL     3     -11.885  13.435  68.706  1.00  0.00    -0.351 C  
HETATM   39  C   UNL     3     -11.939  14.702  69.599  1.00  0.00    -0.323 C  
HETATM   40  O   UNL     3     -10.744  12.646  69.097  1.00  0.00    -0.411 OA 
HETATM   41  O   UNL     3     -11.991  15.815  68.988  1.00  0.00    -0.385 OA 
HETATM   42  O   UNL     3     -11.689  14.476  70.816  1.00  0.00    -0.297 OA 
HETATM   43  H   UNL     3     -10.796  12.406  70.015  1.00  0.00     0.000 HD 
ENDBRANCH  35  38
ENDBRANCH  32  35
ENDBRANCH  29  32
ENDBRANCH  26  29
ENDBRANCH   6  26
TORSDOF 10
ENDMDL
MODEL      177
REMARK 921   NORMALIZED FREE ENERGY PREDICTED BY IDOCK:   -5.65 KCAL/MOL
REMARK 922        TOTAL FREE ENERGY PREDICTED BY IDOCK:  -11.45 KCAL/MOL
REMARK 923 INTER-LIGAND FREE ENERGY PREDICTED BY IDOCK:  -10.24 KCAL/MOL
REMARK 924 INTRA-LIGAND FREE ENERGY PREDICTED BY IDOCK:   -1.21 KCAL/MOL
REMARK 927      BINDING AFFINITY PREDICTED BY RF-SCORE:    0.00 PKD
ROOT
HETATM    1 CA   UNL     1     -12.579  10.590  68.275  1.00  0.00    -0.367 Ca 
HETATM    2  O   UNL     2     -12.373  13.413  63.284  1.00  0.00    -0.852 OA 
HETATM    3  O   UNL     3      -8.761   9.044  73.028  1.00  0.00    -0.139 OA 
HETATM    4  H   UNL     2     -12.349  12.697  62.659  1.00  0.00     0.000 HD 
HETATM    5  C   UNL     2     -12.359  12.874  64.604  1.00  0.00    -0.439 C  
HETATM    6  C   UNL     3      -9.297   8.524  71.814  1.00  0.00    -0.253 C  
HETATM    7  H   UNL     3      -8.916   8.437  73.742  1.00  0.00     0.000 HD 
ENDROOT
BRANCH   5   8
HETATM    8  C   UNL     2     -12.397  14.036  65.619  1.00  0.00    -0.479 C  
HETATM    9  O   UNL     2     -12.651  13.490  66.908  1.00  0.00    -0.246 OA 
HETATM   10  H   UNL     2     -12.675  14.206  67.533  1.00  0.00     0.000 HD 
BRANCH   8  11
HETATM   11  C   UNL     2     -11.051  14.776  65.671  1.00  0.00    -0.342 C  
HETATM   12  H   UNL     2      -9.279  14.749  64.724  1.00  0.00     0.000 HD 
HETATM   13  O   UNL     2     -10.111  14.292  64.692  1.00  0.00    -0.318 OA 
BRANCH  11  14
HETATM   14  C   UNL     2     -11.028  16.325  65.662  1.00  0.00    -0.106 C  
HETATM   15  O   UNL     2     -11.116  16.804  64.330  1.00  0.00    -1.301 OA 
HETATM   16  H   UNL     2     -11.102  17.754  64.324  1.00  0.00     0.000 HD 
BRANCH  14  17
HETATM   17  C   UNL     2      -9.985  17.037  66.543  1.00  0.00    -0.310 C  
HETATM   18  H   UNL     2      -8.258  17.894  66.227  1.00  0.00     0.000 HD 
HETATM   19  O   UNL     2      -8.902  17.454  65.682  1.00  0.00    -0.448 OA 
BRANCH  17  20
HETATM   20  C   UNL     2     -10.507  18.193  67.397  1.00  0.00    -0.399 C  
HETATM   21  O   UNL     2      -9.760  18.321  68.627  1.00  0.00    -0.336 OA 
HETATM   22  C   UNL     2     -10.361  19.495  66.561  1.00  0.00    -0.482 C  
HETATM   23  H   UNL     2     -10.085  19.039  69.158  1.00  0.00     0.000 HD 
HETATM   24  O   UNL     2     -10.646  19.361  65.342  1.00  0.00    -0.475 OA 
HETATM   25  O   UNL     2      -9.953  20.479  67.235  1.00  0.00    -0.450 OA 
ENDBRANCH  17  20
ENDBRANCH  14  17
ENDBRANCH  11  14
ENDBRANCH   8  11
ENDBRANCH   5   8
BRANCH   6  26
HETATM   26  C   UNL     3      -9.046   9.506  70.661  1.00  0.00    -0.174 C  
HETATM   27  H   UNL     3      -7.488  10.341  69.913  1.00  0.00     0.000 HD 
HETATM   28  O   UNL     3      -7.643   9.734  70.627  1.00  0.00    -0.259 OA 
BRANCH  26  29
HETATM   29  C   UNL     3      -9.615   8.988  69.313  1.00  0.00    -0.162 C  
HETATM   30  O   UNL     3     -11.084   9.266  69.267  1.00  0.00    -0.412 OA 
HETATM   31  H   UNL     3     -11.432   8.948  68.442  1.00  0.00     0.000 HD 
BRANCH  29  32
HETATM   32  C   UNL     3      -9.096   9.745  68.072  1.00  0.00    -0.125 C  
HETATM   33  H   UNL     3      -9.935  10.829  66.657  1.00  0.00     0.000 HD 
HETATM   34  O   UNL     3     -10.254  10.362  67.420  1.00  0.00    -0.192 OA 
BRANCH  32  35
HETATM   35  C   UNL     3      -8.018   9.226  67.108  1.00  0.00    -0.106 C  
HETATM   36  H   UNL     3      -6.421   8.151  67.302  1.00  0.00     0.000 HD 
HETATM   37  O   UNL     3      -7.088   8.473  67.898  1.00  0.00    -0.083 OA 
BRANCH  35  38
HETATM   38  C   UNL     3      -8.504   8.450  65.890  1.00  0.00    -0.148 C  
HETATM   39  C   UNL     3      -8.133   9.196  64.582  1.00  0.00    -0.136 C  
HETATM   40  O   UNL     3      -9.935   8.274  65.928  1.00  0.00    -0.449 OA 
HETATM   41  O   UNL     3      -7.436  10.250  64.719  1.00  0.00    -0.143 OA 
HETATM   42  O   UNL     3      -8.768   8.791  63.568  1.00  0.00    -0.110 OA 
HETATM   43  H   UNL     3     -10.238   7.790  65.169  1.00  0.00     0.000 HD 
ENDBRANCH  35  38
ENDBRANCH  32  35
ENDBRANCH  29  32
ENDBRANCH  26  29
ENDBRANCH   6  26
TORSDOF 10
ENDMDL
MODEL      178
REMARK 921   NORMALIZED FREE ENERGY PREDICTED BY IDOCK:   -5.64 KCAL/MOL
REMARK 922        TOTAL FREE ENERGY PREDICTED BY IDOCK:  -11.44 KCAL/MOL
REMARK 923 INTER-LIGAND FREE ENERGY PREDICTED BY IDOCK:   -8.94 KCAL/MOL
REMARK 924 INTRA-LIGAND FREE ENERGY PREDICTED BY IDOCK:   -2.50 KCAL/MOL
REMARK 927      BINDING AFFINITY PREDICTED BY RF-SCORE:    0.00 PKD
ROOT
HETATM    1 CA   UNL     1     -10.953  11.240  68.071  1.00  0.00    -0.176 Ca 
HETATM    2  O   UNL     2     -12.105   6.576  71.209  1.00  0.00    -0.343 OA 
HETATM    3  O   UNL     3      -9.827  17.372  68.898  1.00  0.00    -0.298 OA 
HETATM    4  H   UNL     2     -13.040   6.478  71.070  1.00  0.00     0.000 HD 
HETATM    5  C   UNL     2     -11.660   7.753  70.537  1.00  0.00    -0.158 C  
HETATM    6  C   UNL     3     -10.881  16.464  68.589  1.00  0.00    -0.331 C  
HETATM    7  H   UNL     3      -9.787  18.062  68.247  1.00  0.00     0.000 HD 
ENDROOT
BRANCH   5   8
HETATM    8  C   UNL     2     -10.142   7.913  70.762  1.00  0.00    -0.192 C  
HETATM    9  O   UNL     2      -9.577   6.614  70.905  1.00  0.00    -0.174 OA 
HETATM   10  H   UNL     2      -8.642   6.713  71.044  1.00  0.00     0.000 HD 
BRANCH   8  11
HETATM   11  C   UNL     2      -9.468   8.597  69.561  1.00  0.00    -0.162 C  
HETATM   12  H   UNL     2      -9.985   9.350  67.772  1.00  0.00     0.000 HD 
HETATM   13  O   UNL     2     -10.401   8.927  68.514  1.00  0.00    -0.195 OA 
BRANCH  11  14
HETATM   14  C   UNL     2      -8.532   9.808  69.797  1.00  0.00    -0.193 C  
HETATM   15  O   UNL     2      -9.194  11.011  69.442  1.00  0.00    -0.399 OA 
HETATM   16  H   UNL     2      -8.620  11.754  69.586  1.00  0.00     0.000 HD 
BRANCH  14  17
HETATM   17  C   UNL     2      -7.074   9.699  69.312  1.00  0.00    -0.063 C  
HETATM   18  H   UNL     2      -6.107  10.233  67.701  1.00  0.00     0.000 HD 
HETATM   19  O   UNL     2      -7.007  10.301  68.000  1.00  0.00    -0.079 OA 
BRANCH  17  20
HETATM   20  C   UNL     2      -6.012  10.269  70.251  1.00  0.00    -0.088 C  
HETATM   21  O   UNL     2      -6.438  11.520  70.835  1.00  0.00    -0.428 OA 
HETATM   22  C   UNL     2      -5.774   9.224  71.378  1.00  0.00    -0.067 C  
HETATM   23  H   UNL     2      -5.777  11.874  71.419  1.00  0.00     0.000 HD 
HETATM   24  O   UNL     2      -5.767   8.029  70.980  1.00  0.00    -0.033 OA 
HETATM   25  O   UNL     2      -5.651   9.740  72.521  1.00  0.00    -0.272 OA 
ENDBRANCH  17  20
ENDBRANCH  14  17
ENDBRANCH  11  14
ENDBRANCH   8  11
ENDBRANCH   5   8
BRANCH   6  26
HETATM   26  C   UNL     3     -10.945  15.348  69.642  1.00  0.00    -0.284 C  
HETATM   27  H   UNL     3     -12.201  14.847  71.003  1.00  0.00     0.000 HD 
HETATM   28  O   UNL     3     -12.162  15.538  70.352  1.00  0.00    -0.362 OA 
BRANCH  26  29
HETATM   29  C   UNL     3     -10.816  13.936  69.011  1.00  0.00    -0.225 C  
HETATM   30  O   UNL     3     -11.654  12.976  69.794  1.00  0.00    -0.407 OA 
HETATM   31  H   UNL     3     -11.575  12.112  69.408  1.00  0.00     0.000 HD 
BRANCH  29  32
HETATM   32  C   UNL     3     -11.414  13.818  67.593  1.00  0.00    -0.323 C  
HETATM   33  H   UNL     3     -12.777  12.669  66.753  1.00  0.00     0.000 HD 
HETATM   34  O   UNL     3     -12.408  12.741  67.626  1.00  0.00    -0.250 OA 
BRANCH  32  35
HETATM   35  C   UNL     3     -10.613  13.911  66.285  1.00  0.00    -0.289 C  
HETATM   36  H   UNL     3      -9.485  12.695  65.290  1.00  0.00     0.000 HD 
HETATM   37  O   UNL     3      -9.981  12.638  66.099  1.00  0.00    -0.252 OA 
BRANCH  35  38
HETATM   38  C   UNL     3     -11.374  14.367  65.046  1.00  0.00    -0.373 C  
HETATM   39  C   UNL     3     -11.014  15.833  64.691  1.00  0.00    -0.314 C  
HETATM   40  O   UNL     3     -12.798  14.281  65.255  1.00  0.00    -0.630 OA 
HETATM   41  O   UNL     3     -10.115  16.376  65.407  1.00  0.00    -0.543 OA 
HETATM   42  O   UNL     3     -11.825  16.376  63.890  1.00  0.00    -1.034 OA 
HETATM   43  H   UNL     3     -13.272  14.565  64.482  1.00  0.00     0.000 HD 
ENDBRANCH  35  38
ENDBRANCH  32  35
ENDBRANCH  29  32
ENDBRANCH  26  29
ENDBRANCH   6  26
TORSDOF 10
ENDMDL
MODEL      179
REMARK 921   NORMALIZED FREE ENERGY PREDICTED BY IDOCK:   -5.64 KCAL/MOL
REMARK 922        TOTAL FREE ENERGY PREDICTED BY IDOCK:  -11.44 KCAL/MOL
REMARK 923 INTER-LIGAND FREE ENERGY PREDICTED BY IDOCK:   -9.38 KCAL/MOL
REMARK 924 INTRA-LIGAND FREE ENERGY PREDICTED BY IDOCK:   -2.06 KCAL/MOL
REMARK 927      BINDING AFFINITY PREDICTED BY RF-SCORE:    0.00 PKD
ROOT
HETATM    1 CA   UNL     1      -5.647  13.975  67.127  1.00  0.00    -0.077 Ca 
HETATM    2  O   UNL     2      -7.501  19.148  68.778  1.00  0.00    -0.320 OA 
HETATM    3  O   UNL     3      -7.858   8.129  66.426  1.00  0.00    -0.090 OA 
HETATM    4  H   UNL     2      -7.141  19.210  69.655  1.00  0.00     0.000 HD 
HETATM    5  C   UNL     2      -7.182  17.867  68.237  1.00  0.00    -0.236 C  
HETATM    6  C   UNL     3      -7.154   8.951  67.353  1.00  0.00    -0.079 C  
HETATM    7  H   UNL     3      -7.376   7.326  66.268  1.00  0.00     0.000 HD 
ENDROOT
BRANCH   5   8
HETATM    8  C   UNL     2      -7.767  17.767  66.812  1.00  0.00    -0.227 C  
HETATM    9  O   UNL     2      -6.687  17.828  65.887  1.00  0.00    -0.266 OA 
HETATM   10  H   UNL     2      -7.047  17.767  65.009  1.00  0.00     0.000 HD 
BRANCH   8  11
HETATM   11  C   UNL     2      -8.499  16.432  66.602  1.00  0.00    -0.271 C  
HETATM   12  H   UNL     2      -8.266  14.494  67.080  1.00  0.00     0.000 HD 
HETATM   13  O   UNL     2      -7.814  15.319  67.210  1.00  0.00    -0.176 OA 
BRANCH  11  14
HETATM   14  C   UNL     2     -10.009  16.328  66.930  1.00  0.00    -0.260 C  
HETATM   15  O   UNL     2     -10.754  17.163  66.059  1.00  0.00    -0.247 OA 
HETATM   16  H   UNL     2     -11.681  17.099  66.260  1.00  0.00     0.000 HD 
BRANCH  14  17
HETATM   17  C   UNL     2     -10.433  16.387  68.410  1.00  0.00    -0.298 C  
HETATM   18  H   UNL     2     -10.650  17.808  69.732  1.00  0.00     0.000 HD 
HETATM   19  O   UNL     2     -10.389  17.772  68.819  1.00  0.00    -0.367 OA 
BRANCH  17  20
HETATM   20  C   UNL     2     -11.774  15.738  68.748  1.00  0.00    -0.378 C  
HETATM   21  O   UNL     2     -12.206  14.839  67.703  1.00  0.00    -0.563 OA 
HETATM   22  C   UNL     2     -11.589  14.945  70.073  1.00  0.00    -0.289 C  
HETATM   23  H   UNL     2     -13.040  14.436  67.914  1.00  0.00     0.000 HD 
HETATM   24  O   UNL     2     -10.875  15.531  70.930  1.00  0.00    -0.325 OA 
HETATM   25  O   UNL     2     -12.166  13.825  70.070  1.00  0.00    -0.329 OA 
ENDBRANCH  17  20
ENDBRANCH  14  17
ENDBRANCH  11  14
ENDBRANCH   8  11
ENDBRANCH   5   8
BRANCH   6  26
HETATM   26  C   UNL     3      -7.934  10.249  67.609  1.00  0.00    -0.102 C  
HETATM   27  H   UNL     3      -7.550  12.118  67.400  1.00  0.00     0.000 HD 
HETATM   28  O   UNL     3      -7.067  11.315  67.243  1.00  0.00    -0.098 OA 
BRANCH  26  29
HETATM   29  C   UNL     3      -9.291  10.277  66.858  1.00  0.00    -0.158 C  
HETATM   30  O   UNL     3     -10.333   9.629  67.713  1.00  0.00    -0.205 OA 
HETATM   31  H   UNL     3     -11.164   9.646  67.253  1.00  0.00     0.000 HD 
BRANCH  29  32
HETATM   32  C   UNL     3      -9.870  11.693  66.647  1.00  0.00    -0.200 C  
HETATM   33  H   UNL     3      -9.930  13.342  67.722  1.00  0.00     0.000 HD 
HETATM   34  O   UNL     3      -9.574  12.471  67.853  1.00  0.00    -0.193 OA 
BRANCH  32  35
HETATM   35  C   UNL     3     -11.229  12.004  65.999  1.00  0.00    -0.335 C  
HETATM   36  H   UNL     3     -13.016  12.317  66.669  1.00  0.00     0.000 HD 
HETATM   37  O   UNL     3     -12.176  12.125  67.069  1.00  0.00    -0.522 OA 
BRANCH  35  38
HETATM   38  C   UNL     3     -11.277  13.193  65.047  1.00  0.00    -0.298 C  
HETATM   39  C   UNL     3     -12.496  13.081  64.094  1.00  0.00    -0.300 C  
HETATM   40  O   UNL     3     -10.078  13.266  64.251  1.00  0.00    -0.611 OA 
HETATM   41  O   UNL     3     -13.280  12.102  64.303  1.00  0.00    -0.768 OA 
HETATM   42  O   UNL     3     -12.426  13.840  63.088  1.00  0.00    -0.786 OA 
HETATM   43  H   UNL     3     -10.108  14.007  63.657  1.00  0.00     0.000 HD 
ENDBRANCH  35  38
ENDBRANCH  32  35
ENDBRANCH  29  32
ENDBRANCH  26  29
ENDBRANCH   6  26
TORSDOF 10
ENDMDL
MODEL      180
REMARK 921   NORMALIZED FREE ENERGY PREDICTED BY IDOCK:   -5.63 KCAL/MOL
REMARK 922        TOTAL FREE ENERGY PREDICTED BY IDOCK:  -11.41 KCAL/MOL
REMARK 923 INTER-LIGAND FREE ENERGY PREDICTED BY IDOCK:   -8.19 KCAL/MOL
REMARK 924 INTRA-LIGAND FREE ENERGY PREDICTED BY IDOCK:   -3.23 KCAL/MOL
REMARK 927      BINDING AFFINITY PREDICTED BY RF-SCORE:    0.00 PKD
ROOT
HETATM    1 CA   UNL     1     -12.700  10.962  68.459  1.00  0.00    -0.283 Ca 
HETATM    2  O   UNL     2     -12.244  13.049  63.133  1.00  0.00    -0.717 OA 
HETATM    3  O   UNL     3      -9.943   6.674  72.141  1.00  0.00    -0.162 OA 
HETATM    4  H   UNL     2     -12.971  12.620  62.696  1.00  0.00     0.000 HD 
HETATM    5  C   UNL     2     -12.173  12.579  64.479  1.00  0.00    -0.453 C  
HETATM    6  C   UNL     3     -11.058   6.844  71.271  1.00  0.00    -0.258 C  
HETATM    7  H   UNL     3     -10.230   6.339  72.982  1.00  0.00     0.000 HD 
ENDROOT
BRANCH   5   8
HETATM    8  C   UNL     2     -10.993  13.277  65.189  1.00  0.00    -0.299 C  
HETATM    9  O   UNL     2     -10.692  14.472  64.476  1.00  0.00    -0.599 OA 
HETATM   10  H   UNL     2      -9.965  14.901  64.913  1.00  0.00     0.000 HD 
BRANCH   8  11
HETATM   11  C   UNL     2     -11.358  13.662  66.631  1.00  0.00    -0.326 C  
HETATM   12  H   UNL     2     -12.554  13.009  68.108  1.00  0.00     0.000 HD 
HETATM   13  O   UNL     2     -12.329  12.771  67.216  1.00  0.00    -0.335 OA 
BRANCH  11  14
HETATM   14  C   UNL     2     -10.231  13.919  67.663  1.00  0.00    -0.242 C  
HETATM   15  O   UNL     2     -10.404  13.076  68.791  1.00  0.00    -0.355 OA 
HETATM   16  H   UNL     2      -9.713  13.234  69.424  1.00  0.00     0.000 HD 
BRANCH  14  17
HETATM   17  C   UNL     2      -9.871  15.380  67.990  1.00  0.00    -0.216 C  
HETATM   18  H   UNL     2     -10.750  16.844  68.937  1.00  0.00     0.000 HD 
HETATM   19  O   UNL     2     -10.973  15.943  68.736  1.00  0.00    -0.264 OA 
BRANCH  17  20
HETATM   20  C   UNL     2      -8.535  15.597  68.701  1.00  0.00    -0.179 C  
HETATM   21  O   UNL     2      -8.122  14.415  69.421  1.00  0.00    -0.357 OA 
HETATM   22  C   UNL     2      -7.478  15.941  67.615  1.00  0.00    -0.152 C  
HETATM   23  H   UNL     2      -7.292  14.550  69.863  1.00  0.00     0.000 HD 
HETATM   24  O   UNL     2      -7.901  16.702  66.704  1.00  0.00    -0.220 OA 
HETATM   25  O   UNL     2      -6.365  15.381  67.804  1.00  0.00    -0.138 OA 
ENDBRANCH  17  20
ENDBRANCH  14  17
ENDBRANCH  11  14
ENDBRANCH   8  11
ENDBRANCH   5   8
BRANCH   6  26
HETATM   26  C   UNL     3     -10.593   7.385  69.912  1.00  0.00    -0.236 C  
HETATM   27  H   UNL     3     -11.033   7.002  68.084  1.00  0.00     0.000 HD 
HETATM   28  O   UNL     3     -11.321   6.667  68.925  1.00  0.00    -0.231 OA 
BRANCH  26  29
HETATM   29  C   UNL     3     -10.764   8.924  69.801  1.00  0.00    -0.225 C  
HETATM   30  O   UNL     3     -10.193   9.565  71.026  1.00  0.00    -0.297 OA 
HETATM   31  H   UNL     3     -10.298  10.507  70.958  1.00  0.00     0.000 HD 
BRANCH  29  32
HETATM   32  C   UNL     3      -9.938   9.574  68.671  1.00  0.00    -0.167 C  
HETATM   33  H   UNL     3     -10.280  10.018  66.782  1.00  0.00     0.000 HD 
HETATM   34  O   UNL     3     -10.788   9.617  67.478  1.00  0.00    -0.286 OA 
BRANCH  32  35
HETATM   35  C   UNL     3      -8.453   9.298  68.391  1.00  0.00    -0.120 C  
HETATM   36  H   UNL     3      -7.369   9.172  66.794  1.00  0.00     0.000 HD 
HETATM   37  O   UNL     3      -8.287   9.343  66.967  1.00  0.00    -0.125 OA 
BRANCH  35  38
HETATM   38  C   UNL     3      -7.443  10.179  69.118  1.00  0.00    -0.098 C  
HETATM   39  C   UNL     3      -6.948   9.487  70.415  1.00  0.00    -0.112 C  
HETATM   40  O   UNL     3      -8.026  11.449  69.470  1.00  0.00    -0.355 OA 
HETATM   41  O   UNL     3      -7.377   8.307  70.617  1.00  0.00    -0.053 OA 
HETATM   42  O   UNL     3      -6.371  10.269  71.220  1.00  0.00    -0.330 OA 
HETATM   43  H   UNL     3      -7.397  11.998  69.923  1.00  0.00     0.000 HD 
ENDBRANCH  35  38
ENDBRANCH  32  35
ENDBRANCH  29  32
ENDBRANCH  26  29
ENDBRANCH   6  26
TORSDOF 10
ENDMDL
MODEL      181
REMARK 921   NORMALIZED FREE ENERGY PREDICTED BY IDOCK:   -5.62 KCAL/MOL
REMARK 922        TOTAL FREE ENERGY PREDICTED BY IDOCK:  -11.41 KCAL/MOL
REMARK 923 INTER-LIGAND FREE ENERGY PREDICTED BY IDOCK:   -8.66 KCAL/MOL
REMARK 924 INTRA-LIGAND FREE ENERGY PREDICTED BY IDOCK:   -2.75 KCAL/MOL
REMARK 927      BINDING AFFINITY PREDICTED BY RF-SCORE:    0.00 PKD
ROOT
HETATM    1 CA   UNL     1      -9.102  11.539  67.983  1.00  0.00    -0.137 Ca 
HETATM    2  O   UNL     2      -8.710   6.180  69.994  1.00  0.00    -0.133 OA 
HETATM    3  O   UNL     3     -12.704  14.904  64.077  1.00  0.00    -0.792 OA 
HETATM    4  H   UNL     2      -7.986   5.836  69.483  1.00  0.00     0.000 HD 
HETATM    5  C   UNL     2      -8.988   7.511  69.562  1.00  0.00    -0.143 C  
HETATM    6  C   UNL     3     -11.482  14.172  64.114  1.00  0.00    -0.173 C  
HETATM    7  H   UNL     3     -12.553  15.776  63.732  1.00  0.00     0.000 HD 
ENDROOT
BRANCH   5   8
HETATM    8  C   UNL     2     -10.164   8.069  70.391  1.00  0.00    -0.201 C  
HETATM    9  O   UNL     2     -10.537   9.327  69.838  1.00  0.00    -0.208 OA 
HETATM   10  H   UNL     2     -11.261   9.671  70.348  1.00  0.00     0.000 HD 
BRANCH   8  11
HETATM   11  C   UNL     2     -11.386   7.139  70.325  1.00  0.00    -0.269 C  
HETATM   12  H   UNL     2     -12.070   5.629  69.188  1.00  0.00     0.000 HD 
HETATM   13  O   UNL     2     -11.315   6.205  69.229  1.00  0.00    -0.416 OA 
BRANCH  11  14
HETATM   14  C   UNL     2     -11.841   6.382  71.597  1.00  0.00    -0.306 C  
HETATM   15  O   UNL     2     -13.142   6.803  71.973  1.00  0.00    -0.531 OA 
HETATM   16  H   UNL     2     -13.421   6.338  72.754  1.00  0.00     0.000 HD 
BRANCH  14  17
HETATM   17  C   UNL     2     -10.837   6.251  72.758  1.00  0.00    -0.252 C  
HETATM   18  H   UNL     2     -10.405   7.311  74.341  1.00  0.00     0.000 HD 
HETATM   19  O   UNL     2     -11.025   7.392  73.625  1.00  0.00    -0.306 OA 
BRANCH  17  20
HETATM   20  C   UNL     2     -10.879   4.936  73.534  1.00  0.00    -0.305 C  
HETATM   21  O   UNL     2     -12.216   4.391  73.580  1.00  0.00    -0.127 OA 
HETATM   22  C   UNL     2      -9.934   3.935  72.811  1.00  0.00    -0.151 C  
HETATM   23  H   UNL     2     -12.242   3.573  74.063  1.00  0.00     0.000 HD 
HETATM   24  O   UNL     2      -8.863   4.448  72.390  1.00  0.00    -0.111 OA 
HETATM   25  O   UNL     2     -10.402   2.768  72.739  1.00  0.00    -0.150 OA 
ENDBRANCH  17  20
ENDBRANCH  14  17
ENDBRANCH  11  14
ENDBRANCH   8  11
ENDBRANCH   5   8
BRANCH   6  26
HETATM   26  C   UNL     3     -11.726  12.762  64.671  1.00  0.00    -0.355 C  
HETATM   27  H   UNL     3     -13.282  11.681  64.975  1.00  0.00     0.000 HD 
HETATM   28  O   UNL     3     -13.131  12.553  64.630  1.00  0.00    -0.845 OA 
BRANCH  26  29
HETATM   29  C   UNL     3     -10.922  11.679  63.905  1.00  0.00    -0.407 C  
HETATM   30  O   UNL     3      -9.673  12.296  63.359  1.00  0.00    -0.627 OA 
HETATM   31  H   UNL     3      -9.181  11.633  62.889  1.00  0.00     0.000 HD 
BRANCH  29  32
HETATM   32  C   UNL     3     -10.369  10.548  64.798  1.00  0.00    -0.230 C  
HETATM   33  H   UNL     3     -10.189  10.277  66.741  1.00  0.00     0.000 HD 
HETATM   34  O   UNL     3     -10.529  10.974  66.191  1.00  0.00    -0.246 OA 
BRANCH  32  35
HETATM   35  C   UNL     3      -9.091   9.743  64.515  1.00  0.00    -0.249 C  
HETATM   36  H   UNL     3      -8.183   9.150  62.914  1.00  0.00     0.000 HD 
HETATM   37  O   UNL     3      -8.973   9.647  63.089  1.00  0.00    -0.239 OA 
BRANCH  35  38
HETATM   38  C   UNL     3      -7.808  10.241  65.170  1.00  0.00    -0.138 C  
HETATM   39  C   UNL     3      -7.406   9.323  66.354  1.00  0.00    -0.092 C  
HETATM   40  O   UNL     3      -7.971  11.585  65.666  1.00  0.00    -0.349 OA 
HETATM   41  O   UNL     3      -8.130   8.293  66.532  1.00  0.00    -0.101 OA 
HETATM   42  O   UNL     3      -6.556   9.839  67.131  1.00  0.00    -0.069 OA 
HETATM   43  H   UNL     3      -7.171  11.896  66.074  1.00  0.00     0.000 HD 
ENDBRANCH  35  38
ENDBRANCH  32  35
ENDBRANCH  29  32
ENDBRANCH  26  29
ENDBRANCH   6  26
TORSDOF 10
ENDMDL
MODEL      182
REMARK 921   NORMALIZED FREE ENERGY PREDICTED BY IDOCK:   -5.62 KCAL/MOL
REMARK 922        TOTAL FREE ENERGY PREDICTED BY IDOCK:  -11.41 KCAL/MOL
REMARK 923 INTER-LIGAND FREE ENERGY PREDICTED BY IDOCK:   -8.91 KCAL/MOL
REMARK 924 INTRA-LIGAND FREE ENERGY PREDICTED BY IDOCK:   -2.50 KCAL/MOL
REMARK 927      BINDING AFFINITY PREDICTED BY RF-SCORE:    0.00 PKD
ROOT
HETATM    1 CA   UNL     1     -11.650   7.989  67.167  1.00  0.00    -0.485 Ca 
HETATM    2  O   UNL     2      -7.312   9.290  63.644  1.00  0.00    -0.098 OA 
HETATM    3  O   UNL     3     -13.511   9.167  73.058  1.00  0.00    -0.845 OA 
HETATM    4  H   UNL     2      -6.801   8.489  63.665  1.00  0.00     0.000 HD 
HETATM    5  C   UNL     2      -8.416   9.157  64.538  1.00  0.00    -0.180 C  
HETATM    6  C   UNL     3     -12.818   8.194  72.282  1.00  0.00    -0.231 C  
HETATM    7  H   UNL     3     -14.208   8.754  73.555  1.00  0.00     0.000 HD 
ENDROOT
BRANCH   5   8
HETATM    8  C   UNL     2      -9.245  10.458  64.504  1.00  0.00    -0.246 C  
HETATM    9  O   UNL     2     -10.037  10.446  63.321  1.00  0.00    -0.476 OA 
HETATM   10  H   UNL     2     -10.548  11.247  63.300  1.00  0.00     0.000 HD 
BRANCH   8  11
HETATM   11  C   UNL     2     -10.193  10.547  65.711  1.00  0.00    -0.243 C  
HETATM   12  H   UNL     2     -10.471   9.633  67.479  1.00  0.00     0.000 HD 
HETATM   13  O   UNL     2      -9.886   9.578  66.733  1.00  0.00    -0.187 OA 
BRANCH  11  14
HETATM   14  C   UNL     2     -10.447  11.918  66.384  1.00  0.00    -0.223 C  
HETATM   15  O   UNL     2      -9.519  12.122  67.437  1.00  0.00    -0.174 OA 
HETATM   16  H   UNL     2      -9.675  12.964  67.850  1.00  0.00     0.000 HD 
BRANCH  14  17
HETATM   17  C   UNL     2     -11.902  12.303  66.714  1.00  0.00    -0.277 C  
HETATM   18  H   UNL     2     -12.958  12.452  68.350  1.00  0.00     0.000 HD 
HETATM   19  O   UNL     2     -12.060  12.215  68.147  1.00  0.00    -0.447 OA 
BRANCH  17  20
HETATM   20  C   UNL     2     -12.377  13.651  66.173  1.00  0.00    -0.426 C  
HETATM   21  O   UNL     2     -11.368  14.672  66.336  1.00  0.00    -0.340 OA 
HETATM   22  C   UNL     2     -12.690  13.465  64.661  1.00  0.00    -0.186 C  
HETATM   23  H   UNL     2     -11.663  15.510  66.000  1.00  0.00     0.000 HD 
HETATM   24  O   UNL     2     -13.258  12.376  64.382  1.00  0.00    -0.816 OA 
HETATM   25  O   UNL     2     -12.300  14.428  63.948  1.00  0.00    -0.720 OA 
ENDBRANCH  17  20
ENDBRANCH  14  17
ENDBRANCH  11  14
ENDBRANCH   8  11
ENDBRANCH   5   8
BRANCH   6  26
HETATM   26  C   UNL     3     -11.692   8.861  71.478  1.00  0.00    -0.324 C  
HETATM   27  H   UNL     3      -9.846   9.261  71.817  1.00  0.00     0.000 HD 
HETATM   28  O   UNL     3     -10.542   8.848  72.314  1.00  0.00    -0.320 OA 
BRANCH  26  29
HETATM   29  C   UNL     3     -11.461   8.173  70.107  1.00  0.00     0.006 C  
HETATM   30  O   UNL     3     -11.301   9.225  69.056  1.00  0.00    -0.445 OA 
HETATM   31  H   UNL     3     -11.160   8.804  68.217  1.00  0.00     0.000 HD 
BRANCH  29  32
HETATM   32  C   UNL     3     -10.131   7.396  70.003  1.00  0.00    -0.191 C  
HETATM   33  H   UNL     3      -8.261   7.891  69.632  1.00  0.00     0.000 HD 
HETATM   34  O   UNL     3      -9.080   8.369  69.695  1.00  0.00    -0.151 OA 
BRANCH  32  35
HETATM   35  C   UNL     3      -9.958   6.028  69.325  1.00  0.00    -0.163 C  
HETATM   36  H   UNL     3     -10.656   5.207  67.718  1.00  0.00     0.000 HD 
HETATM   37  O   UNL     3     -10.763   6.053  68.138  1.00  0.00    -0.242 OA 
BRANCH  35  38
HETATM   38  C   UNL     3      -8.529   5.578  69.045  1.00  0.00    -0.101 C  
HETATM   39  C   UNL     3      -8.479   4.050  68.779  1.00  0.00    -0.082 C  
HETATM   40  O   UNL     3      -7.667   5.878  70.161  1.00  0.00    -0.091 OA 
HETATM   41  O   UNL     3      -9.600   3.452  68.750  1.00  0.00    -0.158 OA 
HETATM   42  O   UNL     3      -7.319   3.559  68.857  1.00  0.00    -0.049 OA 
HETATM   43  H   UNL     3      -6.776   5.597  69.986  1.00  0.00     0.000 HD 
ENDBRANCH  35  38
ENDBRANCH  32  35
ENDBRANCH  29  32
ENDBRANCH  26  29
ENDBRANCH   6  26
TORSDOF 10
ENDMDL
MODEL      183
REMARK 921   NORMALIZED FREE ENERGY PREDICTED BY IDOCK:   -5.59 KCAL/MOL
REMARK 922        TOTAL FREE ENERGY PREDICTED BY IDOCK:  -11.37 KCAL/MOL
REMARK 923 INTER-LIGAND FREE ENERGY PREDICTED BY IDOCK:  -10.05 KCAL/MOL
REMARK 924 INTRA-LIGAND FREE ENERGY PREDICTED BY IDOCK:   -1.32 KCAL/MOL
REMARK 927      BINDING AFFINITY PREDICTED BY RF-SCORE:    0.00 PKD
ROOT
HETATM    1 CA   UNL     1      -9.731  14.348  70.004  1.00  0.00    -0.389 Ca 
HETATM    2  O   UNL     2      -7.928   8.902  70.117  1.00  0.00    -0.093 OA 
HETATM    3  O   UNL     3     -10.217  19.116  65.931  1.00  0.00    -0.462 OA 
HETATM    4  H   UNL     2      -7.087   8.988  70.551  1.00  0.00     0.000 HD 
HETATM    5  C   UNL     2      -8.493  10.201  69.945  1.00  0.00    -0.081 C  
HETATM    6  C   UNL     3      -9.359  18.599  66.945  1.00  0.00    -0.304 C  
HETATM    7  H   UNL     3     -10.417  20.028  66.105  1.00  0.00     0.000 HD 
ENDROOT
BRANCH   5   8
HETATM    8  C   UNL     2      -9.858  10.063  69.239  1.00  0.00    -0.214 C  
HETATM    9  O   UNL     2     -10.033   8.696  68.880  1.00  0.00    -0.179 OA 
HETATM   10  H   UNL     2     -10.873   8.611  68.445  1.00  0.00     0.000 HD 
BRANCH   8  11
HETATM   11  C   UNL     2     -11.012  10.461  70.173  1.00  0.00    -0.300 C  
HETATM   12  H   UNL     2     -12.268  12.007  70.442  1.00  0.00     0.000 HD 
HETATM   13  O   UNL     2     -11.554  11.760  69.865  1.00  0.00    -0.299 OA 
BRANCH  11  14
HETATM   14  C   UNL     2     -12.183   9.474  70.406  1.00  0.00     0.060 C  
HETATM   15  O   UNL     2     -13.420  10.166  70.354  1.00  0.00    -0.520 OA 
HETATM   16  H   UNL     2     -14.138   9.561  70.497  1.00  0.00     0.000 HD 
BRANCH  14  17
HETATM   17  C   UNL     2     -12.053   8.457  71.556  1.00  0.00    -0.301 C  
HETATM   18  H   UNL     2     -12.964   8.170  73.260  1.00  0.00     0.000 HD 
HETATM   19  O   UNL     2     -13.044   8.797  72.550  1.00  0.00    -0.401 OA 
BRANCH  17  20
HETATM   20  C   UNL     2     -12.132   6.983  71.158  1.00  0.00    -0.369 C  
HETATM   21  O   UNL     2     -12.221   6.826  69.725  1.00  0.00    -0.610 OA 
HETATM   22  C   UNL     2     -10.842   6.289  71.678  1.00  0.00    -0.251 C  
HETATM   23  H   UNL     2     -12.270   5.910  69.478  1.00  0.00     0.000 HD 
HETATM   24  O   UNL     2     -10.474   6.672  72.821  1.00  0.00    -0.198 OA 
HETATM   25  O   UNL     2     -10.351   5.466  70.859  1.00  0.00    -0.222 OA 
ENDBRANCH  17  20
ENDBRANCH  14  17
ENDBRANCH  11  14
ENDBRANCH   8  11
ENDBRANCH   5   8
BRANCH   6  26
HETATM   26  C   UNL     3      -9.036  17.124  66.664  1.00  0.00    -0.258 C  
HETATM   27  H   UNL     3      -8.198  15.713  67.658  1.00  0.00     0.000 HD 
HETATM   28  O   UNL     3      -8.397  16.625  67.832  1.00  0.00    -0.180 OA 
BRANCH  26  29
HETATM   29  C   UNL     3     -10.295  16.313  66.259  1.00  0.00    -0.326 C  
HETATM   30  O   UNL     3     -10.551  16.507  64.799  1.00  0.00    -0.684 OA 
HETATM   31  H   UNL     3     -11.322  16.010  64.552  1.00  0.00     0.000 HD 
BRANCH  29  32
HETATM   32  C   UNL     3     -10.125  14.782  66.365  1.00  0.00    -0.280 C  
HETATM   33  H   UNL     3      -9.435  13.378  65.168  1.00  0.00     0.000 HD 
HETATM   34  O   UNL     3      -9.541  14.320  65.103  1.00  0.00    -0.071 OA 
BRANCH  32  35
HETATM   35  C   UNL     3     -11.147  13.820  66.990  1.00  0.00    -0.302 C  
HETATM   36  H   UNL     3     -12.894  14.024  67.794  1.00  0.00     0.000 HD 
HETATM   37  O   UNL     3     -12.261  14.619  67.408  1.00  0.00    -0.289 OA 
BRANCH  35  38
HETATM   38  C   UNL     3     -11.575  12.628  66.141  1.00  0.00    -0.393 C  
HETATM   39  C   UNL     3     -12.572  13.073  65.039  1.00  0.00    -0.454 C  
HETATM   40  O   UNL     3     -12.206  11.618  66.952  1.00  0.00    -0.282 OA 
HETATM   41  O   UNL     3     -12.801  14.321  64.964  1.00  0.00    -0.674 OA 
HETATM   42  O   UNL     3     -13.206  12.116  64.513  1.00  0.00    -0.724 OA 
HETATM   43  H   UNL     3     -12.473  10.875  66.423  1.00  0.00     0.000 HD 
ENDBRANCH  35  38
ENDBRANCH  32  35
ENDBRANCH  29  32
ENDBRANCH  26  29
ENDBRANCH   6  26
TORSDOF 10
ENDMDL
MODEL      184
REMARK 921   NORMALIZED FREE ENERGY PREDICTED BY IDOCK:   -5.59 KCAL/MOL
REMARK 922        TOTAL FREE ENERGY PREDICTED BY IDOCK:  -11.36 KCAL/MOL
REMARK 923 INTER-LIGAND FREE ENERGY PREDICTED BY IDOCK:   -9.10 KCAL/MOL
REMARK 924 INTRA-LIGAND FREE ENERGY PREDICTED BY IDOCK:   -2.26 KCAL/MOL
REMARK 927      BINDING AFFINITY PREDICTED BY RF-SCORE:    0.00 PKD
ROOT
HETATM    1 CA   UNL     1     -11.592   8.238  67.257  1.00  0.00    -0.483 Ca 
HETATM    2  O   UNL     2      -7.352  10.483  64.110  1.00  0.00    -0.328 OA 
HETATM    3  O   UNL     3     -14.366   9.129  72.830  1.00  0.00    -1.006 OA 
HETATM    4  H   UNL     2      -6.659   9.846  64.239  1.00  0.00     0.000 HD 
HETATM    5  C   UNL     2      -8.481  10.103  64.895  1.00  0.00    -0.172 C  
HETATM    6  C   UNL     3     -13.361   8.340  72.199  1.00  0.00    -0.267 C  
HETATM    7  H   UNL     3     -14.987   8.569  73.282  1.00  0.00     0.000 HD 
ENDROOT
BRANCH   5   8
HETATM    8  C   UNL     2      -9.606  11.138  64.685  1.00  0.00    -0.250 C  
HETATM    9  O   UNL     2     -10.526  10.605  63.739  1.00  0.00    -0.485 OA 
HETATM   10  H   UNL     2     -11.219  11.243  63.610  1.00  0.00     0.000 HD 
BRANCH   8  11
HETATM   11  C   UNL     2     -10.369  11.406  65.993  1.00  0.00    -0.249 C  
HETATM   12  H   UNL     2     -10.243  10.916  67.938  1.00  0.00     0.000 HD 
HETATM   13  O   UNL     2      -9.772  10.751  67.129  1.00  0.00    -0.167 OA 
BRANCH  11  14
HETATM   14  C   UNL     2     -10.726  12.860  66.385  1.00  0.00    -0.270 C  
HETATM   15  O   UNL     2      -9.576  13.685  66.293  1.00  0.00    -0.309 OA 
HETATM   16  H   UNL     2      -9.796  14.578  66.534  1.00  0.00     0.000 HD 
BRANCH  14  17
HETATM   17  C   UNL     2     -11.585  13.079  67.646  1.00  0.00    -0.355 C  
HETATM   18  H   UNL     2     -12.885  12.010  68.637  1.00  0.00     0.000 HD 
HETATM   19  O   UNL     2     -12.356  11.876  67.859  1.00  0.00    -0.367 OA 
BRANCH  17  20
HETATM   20  C   UNL     2     -10.828  13.498  68.906  1.00  0.00    -0.224 C  
HETATM   21  O   UNL     2      -9.458  13.042  68.878  1.00  0.00    -0.399 OA 
HETATM   22  C   UNL     2     -10.858  15.051  68.974  1.00  0.00    -0.242 C  
HETATM   23  H   UNL     2      -8.988  13.303  69.661  1.00  0.00     0.000 HD 
HETATM   24  O   UNL     2     -11.958  15.562  68.633  1.00  0.00    -0.335 OA 
HETATM   25  O   UNL     2      -9.763  15.557  69.338  1.00  0.00    -0.250 OA 
ENDBRANCH  17  20
ENDBRANCH  14  17
ENDBRANCH  11  14
ENDBRANCH   8  11
ENDBRANCH   5   8
BRANCH   6  26
HETATM   26  C   UNL     3     -12.359   9.245  71.469  1.00  0.00    -0.360 C  
HETATM   27  H   UNL     3     -12.073  11.141  71.373  1.00  0.00     0.000 HD 
HETATM   28  O   UNL     3     -12.693  10.581  71.824  1.00  0.00    -0.420 OA 
BRANCH  26  29
HETATM   29  C   UNL     3     -10.887   8.875  71.794  1.00  0.00    -0.365 C  
HETATM   30  O   UNL     3     -10.869   7.615  72.599  1.00  0.00    -0.279 OA 
HETATM   31  H   UNL     3      -9.968   7.388  72.797  1.00  0.00     0.000 HD 
BRANCH  29  32
HETATM   32  C   UNL     3     -10.042   8.492  70.560  1.00  0.00    -0.192 C  
HETATM   33  H   UNL     3     -10.381   8.399  68.621  1.00  0.00     0.000 HD 
HETATM   34  O   UNL     3     -10.901   8.634  69.381  1.00  0.00    -0.197 OA 
BRANCH  32  35
HETATM   35  C   UNL     3      -9.054   7.317  70.496  1.00  0.00    -0.158 C  
HETATM   36  H   UNL     3      -7.687   6.622  71.675  1.00  0.00     0.000 HD 
HETATM   37  O   UNL     3      -8.299   7.349  71.714  1.00  0.00    -0.106 OA 
BRANCH  35  38
HETATM   38  C   UNL     3      -9.644   5.939  70.217  1.00  0.00    -0.163 C  
HETATM   39  C   UNL     3      -9.144   5.397  68.852  1.00  0.00    -0.118 C  
HETATM   40  O   UNL     3     -11.084   5.991  70.191  1.00  0.00    -0.338 OA 
HETATM   41  O   UNL     3      -8.290   6.116  68.245  1.00  0.00    -0.113 OA 
HETATM   42  O   UNL     3      -9.824   4.429  68.410  1.00  0.00    -0.137 OA 
HETATM   43  H   UNL     3     -11.452   5.133  70.017  1.00  0.00     0.000 HD 
ENDBRANCH  35  38
ENDBRANCH  32  35
ENDBRANCH  29  32
ENDBRANCH  26  29
ENDBRANCH   6  26
TORSDOF 10
ENDMDL
MODEL      185
REMARK 921   NORMALIZED FREE ENERGY PREDICTED BY IDOCK:   -5.59 KCAL/MOL
REMARK 922        TOTAL FREE ENERGY PREDICTED BY IDOCK:  -11.36 KCAL/MOL
REMARK 923 INTER-LIGAND FREE ENERGY PREDICTED BY IDOCK:   -9.71 KCAL/MOL
REMARK 924 INTRA-LIGAND FREE ENERGY PREDICTED BY IDOCK:   -1.65 KCAL/MOL
REMARK 927      BINDING AFFINITY PREDICTED BY RF-SCORE:    0.00 PKD
ROOT
HETATM    1 CA   UNL     1      -9.019  11.015  70.016  1.00  0.00    -0.378 Ca 
HETATM    2  O   UNL     2      -7.306   7.613  65.725  1.00  0.00    -0.067 OA 
HETATM    3  O   UNL     3     -12.761  15.983  70.945  1.00  0.00    -0.549 OA 
HETATM    4  H   UNL     2      -6.433   7.946  65.552  1.00  0.00     0.000 HD 
HETATM    5  C   UNL     2      -7.911   8.408  66.742  1.00  0.00    -0.098 C  
HETATM    6  C   UNL     3     -11.397  15.643  70.716  1.00  0.00    -0.371 C  
HETATM    7  H   UNL     3     -12.837  16.534  71.714  1.00  0.00     0.000 HD 
ENDROOT
BRANCH   5   8
HETATM    8  C   UNL     2      -9.329   7.867  67.022  1.00  0.00    -0.160 C  
HETATM    9  O   UNL     2      -9.547   6.742  66.177  1.00  0.00    -0.368 OA 
HETATM   10  H   UNL     2     -10.421   6.409  66.349  1.00  0.00     0.000 HD 
BRANCH   8  11
HETATM   11  C   UNL     2      -9.473   7.403  68.480  1.00  0.00    -0.144 C  
HETATM   12  H   UNL     2      -8.609   7.746  70.262  1.00  0.00     0.000 HD 
HETATM   13  O   UNL     2      -8.521   8.033  69.361  1.00  0.00    -0.129 OA 
BRANCH  11  14
HETATM   14  C   UNL     2     -10.866   7.422  69.156  1.00  0.00    -0.111 C  
HETATM   15  O   UNL     2     -11.183   8.738  69.578  1.00  0.00    -0.436 OA 
HETATM   16  H   UNL     2     -12.038   8.750  69.993  1.00  0.00     0.000 HD 
BRANCH  14  17
HETATM   17  C   UNL     2     -11.190   6.314  70.176  1.00  0.00    -0.403 C  
HETATM   18  H   UNL     2     -10.590   4.477  70.462  1.00  0.00     0.000 HD 
HETATM   19  O   UNL     2     -10.390   5.161  69.833  1.00  0.00    -0.279 OA 
BRANCH  17  20
HETATM   20  C   UNL     2     -11.034   6.694  71.648  1.00  0.00    -0.241 C  
HETATM   21  O   UNL     2      -9.798   7.404  71.884  1.00  0.00    -0.162 OA 
HETATM   22  C   UNL     2     -12.237   7.604  72.026  1.00  0.00    -0.293 C  
HETATM   23  H   UNL     2      -9.701   7.640  72.799  1.00  0.00     0.000 HD 
HETATM   24  O   UNL     2     -13.334   7.244  71.524  1.00  0.00    -0.379 OA 
HETATM   25  O   UNL     2     -11.916   8.577  72.760  1.00  0.00    -0.335 OA 
ENDBRANCH  17  20
ENDBRANCH  14  17
ENDBRANCH  11  14
ENDBRANCH   8  11
ENDBRANCH   5   8
BRANCH   6  26
HETATM   26  C   UNL     3     -11.275  14.751  69.472  1.00  0.00    -0.278 C  
HETATM   27  H   UNL     3     -12.132  13.141  68.875  1.00  0.00     0.000 HD 
HETATM   28  O   UNL     3     -12.208  13.693  69.645  1.00  0.00    -0.314 OA 
BRANCH  26  29
HETATM   29  C   UNL     3     -11.486  15.546  68.156  1.00  0.00    -0.326 C  
HETATM   30  O   UNL     3     -10.969  16.937  68.339  1.00  0.00    -0.356 OA 
HETATM   31  H   UNL     3     -11.098  17.423  67.534  1.00  0.00     0.000 HD 
BRANCH  29  32
HETATM   32  C   UNL     3     -10.646  15.035  66.965  1.00  0.00    -0.293 C  
HETATM   33  H   UNL     3      -8.728  15.045  66.514  1.00  0.00     0.000 HD 
HETATM   34  O   UNL     3      -9.245  15.360  67.247  1.00  0.00    -0.199 OA 
BRANCH  32  35
HETATM   35  C   UNL     3     -11.047  15.152  65.486  1.00  0.00    -0.345 C  
HETATM   36  H   UNL     3     -10.885  16.527  64.136  1.00  0.00     0.000 HD 
HETATM   37  O   UNL     3     -10.637  16.454  65.051  1.00  0.00    -0.651 OA 
BRANCH  35  38
HETATM   38  C   UNL     3     -10.558  14.049  64.554  1.00  0.00    -0.309 C  
HETATM   39  C   UNL     3     -11.741  13.450  63.748  1.00  0.00    -0.376 C  
HETATM   40  O   UNL     3      -9.926  12.989  65.298  1.00  0.00    -0.419 OA 
HETATM   41  O   UNL     3     -12.871  14.006  63.919  1.00  0.00    -0.527 OA 
HETATM   42  O   UNL     3     -11.476  12.342  63.206  1.00  0.00    -0.417 OA 
HETATM   43  H   UNL     3      -9.621  12.301  64.717  1.00  0.00     0.000 HD 
ENDBRANCH  35  38
ENDBRANCH  32  35
ENDBRANCH  29  32
ENDBRANCH  26  29
ENDBRANCH   6  26
TORSDOF 10
ENDMDL
MODEL      186
REMARK 921   NORMALIZED FREE ENERGY PREDICTED BY IDOCK:   -5.59 KCAL/MOL
REMARK 922        TOTAL FREE ENERGY PREDICTED BY IDOCK:  -11.36 KCAL/MOL
REMARK 923 INTER-LIGAND FREE ENERGY PREDICTED BY IDOCK:  -10.34 KCAL/MOL
REMARK 924 INTRA-LIGAND FREE ENERGY PREDICTED BY IDOCK:   -1.02 KCAL/MOL
REMARK 927      BINDING AFFINITY PREDICTED BY RF-SCORE:    0.00 PKD
ROOT
HETATM    1 CA   UNL     1     -11.600   8.347  66.857  1.00  0.00    -0.314 Ca 
HETATM    2  O   UNL     2      -7.660  10.774  63.464  1.00  0.00    -0.352 OA 
HETATM    3  O   UNL     3     -13.952   9.017  72.651  1.00  0.00    -0.676 OA 
HETATM    4  H   UNL     2      -6.947  10.149  63.520  1.00  0.00     0.000 HD 
HETATM    5  C   UNL     2      -8.718  10.347  64.321  1.00  0.00    -0.196 C  
HETATM    6  C   UNL     3     -12.984   8.269  71.921  1.00  0.00    -0.347 C  
HETATM    7  H   UNL     3     -14.525   8.431  73.132  1.00  0.00     0.000 HD 
ENDROOT
BRANCH   5   8
HETATM    8  C   UNL     2      -9.876  11.363  64.230  1.00  0.00    -0.261 C  
HETATM    9  O   UNL     2     -10.703  10.993  63.131  1.00  0.00    -0.752 OA 
HETATM   10  H   UNL     2     -11.416  11.619  63.075  1.00  0.00     0.000 HD 
BRANCH   8  11
HETATM   11  C   UNL     2     -10.738  11.343  65.503  1.00  0.00    -0.253 C  
HETATM   12  H   UNL     2     -10.629  10.647  67.385  1.00  0.00     0.000 HD 
HETATM   13  O   UNL     2     -10.097  10.659  66.598  1.00  0.00    -0.205 OA 
BRANCH  11  14
HETATM   14  C   UNL     2     -11.354  12.662  66.030  1.00  0.00    -0.327 C  
HETATM   15  O   UNL     2     -11.982  12.439  67.282  1.00  0.00    -0.516 OA 
HETATM   16  H   UNL     2     -12.360  13.249  67.605  1.00  0.00     0.000 HD 
BRANCH  14  17
HETATM   17  C   UNL     2     -12.158  13.530  65.043  1.00  0.00    -0.397 C  
HETATM   18  H   UNL     2     -13.818  14.554  65.135  1.00  0.00     0.000 HD 
HETATM   19  O   UNL     2     -13.322  14.019  65.744  1.00  0.00    -0.543 OA 
BRANCH  17  20
HETATM   20  C   UNL     2     -11.387  14.662  64.365  1.00  0.00    -0.227 C  
HETATM   21  O   UNL     2     -12.265  15.514  63.597  1.00  0.00    -0.927 OA 
HETATM   22  C   UNL     2     -10.700  15.495  65.483  1.00  0.00    -0.381 C  
HETATM   23  H   UNL     2     -11.785  16.218  63.175  1.00  0.00     0.000 HD 
HETATM   24  O   UNL     2     -10.220  14.805  66.421  1.00  0.00    -0.274 OA 
HETATM   25  O   UNL     2     -10.755  16.739  65.286  1.00  0.00    -0.576 OA 
ENDBRANCH  17  20
ENDBRANCH  14  17
ENDBRANCH  11  14
ENDBRANCH   8  11
ENDBRANCH   5   8
BRANCH   6  26
HETATM   26  C   UNL     3     -12.058   9.216  71.144  1.00  0.00    -0.299 C  
HETATM   27  H   UNL     3     -12.016  11.110  70.835  1.00  0.00     0.000 HD 
HETATM   28  O   UNL     3     -12.589  10.524  71.316  1.00  0.00    -0.352 OA 
BRANCH  26  29
HETATM   29  C   UNL     3     -10.578   9.092  71.593  1.00  0.00    -0.364 C  
HETATM   30  O   UNL     3     -10.506   8.195  72.788  1.00  0.00    -0.322 OA 
HETATM   31  H   UNL     3      -9.600   8.119  73.062  1.00  0.00     0.000 HD 
BRANCH  29  32
HETATM   32  C   UNL     3      -9.667   8.367  70.579  1.00  0.00    -0.173 C  
HETATM   33  H   UNL     3      -8.389   8.950  69.198  1.00  0.00     0.000 HD 
HETATM   34  O   UNL     3      -8.950   9.396  69.822  1.00  0.00    -0.158 OA 
BRANCH  32  35
HETATM   35  C   UNL     3     -10.065   7.128  69.762  1.00  0.00    -0.195 C  
HETATM   36  H   UNL     3     -10.426   6.790  67.892  1.00  0.00     0.000 HD 
HETATM   37  O   UNL     3     -10.180   7.555  68.398  1.00  0.00    -0.176 OA 
BRANCH  35  38
HETATM   38  C   UNL     3      -9.179   5.896  69.909  1.00  0.00    -0.146 C  
HETATM   39  C   UNL     3      -9.681   4.998  71.070  1.00  0.00    -0.184 C  
HETATM   40  O   UNL     3      -7.814   6.272  70.177  1.00  0.00    -0.102 OA 
HETATM   41  O   UNL     3     -10.757   5.368  71.638  1.00  0.00    -0.236 OA 
HETATM   42  O   UNL     3      -8.834   4.146  71.456  1.00  0.00    -0.107 OA 
HETATM   43  H   UNL     3      -7.262   5.504  70.269  1.00  0.00     0.000 HD 
ENDBRANCH  35  38
ENDBRANCH  32  35
ENDBRANCH  29  32
ENDBRANCH  26  29
ENDBRANCH   6  26
TORSDOF 10
ENDMDL
MODEL      187
REMARK 921   NORMALIZED FREE ENERGY PREDICTED BY IDOCK:   -5.58 KCAL/MOL
REMARK 922        TOTAL FREE ENERGY PREDICTED BY IDOCK:  -11.35 KCAL/MOL
REMARK 923 INTER-LIGAND FREE ENERGY PREDICTED BY IDOCK:   -9.28 KCAL/MOL
REMARK 924 INTRA-LIGAND FREE ENERGY PREDICTED BY IDOCK:   -2.07 KCAL/MOL
REMARK 927      BINDING AFFINITY PREDICTED BY RF-SCORE:    0.00 PKD
ROOT
HETATM    1 CA   UNL     1      -8.914  14.159  65.328  1.00  0.00    -0.477 Ca 
HETATM    2  O   UNL     2     -12.284  10.485  68.168  1.00  0.00    -0.644 OA 
HETATM    3  O   UNL     3      -6.023  19.664  66.269  1.00  0.00    -0.168 OA 
HETATM    4  H   UNL     2     -13.136  10.675  67.790  1.00  0.00     0.000 HD 
HETATM    5  C   UNL     2     -11.322  11.377  67.607  1.00  0.00    -0.290 C  
HETATM    6  C   UNL     3      -7.214  19.111  65.716  1.00  0.00    -0.248 C  
HETATM    7  H   UNL     3      -5.598  20.229  65.634  1.00  0.00     0.000 HD 
ENDROOT
BRANCH   5   8
HETATM    8  C   UNL     2      -9.939  11.068  68.220  1.00  0.00    -0.179 C  
HETATM    9  O   UNL     2      -9.671  12.046  69.219  1.00  0.00    -0.327 OA 
HETATM   10  H   UNL     2      -8.820  11.856  69.597  1.00  0.00     0.000 HD 
BRANCH   8  11
HETATM   11  C   UNL     2      -9.921   9.684  68.889  1.00  0.00    -0.178 C  
HETATM   12  H   UNL     2      -9.011   7.909  68.651  1.00  0.00     0.000 HD 
HETATM   13  O   UNL     2      -9.022   8.764  68.238  1.00  0.00    -0.140 OA 
BRANCH  11  14
HETATM   14  C   UNL     2      -9.721   9.578  70.421  1.00  0.00    -0.271 C  
HETATM   15  O   UNL     2      -8.590   8.772  70.709  1.00  0.00    -0.150 OA 
HETATM   16  H   UNL     2      -8.468   8.707  71.649  1.00  0.00     0.000 HD 
BRANCH  14  17
HETATM   17  C   UNL     2     -10.960   9.299  71.293  1.00  0.00    -0.351 C  
HETATM   18  H   UNL     2     -12.566  10.299  71.778  1.00  0.00     0.000 HD 
HETATM   19  O   UNL     2     -11.802  10.472  71.240  1.00  0.00    -0.328 OA 
BRANCH  17  20
HETATM   20  C   UNL     2     -11.738   8.026  70.962  1.00  0.00    -0.277 C  
HETATM   21  O   UNL     2     -11.239   7.397  69.761  1.00  0.00    -0.410 OA 
HETATM   22  C   UNL     2     -11.578   7.053  72.164  1.00  0.00    -0.282 C  
HETATM   23  H   UNL     2     -11.723   6.606  69.555  1.00  0.00     0.000 HD 
HETATM   24  O   UNL     2     -11.627   7.613  73.292  1.00  0.00    -0.212 OA 
HETATM   25  O   UNL     2     -11.398   5.855  71.817  1.00  0.00    -0.273 OA 
ENDBRANCH  17  20
ENDBRANCH  14  17
ENDBRANCH  11  14
ENDBRANCH   8  11
ENDBRANCH   5   8
BRANCH   6  26
HETATM   26  C   UNL     3      -7.900  18.198  66.743  1.00  0.00    -0.235 C  
HETATM   27  H   UNL     3      -7.644  17.835  68.610  1.00  0.00     0.000 HD 
HETATM   28  O   UNL     3      -7.219  18.399  67.975  1.00  0.00    -0.230 OA 
BRANCH  26  29
HETATM   29  C   UNL     3      -9.426  18.461  66.836  1.00  0.00    -0.291 C  
HETATM   30  O   UNL     3     -10.062  18.102  65.530  1.00  0.00    -0.488 OA 
HETATM   31  H   UNL     3     -10.996  18.263  65.587  1.00  0.00     0.000 HD 
BRANCH  29  32
HETATM   32  C   UNL     3     -10.169  17.541  67.829  1.00  0.00    -0.349 C  
HETATM   33  H   UNL     3     -10.831  17.740  69.674  1.00  0.00     0.000 HD 
HETATM   34  O   UNL     3     -10.374  18.305  69.062  1.00  0.00    -0.320 OA 
BRANCH  32  35
HETATM   35  C   UNL     3      -9.874  16.048  68.041  1.00  0.00    -0.222 C  
HETATM   36  H   UNL     3      -8.960  15.020  69.401  1.00  0.00     0.000 HD 
HETATM   37  O   UNL     3      -9.142  15.944  69.269  1.00  0.00    -0.241 OA 
BRANCH  35  38
HETATM   38  C   UNL     3     -11.067  15.100  67.996  1.00  0.00    -0.308 C  
HETATM   39  C   UNL     3     -11.563  14.914  66.538  1.00  0.00    -0.252 C  
HETATM   40  O   UNL     3     -12.158  15.607  68.790  1.00  0.00    -0.559 OA 
HETATM   41  O   UNL     3     -10.873  15.487  65.636  1.00  0.00    -0.334 OA 
HETATM   42  O   UNL     3     -12.718  14.413  66.454  1.00  0.00    -0.242 OA 
HETATM   43  H   UNL     3     -12.902  15.017  68.762  1.00  0.00     0.000 HD 
ENDBRANCH  35  38
ENDBRANCH  32  35
ENDBRANCH  29  32
ENDBRANCH  26  29
ENDBRANCH   6  26
TORSDOF 10
ENDMDL
MODEL      188
REMARK 921   NORMALIZED FREE ENERGY PREDICTED BY IDOCK:   -5.57 KCAL/MOL
REMARK 922        TOTAL FREE ENERGY PREDICTED BY IDOCK:  -11.32 KCAL/MOL
REMARK 923 INTER-LIGAND FREE ENERGY PREDICTED BY IDOCK:   -9.16 KCAL/MOL
REMARK 924 INTRA-LIGAND FREE ENERGY PREDICTED BY IDOCK:   -2.16 KCAL/MOL
REMARK 927      BINDING AFFINITY PREDICTED BY RF-SCORE:    0.00 PKD
ROOT
HETATM    1 CA   UNL     1     -11.632  12.885  69.341  1.00  0.00    -0.214 Ca 
HETATM    2  O   UNL     2     -12.492  14.464  63.893  1.00  0.00    -0.911 OA 
HETATM    3  O   UNL     3      -9.753   7.840  72.592  1.00  0.00    -0.179 OA 
HETATM    4  H   UNL     2     -13.439  14.421  63.828  1.00  0.00     0.000 HD 
HETATM    5  C   UNL     2     -12.099  14.029  65.193  1.00  0.00    -0.410 C  
HETATM    6  C   UNL     3     -10.933   8.504  72.149  1.00  0.00    -0.357 C  
HETATM    7  H   UNL     3      -9.795   7.686  73.529  1.00  0.00     0.000 HD 
ENDROOT
BRANCH   5   8
HETATM    8  C   UNL     2     -10.560  14.099  65.299  1.00  0.00    -0.373 C  
HETATM    9  O   UNL     2     -10.010  13.519  64.121  1.00  0.00    -0.766 OA 
HETATM   10  H   UNL     2      -9.062  13.562  64.186  1.00  0.00     0.000 HD 
BRANCH   8  11
HETATM   11  C   UNL     2     -10.073  15.555  65.386  1.00  0.00    -0.352 C  
HETATM   12  H   UNL     2     -10.597  17.364  64.685  1.00  0.00     0.000 HD 
HETATM   13  O   UNL     2     -10.899  16.464  64.632  1.00  0.00    -0.717 OA 
BRANCH  11  14
HETATM   14  C   UNL     2      -9.777  16.180  66.771  1.00  0.00    -0.242 C  
HETATM   15  O   UNL     2     -10.986  16.366  67.488  1.00  0.00    -0.285 OA 
HETATM   16  H   UNL     2     -10.804  16.751  68.339  1.00  0.00     0.000 HD 
BRANCH  14  17
HETATM   17  C   UNL     2      -8.793  17.364  66.833  1.00  0.00    -0.242 C  
HETATM   18  H   UNL     2      -7.212  17.906  65.822  1.00  0.00     0.000 HD 
HETATM   19  O   UNL     2      -7.819  17.176  65.783  1.00  0.00    -0.449 OA 
BRANCH  17  20
HETATM   20  C   UNL     2      -9.419  18.758  66.782  1.00  0.00    -0.319 C  
HETATM   21  O   UNL     2     -10.833  18.692  66.496  1.00  0.00    -0.290 OA 
HETATM   22  C   UNL     2      -9.200  19.420  68.172  1.00  0.00    -0.336 C  
HETATM   23  H   UNL     2     -11.222  19.559  66.464  1.00  0.00     0.000 HD 
HETATM   24  O   UNL     2      -8.069  19.195  68.679  1.00  0.00    -0.349 OA 
HETATM   25  O   UNL     2     -10.204  20.060  68.585  1.00  0.00    -0.437 OA 
ENDBRANCH  17  20
ENDBRANCH  14  17
ENDBRANCH  11  14
ENDBRANCH   8  11
ENDBRANCH   5   8
BRANCH   6  26
HETATM   26  C   UNL     3     -10.866   8.752  70.636  1.00  0.00    -0.232 C  
HETATM   27  H   UNL     3     -11.659  10.025  69.439  1.00  0.00     0.000 HD 
HETATM   28  O   UNL     3     -11.701   9.872  70.376  1.00  0.00    -0.262 OA 
BRANCH  26  29
HETATM   29  C   UNL     3      -9.410   8.943  70.135  1.00  0.00    -0.180 C  
HETATM   30  O   UNL     3      -9.068   7.829  69.198  1.00  0.00    -0.145 OA 
HETATM   31  H   UNL     3      -8.176   7.946  68.891  1.00  0.00     0.000 HD 
BRANCH  29  32
HETATM   32  C   UNL     3      -9.200  10.193  69.255  1.00  0.00    -0.208 C  
HETATM   33  H   UNL     3      -9.744  10.715  67.435  1.00  0.00     0.000 HD 
HETATM   34  O   UNL     3      -9.872   9.945  67.976  1.00  0.00    -0.143 OA 
BRANCH  32  35
HETATM   35  C   UNL     3      -7.890  10.989  69.147  1.00  0.00    -0.091 C  
HETATM   36  H   UNL     3      -6.149  10.648  68.377  1.00  0.00     0.000 HD 
HETATM   37  O   UNL     3      -6.960  10.156  68.444  1.00  0.00    -0.065 OA 
BRANCH  35  38
HETATM   38  C   UNL     3      -7.985  12.387  68.546  1.00  0.00    -0.110 C  
HETATM   39  C   UNL     3      -7.053  13.371  69.301  1.00  0.00     0.060 C  
HETATM   40  O   UNL     3      -9.335  12.887  68.615  1.00  0.00    -0.385 OA 
HETATM   41  O   UNL     3      -6.323  12.863  70.209  1.00  0.00    -0.049 OA 
HETATM   42  O   UNL     3      -7.310  14.586  69.077  1.00  0.00    -0.122 OA 
HETATM   43  H   UNL     3      -9.393  13.759  68.240  1.00  0.00     0.000 HD 
ENDBRANCH  35  38
ENDBRANCH  32  35
ENDBRANCH  29  32
ENDBRANCH  26  29
ENDBRANCH   6  26
TORSDOF 10
ENDMDL
MODEL      189
REMARK 921   NORMALIZED FREE ENERGY PREDICTED BY IDOCK:   -5.57 KCAL/MOL
REMARK 922        TOTAL FREE ENERGY PREDICTED BY IDOCK:  -11.32 KCAL/MOL
REMARK 923 INTER-LIGAND FREE ENERGY PREDICTED BY IDOCK:   -9.13 KCAL/MOL
REMARK 924 INTRA-LIGAND FREE ENERGY PREDICTED BY IDOCK:   -2.19 KCAL/MOL
REMARK 927      BINDING AFFINITY PREDICTED BY RF-SCORE:    0.00 PKD
ROOT
HETATM    1 CA   UNL     1      -9.008  14.540  69.725  1.00  0.00    -0.339 Ca 
HETATM    2  O   UNL     2      -6.102   9.595  69.899  1.00  0.00    -0.039 OA 
HETATM    3  O   UNL     3     -10.232  19.200  65.683  1.00  0.00    -0.485 OA 
HETATM    4  H   UNL     2      -5.328   9.845  70.390  1.00  0.00     0.000 HD 
HETATM    5  C   UNL     2      -6.918  10.750  69.704  1.00  0.00    -0.134 C  
HETATM    6  C   UNL     3      -9.350  18.849  66.746  1.00  0.00    -0.322 C  
HETATM    7  H   UNL     3     -10.631  20.045  65.853  1.00  0.00     0.000 HD 
ENDROOT
BRANCH   5   8
HETATM    8  C   UNL     2      -8.175  10.345  68.906  1.00  0.00    -0.132 C  
HETATM    9  O   UNL     2      -9.180  11.326  69.137  1.00  0.00    -0.397 OA 
HETATM   10  H   UNL     2      -9.954  11.076  68.645  1.00  0.00     0.000 HD 
BRANCH   8  11
HETATM   11  C   UNL     2      -7.888  10.302  67.396  1.00  0.00    -0.102 C  
HETATM   12  H   UNL     2      -6.375   9.827  66.163  1.00  0.00     0.000 HD 
HETATM   13  O   UNL     2      -6.552   9.853  67.096  1.00  0.00    -0.069 OA 
BRANCH  11  14
HETATM   14  C   UNL     2      -8.881   9.584  66.449  1.00  0.00    -0.144 C  
HETATM   15  O   UNL     2     -10.125   9.394  67.103  1.00  0.00    -0.198 OA 
HETATM   16  H   UNL     2     -10.734   8.953  66.522  1.00  0.00     0.000 HD 
BRANCH  14  17
HETATM   17  C   UNL     2      -8.370   8.368  65.654  1.00  0.00    -0.154 C  
HETATM   18  H   UNL     2      -8.798   6.462  65.612  1.00  0.00     0.000 HD 
HETATM   19  O   UNL     2      -9.113   7.213  66.103  1.00  0.00    -0.166 OA 
BRANCH  17  20
HETATM   20  C   UNL     2      -8.397   8.503  64.132  1.00  0.00    -0.095 C  
HETATM   21  O   UNL     2      -9.346   9.506  63.707  1.00  0.00    -0.416 OA 
HETATM   22  C   UNL     2      -6.968   8.912  63.674  1.00  0.00    -0.088 C  
HETATM   23  H   UNL     2      -9.363   9.590  62.761  1.00  0.00     0.000 HD 
HETATM   24  O   UNL     2      -6.040   8.327  64.293  1.00  0.00    -0.063 OA 
HETATM   25  O   UNL     2      -6.965   9.786  62.767  1.00  0.00    -0.106 OA 
ENDBRANCH  17  20
ENDBRANCH  14  17
ENDBRANCH  11  14
ENDBRANCH   8  11
ENDBRANCH   5   8
BRANCH   6  26
HETATM   26  C   UNL     3      -8.705  17.484  66.471  1.00  0.00    -0.262 C  
HETATM   27  H   UNL     3      -7.223  16.517  67.215  1.00  0.00     0.000 HD 
HETATM   28  O   UNL     3      -7.622  17.362  67.385  1.00  0.00    -0.184 OA 
BRANCH  26  29
HETATM   29  C   UNL     3      -9.726  16.320  66.571  1.00  0.00    -0.263 C  
HETATM   30  O   UNL     3     -11.017  16.851  67.107  1.00  0.00    -0.149 OA 
HETATM   31  H   UNL     3     -11.642  16.138  67.168  1.00  0.00     0.000 HD 
BRANCH  29  32
HETATM   32  C   UNL     3     -10.150  15.730  65.208  1.00  0.00    -0.222 C  
HETATM   33  H   UNL     3     -11.315  16.332  63.739  1.00  0.00     0.000 HD 
HETATM   34  O   UNL     3     -11.054  16.695  64.577  1.00  0.00    -0.886 OA 
BRANCH  32  35
HETATM   35  C   UNL     3     -10.506  14.257  64.956  1.00  0.00    -0.435 C  
HETATM   36  H   UNL     3     -10.179  12.597  65.895  1.00  0.00     0.000 HD 
HETATM   37  O   UNL     3      -9.959  13.509  66.050  1.00  0.00    -0.295 OA 
BRANCH  35  38
HETATM   38  C   UNL     3     -11.977  13.938  64.716  1.00  0.00    -0.406 C  
HETATM   39  C   UNL     3     -12.166  12.431  64.401  1.00  0.00    -0.437 C  
HETATM   40  O   UNL     3     -12.497  14.706  63.612  1.00  0.00    -1.070 OA 
HETATM   41  O   UNL     3     -11.122  11.710  64.475  1.00  0.00    -0.321 OA 
HETATM   42  O   UNL     3     -13.285  12.157  63.885  1.00  0.00    -0.748 OA 
HETATM   43  H   UNL     3     -13.414  14.508  63.462  1.00  0.00     0.000 HD 
ENDBRANCH  35  38
ENDBRANCH  32  35
ENDBRANCH  29  32
ENDBRANCH  26  29
ENDBRANCH   6  26
TORSDOF 10
ENDMDL
MODEL      190
REMARK 921   NORMALIZED FREE ENERGY PREDICTED BY IDOCK:   -5.57 KCAL/MOL
REMARK 922        TOTAL FREE ENERGY PREDICTED BY IDOCK:  -11.32 KCAL/MOL
REMARK 923 INTER-LIGAND FREE ENERGY PREDICTED BY IDOCK:   -9.53 KCAL/MOL
REMARK 924 INTRA-LIGAND FREE ENERGY PREDICTED BY IDOCK:   -1.79 KCAL/MOL
REMARK 927      BINDING AFFINITY PREDICTED BY RF-SCORE:    0.00 PKD
ROOT
HETATM    1 CA   UNL     1     -12.486  12.614  68.999  1.00  0.00    -0.276 Ca 
HETATM    2  O   UNL     2     -12.335  13.679  63.363  1.00  0.00    -0.916 OA 
HETATM    3  O   UNL     3     -11.288   7.898  72.983  1.00  0.00    -0.491 OA 
HETATM    4  H   UNL     2     -13.256  13.627  63.133  1.00  0.00     0.000 HD 
HETATM    5  C   UNL     2     -12.186  13.368  64.747  1.00  0.00    -0.409 C  
HETATM    6  C   UNL     3     -12.361   8.515  72.276  1.00  0.00    -0.387 C  
HETATM    7  H   UNL     3     -11.499   7.832  73.907  1.00  0.00     0.000 HD 
ENDROOT
BRANCH   5   8
HETATM    8  C   UNL     2     -10.691  13.452  65.120  1.00  0.00    -0.330 C  
HETATM    9  O   UNL     2      -9.928  13.106  63.969  1.00  0.00    -0.721 OA 
HETATM   10  H   UNL     2      -9.007  13.158  64.199  1.00  0.00     0.000 HD 
BRANCH   8  11
HETATM   11  C   UNL     2     -10.300  14.878  65.540  1.00  0.00    -0.365 C  
HETATM   12  H   UNL     2     -10.867  16.769  65.161  1.00  0.00     0.000 HD 
HETATM   13  O   UNL     2     -11.108  15.887  64.902  1.00  0.00    -0.428 OA 
BRANCH  11  14
HETATM   14  C   UNL     2     -10.166  15.223  67.043  1.00  0.00    -0.260 C  
HETATM   15  O   UNL     2     -11.426  15.607  67.568  1.00  0.00    -0.256 OA 
HETATM   16  H   UNL     2     -11.344  15.819  68.491  1.00  0.00     0.000 HD 
BRANCH  14  17
HETATM   17  C   UNL     2      -8.982  16.108  67.479  1.00  0.00    -0.191 C  
HETATM   18  H   UNL     2      -7.059  16.116  67.134  1.00  0.00     0.000 HD 
HETATM   19  O   UNL     2      -7.790  15.570  66.865  1.00  0.00    -0.218 OA 
BRANCH  17  20
HETATM   20  C   UNL     2      -9.131  17.605  67.212  1.00  0.00    -0.237 C  
HETATM   21  O   UNL     2     -10.513  17.970  67.004  1.00  0.00    -0.362 OA 
HETATM   22  C   UNL     2      -8.575  18.359  68.452  1.00  0.00    -0.325 C  
HETATM   23  H   UNL     2     -10.606  18.901  66.837  1.00  0.00     0.000 HD 
HETATM   24  O   UNL     2      -7.531  17.851  68.940  1.00  0.00    -0.275 OA 
HETATM   25  O   UNL     2      -9.275  19.351  68.790  1.00  0.00    -0.368 OA 
ENDBRANCH  17  20
ENDBRANCH  14  17
ENDBRANCH  11  14
ENDBRANCH   8  11
ENDBRANCH   5   8
BRANCH   6  26
HETATM   26  C   UNL     3     -12.020   8.621  70.783  1.00  0.00    -0.121 C  
HETATM   27  H   UNL     3     -11.175   9.947  69.682  1.00  0.00     0.000 HD 
HETATM   28  O   UNL     3     -11.386   9.882  70.606  1.00  0.00    -0.286 OA 
BRANCH  26  29
HETATM   29  C   UNL     3     -11.160   7.428  70.290  1.00  0.00    -0.258 C  
HETATM   30  O   UNL     3     -11.827   6.805  69.106  1.00  0.00    -0.537 OA 
HETATM   31  H   UNL     3     -11.300   6.074  68.804  1.00  0.00     0.000 HD 
BRANCH  29  32
HETATM   32  C   UNL     3      -9.783   7.831  69.720  1.00  0.00    -0.176 C  
HETATM   33  H   UNL     3      -8.993   7.896  67.917  1.00  0.00     0.000 HD 
HETATM   34  O   UNL     3      -9.840   7.648  68.267  1.00  0.00    -0.157 OA 
BRANCH  32  35
HETATM   35  C   UNL     3      -8.428   7.487  70.358  1.00  0.00    -0.141 C  
HETATM   36  H   UNL     3      -6.654   7.128  69.675  1.00  0.00     0.000 HD 
HETATM   37  O   UNL     3      -7.492   7.341  69.281  1.00  0.00    -0.091 OA 
BRANCH  35  38
HETATM   38  C   UNL     3      -7.920   8.431  71.442  1.00  0.00    -0.126 C  
HETATM   39  C   UNL     3      -7.841   7.702  72.808  1.00  0.00    -0.103 C  
HETATM   40  O   UNL     3      -8.790   9.572  71.579  1.00  0.00    -0.262 OA 
HETATM   41  O   UNL     3      -8.117   6.461  72.796  1.00  0.00    -0.107 OA 
HETATM   42  O   UNL     3      -7.741   8.483  73.795  1.00  0.00    -0.350 OA 
HETATM   43  H   UNL     3      -8.474  10.161  72.255  1.00  0.00     0.000 HD 
ENDBRANCH  35  38
ENDBRANCH  32  35
ENDBRANCH  29  32
ENDBRANCH  26  29
ENDBRANCH   6  26
TORSDOF 10
ENDMDL
MODEL      191
REMARK 921   NORMALIZED FREE ENERGY PREDICTED BY IDOCK:   -5.56 KCAL/MOL
REMARK 922        TOTAL FREE ENERGY PREDICTED BY IDOCK:  -11.31 KCAL/MOL
REMARK 923 INTER-LIGAND FREE ENERGY PREDICTED BY IDOCK:   -9.18 KCAL/MOL
REMARK 924 INTRA-LIGAND FREE ENERGY PREDICTED BY IDOCK:   -2.13 KCAL/MOL
REMARK 927      BINDING AFFINITY PREDICTED BY RF-SCORE:    0.00 PKD
ROOT
HETATM    1 CA   UNL     1     -12.479  12.073  67.982  1.00  0.00    -0.329 Ca 
HETATM    2  O   UNL     2      -9.201  16.039  65.443  1.00  0.00    -0.292 OA 
HETATM    3  O   UNL     3     -12.035   7.707  72.487  1.00  0.00    -0.476 OA 
HETATM    4  H   UNL     2      -8.991  15.615  64.619  1.00  0.00     0.000 HD 
HETATM    5  C   UNL     2      -9.973  15.141  66.240  1.00  0.00    -0.288 C  
HETATM    6  C   UNL     3     -11.952   7.862  71.073  1.00  0.00    -0.252 C  
HETATM    7  H   UNL     3     -12.647   7.014  72.706  1.00  0.00     0.000 HD 
ENDROOT
BRANCH   5   8
HETATM    8  C   UNL     2     -10.313  15.829  67.579  1.00  0.00    -0.280 C  
HETATM    9  O   UNL     2     -10.732  17.161  67.298  1.00  0.00    -0.302 OA 
HETATM   10  H   UNL     2     -10.941  17.584  68.122  1.00  0.00     0.000 HD 
BRANCH   8  11
HETATM   11  C   UNL     2     -11.464  15.110  68.300  1.00  0.00    -0.336 C  
HETATM   12  H   UNL     2     -13.016  13.917  67.843  1.00  0.00     0.000 HD 
HETATM   13  O   UNL     2     -12.304  14.362  67.398  1.00  0.00    -0.300 OA 
BRANCH  11  14
HETATM   14  C   UNL     2     -11.162  14.235  69.541  1.00  0.00    -0.243 C  
HETATM   15  O   UNL     2     -10.418  13.090  69.159  1.00  0.00    -0.432 OA 
HETATM   16  H   UNL     2     -10.232  12.553  69.922  1.00  0.00     0.000 HD 
BRANCH  14  17
HETATM   17  C   UNL     2     -12.310  13.966  70.533  1.00  0.00    -0.369 C  
HETATM   18  H   UNL     2     -13.142  12.368  71.286  1.00  0.00     0.000 HD 
HETATM   19  O   UNL     2     -12.434  12.534  70.675  1.00  0.00    -0.319 OA 
BRANCH  17  20
HETATM   20  C   UNL     2     -12.200  14.663  71.889  1.00  0.00    -0.316 C  
HETATM   21  O   UNL     2     -11.697  16.010  71.752  1.00  0.00    -0.450 OA 
HETATM   22  C   UNL     2     -13.624  14.700  72.512  1.00  0.00    -0.470 C  
HETATM   23  H   UNL     2     -11.629  16.443  72.595  1.00  0.00     0.000 HD 
HETATM   24  O   UNL     2     -14.293  13.648  72.334  1.00  0.00    -0.661 OA 
HETATM   25  O   UNL     2     -13.894  15.793  73.078  1.00  0.00    -0.561 OA 
ENDBRANCH  17  20
ENDBRANCH  14  17
ENDBRANCH  11  14
ENDBRANCH   8  11
ENDBRANCH   5   8
BRANCH   6  26
HETATM   26  C   UNL     3     -10.964   8.982  70.720  1.00  0.00    -0.258 C  
HETATM   27  H   UNL     3      -9.437   9.758  71.587  1.00  0.00     0.000 HD 
HETATM   28  O   UNL     3     -10.049   9.065  71.805  1.00  0.00    -0.326 OA 
BRANCH  26  29
HETATM   29  C   UNL     3     -10.272   8.747  69.352  1.00  0.00    -0.210 C  
HETATM   30  O   UNL     3     -11.232   8.059  68.434  1.00  0.00    -0.306 OA 
HETATM   31  H   UNL     3     -10.808   7.915  67.596  1.00  0.00     0.000 HD 
BRANCH  29  32
HETATM   32  C   UNL     3      -9.941  10.040  68.577  1.00  0.00    -0.162 C  
HETATM   33  H   UNL     3     -10.902  11.159  67.271  1.00  0.00     0.000 HD 
HETATM   34  O   UNL     3     -11.106  10.363  67.748  1.00  0.00    -0.295 OA 
BRANCH  32  35
HETATM   35  C   UNL     3      -8.584  10.361  67.931  1.00  0.00    -0.118 C  
HETATM   36  H   UNL     3      -7.995  11.542  66.517  1.00  0.00     0.000 HD 
HETATM   37  O   UNL     3      -8.834  11.344  66.917  1.00  0.00    -0.162 OA 
BRANCH  35  38
HETATM   38  C   UNL     3      -7.458  10.773  68.872  1.00  0.00    -0.116 C  
HETATM   39  C   UNL     3      -6.142  10.038  68.505  1.00  0.00    -0.045 C  
HETATM   40  O   UNL     3      -7.790  10.465  70.240  1.00  0.00    -0.416 OA 
HETATM   41  O   UNL     3      -6.184   9.303  67.468  1.00  0.00    -0.057 OA 
HETATM   42  O   UNL     3      -5.267  10.079  69.413  1.00  0.00    -0.035 OA 
HETATM   43  H   UNL     3      -7.088  10.722  70.826  1.00  0.00     0.000 HD 
ENDBRANCH  35  38
ENDBRANCH  32  35
ENDBRANCH  29  32
ENDBRANCH  26  29
ENDBRANCH   6  26
TORSDOF 10
ENDMDL
MODEL      192
REMARK 921   NORMALIZED FREE ENERGY PREDICTED BY IDOCK:   -5.56 KCAL/MOL
REMARK 922        TOTAL FREE ENERGY PREDICTED BY IDOCK:  -11.31 KCAL/MOL
REMARK 923 INTER-LIGAND FREE ENERGY PREDICTED BY IDOCK:   -9.97 KCAL/MOL
REMARK 924 INTRA-LIGAND FREE ENERGY PREDICTED BY IDOCK:   -1.34 KCAL/MOL
REMARK 927      BINDING AFFINITY PREDICTED BY RF-SCORE:    0.00 PKD
ROOT
HETATM    1 CA   UNL     1     -12.189  10.179  68.067  1.00  0.00    -0.495 Ca 
HETATM    2  O   UNL     2     -11.342   7.978  73.298  1.00  0.00    -0.436 OA 
HETATM    3  O   UNL     3     -10.465  15.188  64.677  1.00  0.00    -0.535 OA 
HETATM    4  H   UNL     2     -12.157   8.200  73.734  1.00  0.00     0.000 HD 
HETATM    5  C   UNL     2     -11.361   8.522  71.979  1.00  0.00    -0.355 C  
HETATM    6  C   UNL     3     -11.524  14.712  65.504  1.00  0.00    -0.341 C  
HETATM    7  H   UNL     3     -10.810  15.489  63.844  1.00  0.00     0.000 HD 
ENDROOT
BRANCH   5   8
HETATM    8  C   UNL     2     -10.037   8.162  71.271  1.00  0.00    -0.195 C  
HETATM    9  O   UNL     2      -8.991   8.222  72.235  1.00  0.00    -0.172 OA 
HETATM   10  H   UNL     2      -8.176   8.000  71.799  1.00  0.00     0.000 HD 
BRANCH   8  11
HETATM   11  C   UNL     2     -10.079   6.735  70.701  1.00  0.00    -0.187 C  
HETATM   12  H   UNL     2     -10.939   4.969  71.123  1.00  0.00     0.000 HD 
HETATM   13  O   UNL     2     -10.913   5.851  71.476  1.00  0.00    -0.259 OA 
BRANCH  11  14
HETATM   14  C   UNL     2     -10.386   6.521  69.198  1.00  0.00    -0.193 C  
HETATM   15  O   UNL     2     -11.788   6.509  68.985  1.00  0.00    -0.523 OA 
HETATM   16  H   UNL     2     -11.976   6.378  68.063  1.00  0.00     0.000 HD 
BRANCH  14  17
HETATM   17  C   UNL     2      -9.604   5.425  68.450  1.00  0.00    -0.129 C  
HETATM   18  H   UNL     2      -9.553   3.473  68.512  1.00  0.00     0.000 HD 
HETATM   19  O   UNL     2     -10.036   4.150  68.974  1.00  0.00    -0.106 OA 
BRANCH  17  20
HETATM   20  C   UNL     2      -9.685   5.468  66.924  1.00  0.00    -0.150 C  
HETATM   21  O   UNL     2     -10.959   5.981  66.476  1.00  0.00    -0.631 OA 
HETATM   22  C   UNL     2      -8.544   6.397  66.422  1.00  0.00    -0.134 C  
HETATM   23  H   UNL     2     -11.009   6.007  65.528  1.00  0.00     0.000 HD 
HETATM   24  O   UNL     2      -7.458   6.267  67.047  1.00  0.00    -0.081 OA 
HETATM   25  O   UNL     2      -8.896   7.156  65.479  1.00  0.00    -0.085 OA 
ENDBRANCH  17  20
ENDBRANCH  14  17
ENDBRANCH  11  14
ENDBRANCH   8  11
ENDBRANCH   5   8
BRANCH   6  26
HETATM   26  C   UNL     3     -10.966  14.225  66.849  1.00  0.00    -0.304 C  
HETATM   27  H   UNL     3     -10.093  15.069  68.334  1.00  0.00     0.000 HD 
HETATM   28  O   UNL     3     -10.437  15.371  67.502  1.00  0.00    -0.264 OA 
BRANCH  26  29
HETATM   29  C   UNL     3     -12.033  13.477  67.691  1.00  0.00    -0.336 C  
HETATM   30  O   UNL     3     -12.223  12.104  67.128  1.00  0.00    -0.507 OA 
HETATM   31  H   UNL     3     -12.876  11.647  67.644  1.00  0.00     0.000 HD 
BRANCH  29  32
HETATM   32  C   UNL     3     -11.602  13.181  69.144  1.00  0.00    -0.316 C  
HETATM   33  H   UNL     3     -10.446  11.836  70.002  1.00  0.00     0.000 HD 
HETATM   34  O   UNL     3     -10.712  12.018  69.108  1.00  0.00    -0.178 OA 
BRANCH  32  35
HETATM   35  C   UNL     3     -12.526  13.245  70.370  1.00  0.00    -0.225 C  
HETATM   36  H   UNL     3     -12.971  12.026  71.804  1.00  0.00     0.000 HD 
HETATM   37  O   UNL     3     -12.400  11.987  71.046  1.00  0.00    -0.346 OA 
BRANCH  35  38
HETATM   38  C   UNL     3     -12.334  14.429  71.312  1.00  0.00    -0.359 C  
HETATM   39  C   UNL     3     -13.381  14.392  72.456  1.00  0.00    -0.486 C  
HETATM   40  O   UNL     3     -12.471  15.677  70.604  1.00  0.00    -0.416 OA 
HETATM   41  O   UNL     3     -14.148  13.378  72.479  1.00  0.00    -0.726 OA 
HETATM   42  O   UNL     3     -13.493  15.485  73.077  1.00  0.00    -0.502 OA 
HETATM   43  H   UNL     3     -12.352  16.415  71.191  1.00  0.00     0.000 HD 
ENDBRANCH  35  38
ENDBRANCH  32  35
ENDBRANCH  29  32
ENDBRANCH  26  29
ENDBRANCH   6  26
TORSDOF 10
ENDMDL
MODEL      193
REMARK 921   NORMALIZED FREE ENERGY PREDICTED BY IDOCK:   -5.56 KCAL/MOL
REMARK 922        TOTAL FREE ENERGY PREDICTED BY IDOCK:  -11.30 KCAL/MOL
REMARK 923 INTER-LIGAND FREE ENERGY PREDICTED BY IDOCK:   -9.70 KCAL/MOL
REMARK 924 INTRA-LIGAND FREE ENERGY PREDICTED BY IDOCK:   -1.60 KCAL/MOL
REMARK 927      BINDING AFFINITY PREDICTED BY RF-SCORE:    0.00 PKD
ROOT
HETATM    1 CA   UNL     1     -13.771  10.244  69.393  1.00  0.00    -0.489 Ca 
HETATM    2  O   UNL     2     -11.058   7.272  73.484  1.00  0.00    -0.569 OA 
HETATM    3  O   UNL     3     -12.397  13.762  64.365  1.00  0.00    -0.540 OA 
HETATM    4  H   UNL     2     -11.130   7.859  74.227  1.00  0.00     0.000 HD 
HETATM    5  C   UNL     2     -11.636   7.901  72.341  1.00  0.00    -0.380 C  
HETATM    6  C   UNL     3     -12.713  13.873  65.750  1.00  0.00    -0.461 C  
HETATM    7  H   UNL     3     -12.973  14.317  63.851  1.00  0.00     0.000 HD 
ENDROOT
BRANCH   5   8
HETATM    8  C   UNL     2     -11.519   6.947  71.133  1.00  0.00    -0.304 C  
HETATM    9  O   UNL     2     -12.707   7.069  70.358  1.00  0.00    -0.595 OA 
HETATM   10  H   UNL     2     -12.635   6.482  69.614  1.00  0.00     0.000 HD 
BRANCH   8  11
HETATM   11  C   UNL     2     -10.326   7.321  70.240  1.00  0.00    -0.210 C  
HETATM   12  H   UNL     2      -9.721   8.862  69.102  1.00  0.00     0.000 HD 
HETATM   13  O   UNL     2     -10.458   8.631  69.654  1.00  0.00    -0.214 OA 
BRANCH  11  14
HETATM   14  C   UNL     2      -8.884   7.161  70.783  1.00  0.00    -0.148 C  
HETATM   15  O   UNL     2      -8.834   6.098  71.721  1.00  0.00    -0.137 OA 
HETATM   16  H   UNL     2      -7.949   6.000  72.054  1.00  0.00     0.000 HD 
BRANCH  14  17
HETATM   17  C   UNL     2      -8.123   8.433  71.198  1.00  0.00    -0.125 C  
HETATM   18  H   UNL     2      -8.046   9.538  72.807  1.00  0.00     0.000 HD 
HETATM   19  O   UNL     2      -8.516   8.753  72.551  1.00  0.00    -0.403 OA 
BRANCH  17  20
HETATM   20  C   UNL     2      -6.603   8.384  71.047  1.00  0.00    -0.043 C  
HETATM   21  O   UNL     2      -6.179   7.186  70.359  1.00  0.00    -0.033 OA 
HETATM   22  C   UNL     2      -6.173   9.633  70.228  1.00  0.00    -0.070 C  
HETATM   23  H   UNL     2      -5.234   7.155  70.265  1.00  0.00     0.000 HD 
HETATM   24  O   UNL     2      -6.798  10.686  70.526  1.00  0.00    -0.309 OA 
HETATM   25  O   UNL     2      -5.280   9.389  69.373  1.00  0.00    -0.035 OA 
ENDBRANCH  17  20
ENDBRANCH  14  17
ENDBRANCH  11  14
ENDBRANCH   8  11
ENDBRANCH   5   8
BRANCH   6  26
HETATM   26  C   UNL     3     -11.782  12.978  66.579  1.00  0.00    -0.382 C  
HETATM   27  H   UNL     3     -11.389  11.099  66.609  1.00  0.00     0.000 HD 
HETATM   28  O   UNL     3     -11.966  11.653  66.096  1.00  0.00    -0.370 OA 
BRANCH  26  29
HETATM   29  C   UNL     3     -10.306  13.452  66.522  1.00  0.00    -0.284 C  
HETATM   30  O   UNL     3     -10.021  13.993  65.158  1.00  0.00    -0.532 OA 
HETATM   31  H   UNL     3      -9.117  14.283  65.123  1.00  0.00     0.000 HD 
BRANCH  29  32
HETATM   32  C   UNL     3      -9.992  14.661  67.430  1.00  0.00    -0.231 C  
HETATM   33  H   UNL     3      -9.280  14.878  69.254  1.00  0.00     0.000 HD 
HETATM   34  O   UNL     3      -9.474  14.134  68.696  1.00  0.00    -0.207 OA 
BRANCH  32  35
HETATM   35  C   UNL     3     -10.871  15.913  67.568  1.00  0.00    -0.305 C  
HETATM   36  H   UNL     3     -12.211  16.504  68.832  1.00  0.00     0.000 HD 
HETATM   37  O   UNL     3     -11.667  15.729  68.746  1.00  0.00    -0.382 OA 
BRANCH  35  38
HETATM   38  C   UNL     3     -10.154  17.258  67.559  1.00  0.00    -0.315 C  
HETATM   39  C   UNL     3     -10.084  17.831  66.119  1.00  0.00    -0.304 C  
HETATM   40  O   UNL     3      -8.811  17.130  68.067  1.00  0.00    -0.219 OA 
HETATM   41  O   UNL     3     -10.685  17.160  65.222  1.00  0.00    -0.629 OA 
HETATM   42  O   UNL     3      -9.243  18.762  65.983  1.00  0.00    -0.476 OA 
HETATM   43  H   UNL     3      -8.364  17.968  68.062  1.00  0.00     0.000 HD 
ENDBRANCH  35  38
ENDBRANCH  32  35
ENDBRANCH  29  32
ENDBRANCH  26  29
ENDBRANCH   6  26
TORSDOF 10
ENDMDL
MODEL      194
REMARK 921   NORMALIZED FREE ENERGY PREDICTED BY IDOCK:   -5.55 KCAL/MOL
REMARK 922        TOTAL FREE ENERGY PREDICTED BY IDOCK:  -11.30 KCAL/MOL
REMARK 923 INTER-LIGAND FREE ENERGY PREDICTED BY IDOCK:   -9.46 KCAL/MOL
REMARK 924 INTRA-LIGAND FREE ENERGY PREDICTED BY IDOCK:   -1.84 KCAL/MOL
REMARK 927      BINDING AFFINITY PREDICTED BY RF-SCORE:    0.00 PKD
ROOT
HETATM    1 CA   UNL     1      -9.247  11.458  69.953  1.00  0.00    -0.368 Ca 
HETATM    2  O   UNL     2     -10.746   6.693  67.131  1.00  0.00    -0.282 OA 
HETATM    3  O   UNL     3     -11.973  16.349  72.816  1.00  0.00    -0.531 OA 
HETATM    4  H   UNL     2     -10.589   6.946  66.229  1.00  0.00     0.000 HD 
HETATM    5  C   UNL     2     -10.481   7.810  67.978  1.00  0.00    -0.185 C  
HETATM    6  C   UNL     3     -11.398  15.966  71.570  1.00  0.00    -0.309 C  
HETATM    7  H   UNL     3     -11.575  17.153  73.128  1.00  0.00     0.000 HD 
ENDROOT
BRANCH   5   8
HETATM    8  C   UNL     2     -10.737   7.398  69.443  1.00  0.00    -0.211 C  
HETATM    9  O   UNL     2     -11.840   6.499  69.463  1.00  0.00    -0.649 OA 
HETATM   10  H   UNL     2     -11.998   6.245  70.365  1.00  0.00     0.000 HD 
BRANCH   8  11
HETATM   11  C   UNL     2      -9.520   6.672  70.040  1.00  0.00    -0.157 C  
HETATM   12  H   UNL     2      -7.645   6.187  69.506  1.00  0.00     0.000 HD 
HETATM   13  O   UNL     2      -8.397   6.635  69.137  1.00  0.00    -0.122 OA 
BRANCH  11  14
HETATM   14  C   UNL     2      -9.015   7.061  71.451  1.00  0.00    -0.139 C  
HETATM   15  O   UNL     2      -7.818   7.816  71.347  1.00  0.00    -0.085 OA 
HETATM   16  H   UNL     2      -7.508   8.055  72.214  1.00  0.00     0.000 HD 
BRANCH  14  17
HETATM   17  C   UNL     2      -9.006   5.973  72.541  1.00  0.00    -0.132 C  
HETATM   18  H   UNL     2      -7.797   5.476  73.992  1.00  0.00     0.000 HD 
HETATM   19  O   UNL     2      -7.802   6.148  73.320  1.00  0.00    -0.100 OA 
BRANCH  17  20
HETATM   20  C   UNL     2     -10.249   5.903  73.427  1.00  0.00    -0.212 C  
HETATM   21  O   UNL     2     -11.177   6.968  73.122  1.00  0.00    -0.483 OA 
HETATM   22  C   UNL     2     -10.931   4.530  73.169  1.00  0.00    -0.264 C  
HETATM   23  H   UNL     2     -11.949   6.925  73.673  1.00  0.00     0.000 HD 
HETATM   24  O   UNL     2     -10.126   3.569  73.041  1.00  0.00    -0.135 OA 
HETATM   25  O   UNL     2     -12.188   4.600  73.104  1.00  0.00    -0.035 OA 
ENDBRANCH  17  20
ENDBRANCH  14  17
ENDBRANCH  11  14
ENDBRANCH   8  11
ENDBRANCH   5   8
BRANCH   6  26
HETATM   26  C   UNL     3     -12.042  14.667  71.066  1.00  0.00    -0.329 C  
HETATM   27  H   UNL     3     -13.431  13.511  71.710  1.00  0.00     0.000 HD 
HETATM   28  O   UNL     3     -13.033  14.314  72.022  1.00  0.00    -0.322 OA 
BRANCH  26  29
HETATM   29  C   UNL     3     -12.602  14.809  69.626  1.00  0.00    -0.062 C  
HETATM   30  O   UNL     3     -12.049  16.053  69.008  1.00  0.00    -0.451 OA 
HETATM   31  H   UNL     3     -12.392  16.139  68.127  1.00  0.00     0.000 HD 
BRANCH  29  32
HETATM   32  C   UNL     3     -12.124  13.713  68.648  1.00  0.00    -0.290 C  
HETATM   33  H   UNL     3     -11.186  11.992  68.845  1.00  0.00     0.000 HD 
HETATM   34  O   UNL     3     -11.480  12.667  69.446  1.00  0.00    -0.276 OA 
BRANCH  32  35
HETATM   35  C   UNL     3     -11.472  13.972  67.282  1.00  0.00    -0.348 C  
HETATM   36  H   UNL     3      -9.697  14.467  66.692  1.00  0.00     0.000 HD 
HETATM   37  O   UNL     3     -10.101  14.307  67.537  1.00  0.00    -0.233 OA 
BRANCH  35  38
HETATM   38  C   UNL     3     -11.613  12.873  66.235  1.00  0.00    -0.372 C  
HETATM   39  C   UNL     3     -12.705  13.243  65.197  1.00  0.00    -0.402 C  
HETATM   40  O   UNL     3     -11.971  11.619  66.850  1.00  0.00    -0.567 OA 
HETATM   41  O   UNL     3     -13.229  14.394  65.325  1.00  0.00    -0.619 OA 
HETATM   42  O   UNL     3     -13.098  12.265  64.503  1.00  0.00    -0.791 OA 
HETATM   43  H   UNL     3     -12.059  10.933  66.198  1.00  0.00     0.000 HD 
ENDBRANCH  35  38
ENDBRANCH  32  35
ENDBRANCH  29  32
ENDBRANCH  26  29
ENDBRANCH   6  26
TORSDOF 10
ENDMDL
MODEL      195
REMARK 921   NORMALIZED FREE ENERGY PREDICTED BY IDOCK:   -5.55 KCAL/MOL
REMARK 922        TOTAL FREE ENERGY PREDICTED BY IDOCK:  -11.29 KCAL/MOL
REMARK 923 INTER-LIGAND FREE ENERGY PREDICTED BY IDOCK:   -9.82 KCAL/MOL
REMARK 924 INTRA-LIGAND FREE ENERGY PREDICTED BY IDOCK:   -1.47 KCAL/MOL
REMARK 927      BINDING AFFINITY PREDICTED BY RF-SCORE:    0.00 PKD
ROOT
HETATM    1 CA   UNL     1     -11.098   7.678  66.262  1.00  0.00    -0.416 Ca 
HETATM    2  O   UNL     2      -7.391  10.768  63.159  1.00  0.00    -0.347 OA 
HETATM    3  O   UNL     3     -13.631   7.662  72.019  1.00  0.00    -0.482 OA 
HETATM    4  H   UNL     2      -6.613  10.223  63.192  1.00  0.00     0.000 HD 
HETATM    5  C   UNL     2      -8.411  10.164  63.953  1.00  0.00    -0.172 C  
HETATM    6  C   UNL     3     -12.568   7.082  71.267  1.00  0.00    -0.373 C  
HETATM    7  H   UNL     3     -14.143   6.983  72.441  1.00  0.00     0.000 HD 
ENDROOT
BRANCH   5   8
HETATM    8  C   UNL     2      -9.675  11.048  63.900  1.00  0.00    -0.292 C  
HETATM    9  O   UNL     2     -10.364  10.760  62.688  1.00  0.00    -0.761 OA 
HETATM   10  H   UNL     2     -11.143  11.304  62.655  1.00  0.00     0.000 HD 
BRANCH   8  11
HETATM   11  C   UNL     2     -10.621  10.741  65.071  1.00  0.00    -0.173 C  
HETATM   12  H   UNL     2     -10.686   9.539  66.680  1.00  0.00     0.000 HD 
HETATM   13  O   UNL     2     -10.101   9.729  65.956  1.00  0.00    -0.276 OA 
BRANCH  11  14
HETATM   14  C   UNL     2     -11.188  11.904  65.922  1.00  0.00    -0.322 C  
HETATM   15  O   UNL     2     -11.858  11.391  67.062  1.00  0.00    -0.530 OA 
HETATM   16  H   UNL     2     -12.206  12.105  67.584  1.00  0.00     0.000 HD 
BRANCH  14  17
HETATM   17  C   UNL     2     -11.925  13.042  65.190  1.00  0.00    -0.402 C  
HETATM   18  H   UNL     2     -13.687  13.251  64.374  1.00  0.00     0.000 HD 
HETATM   19  O   UNL     2     -13.233  12.548  64.826  1.00  0.00    -0.839 OA 
BRANCH  17  20
HETATM   20  C   UNL     2     -12.009  14.373  65.936  1.00  0.00    -0.359 C  
HETATM   21  O   UNL     2     -12.459  14.190  67.297  1.00  0.00    -0.569 OA 
HETATM   22  C   UNL     2     -10.585  14.999  65.939  1.00  0.00    -0.329 C  
HETATM   23  H   UNL     2     -12.512  15.018  67.760  1.00  0.00     0.000 HD 
HETATM   24  O   UNL     2      -9.957  14.858  64.856  1.00  0.00    -0.288 OA 
HETATM   25  O   UNL     2     -10.274  15.528  67.040  1.00  0.00    -0.260 OA 
ENDBRANCH  17  20
ENDBRANCH  14  17
ENDBRANCH  11  14
ENDBRANCH   8  11
ENDBRANCH   5   8
BRANCH   6  26
HETATM   26  C   UNL     3     -11.741   8.180  70.584  1.00  0.00    -0.143 C  
HETATM   27  H   UNL     3     -10.951   9.831  71.162  1.00  0.00     0.000 HD 
HETATM   28  O   UNL     3     -11.464   9.152  71.584  1.00  0.00    -0.333 OA 
BRANCH  26  29
HETATM   29  C   UNL     3     -10.464   7.618  69.905  1.00  0.00    -0.231 C  
HETATM   30  O   UNL     3     -10.546   7.869  68.433  1.00  0.00    -0.316 OA 
HETATM   31  H   UNL     3      -9.765   7.525  68.017  1.00  0.00     0.000 HD 
BRANCH  29  32
HETATM   32  C   UNL     3      -9.163   8.352  70.294  1.00  0.00    -0.152 C  
HETATM   33  H   UNL     3      -8.469   9.160  71.951  1.00  0.00     0.000 HD 
HETATM   34  O   UNL     3      -9.270   8.709  71.711  1.00  0.00    -0.223 OA 
BRANCH  32  35
HETATM   35  C   UNL     3      -8.440   9.391  69.423  1.00  0.00    -0.142 C  
HETATM   36  H   UNL     3      -7.353   9.309  67.825  1.00  0.00     0.000 HD 
HETATM   37  O   UNL     3      -7.799   8.667  68.365  1.00  0.00    -0.102 OA 
BRANCH  35  38
HETATM   38  C   UNL     3      -9.281  10.552  68.903  1.00  0.00    -0.183 C  
HETATM   39  C   UNL     3      -8.375  11.749  68.509  1.00  0.00    -0.131 C  
HETATM   40  O   UNL     3     -10.221  10.996  69.901  1.00  0.00    -0.409 OA 
HETATM   41  O   UNL     3      -7.122  11.553  68.597  1.00  0.00    -0.083 OA 
HETATM   42  O   UNL     3      -9.001  12.837  68.378  1.00  0.00    -0.184 OA 
HETATM   43  H   UNL     3     -10.744  11.720  69.577  1.00  0.00     0.000 HD 
ENDBRANCH  35  38
ENDBRANCH  32  35
ENDBRANCH  29  32
ENDBRANCH  26  29
ENDBRANCH   6  26
TORSDOF 10
ENDMDL
MODEL      196
REMARK 921   NORMALIZED FREE ENERGY PREDICTED BY IDOCK:   -5.54 KCAL/MOL
REMARK 922        TOTAL FREE ENERGY PREDICTED BY IDOCK:  -11.28 KCAL/MOL
REMARK 923 INTER-LIGAND FREE ENERGY PREDICTED BY IDOCK:   -9.22 KCAL/MOL
REMARK 924 INTRA-LIGAND FREE ENERGY PREDICTED BY IDOCK:   -2.07 KCAL/MOL
REMARK 927      BINDING AFFINITY PREDICTED BY RF-SCORE:    0.00 PKD
ROOT
HETATM    1 CA   UNL     1      -8.686  12.369  69.117  1.00  0.00    -0.308 Ca 
HETATM    2  O   UNL     2     -13.479  15.118  70.665  1.00  0.00    -0.664 OA 
HETATM    3  O   UNL     3      -6.769   8.208  64.808  1.00  0.00    -0.065 OA 
HETATM    4  H   UNL     2     -13.742  14.626  71.435  1.00  0.00     0.000 HD 
HETATM    5  C   UNL     2     -12.314  14.512  70.106  1.00  0.00    -0.342 C  
HETATM    6  C   UNL     3      -7.222   8.287  66.157  1.00  0.00    -0.070 C  
HETATM    7  H   UNL     3      -5.948   7.732  64.766  1.00  0.00     0.000 HD 
ENDROOT
BRANCH   5   8
HETATM    8  C   UNL     2     -11.887  15.311  68.857  1.00  0.00    -0.320 C  
HETATM    9  O   UNL     2     -10.999  16.342  69.274  1.00  0.00    -0.305 OA 
HETATM   10  H   UNL     2     -10.736  16.834  68.505  1.00  0.00     0.000 HD 
BRANCH   8  11
HETATM   11  C   UNL     2     -11.142  14.418  67.851  1.00  0.00    -0.274 C  
HETATM   12  H   UNL     2      -9.341  13.549  67.655  1.00  0.00     0.000 HD 
HETATM   13  O   UNL     2      -9.801  14.100  68.276  1.00  0.00    -0.221 OA 
BRANCH  11  14
HETATM   14  C   UNL     2     -11.818  13.128  67.326  1.00  0.00    -0.367 C  
HETATM   15  O   UNL     2     -11.144  11.986  67.830  1.00  0.00    -0.221 OA 
HETATM   16  H   UNL     2     -11.559  11.194  67.507  1.00  0.00     0.000 HD 
BRANCH  14  17
HETATM   17  C   UNL     2     -12.185  13.061  65.831  1.00  0.00    -0.432 C  
HETATM   18  H   UNL     2     -13.460  13.985  64.676  1.00  0.00     0.000 HD 
HETATM   19  O   UNL     2     -13.234  14.027  65.598  1.00  0.00    -0.634 OA 
BRANCH  17  20
HETATM   20  C   UNL     2     -11.026  13.236  64.849  1.00  0.00    -0.330 C  
HETATM   21  O   UNL     2      -9.798  12.687  65.377  1.00  0.00    -0.380 OA 
HETATM   22  C   UNL     2     -11.408  12.491  63.539  1.00  0.00    -0.486 C  
HETATM   23  H   UNL     2      -9.078  12.796  64.767  1.00  0.00     0.000 HD 
HETATM   24  O   UNL     2     -12.615  12.621  63.204  1.00  0.00    -0.610 OA 
HETATM   25  O   UNL     2     -10.449  11.852  63.029  1.00  0.00    -0.329 OA 
ENDBRANCH  17  20
ENDBRANCH  14  17
ENDBRANCH  11  14
ENDBRANCH   8  11
ENDBRANCH   5   8
BRANCH   6  26
HETATM   26  C   UNL     3      -8.548   9.057  66.226  1.00  0.00    -0.128 C  
HETATM   27  H   UNL     3      -9.865   9.596  64.938  1.00  0.00     0.000 HD 
HETATM   28  O   UNL     3      -9.044   9.120  64.895  1.00  0.00    -0.210 OA 
BRANCH  26  29
HETATM   29  C   UNL     3      -9.549   8.415  67.223  1.00  0.00    -0.165 C  
HETATM   30  O   UNL     3     -10.759   9.288  67.327  1.00  0.00    -0.281 OA 
HETATM   31  H   UNL     3     -11.372   8.895  67.937  1.00  0.00     0.000 HD 
BRANCH  29  32
HETATM   32  C   UNL     3     -10.148   7.074  66.746  1.00  0.00    -0.200 C  
HETATM   33  H   UNL     3     -11.873   6.158  67.000  1.00  0.00     0.000 HD 
HETATM   34  O   UNL     3     -11.505   6.983  67.293  1.00  0.00    -0.079 OA 
BRANCH  32  35
HETATM   35  C   UNL     3      -9.389   5.740  66.684  1.00  0.00    -0.146 C  
HETATM   36  H   UNL     3      -8.759   4.470  68.000  1.00  0.00     0.000 HD 
HETATM   37  O   UNL     3      -9.228   5.296  68.038  1.00  0.00    -0.109 OA 
BRANCH  35  38
HETATM   38  C   UNL     3      -9.978   4.657  65.787  1.00  0.00    -0.230 C  
HETATM   39  C   UNL     3      -9.199   4.573  64.448  1.00  0.00    -0.127 C  
HETATM   40  O   UNL     3     -11.364   4.927  65.495  1.00  0.00    -0.906 OA 
HETATM   41  O   UNL     3      -8.180   5.328  64.347  1.00  0.00    -0.124 OA 
HETATM   42  O   UNL     3      -9.810   3.940  63.544  1.00  0.00    -0.154 OA 
HETATM   43  H   UNL     3     -11.731   4.253  64.936  1.00  0.00     0.000 HD 
ENDBRANCH  35  38
ENDBRANCH  32  35
ENDBRANCH  29  32
ENDBRANCH  26  29
ENDBRANCH   6  26
TORSDOF 10
ENDMDL
MODEL      197
REMARK 921   NORMALIZED FREE ENERGY PREDICTED BY IDOCK:   -5.53 KCAL/MOL
REMARK 922        TOTAL FREE ENERGY PREDICTED BY IDOCK:  -11.26 KCAL/MOL
REMARK 923 INTER-LIGAND FREE ENERGY PREDICTED BY IDOCK:   -8.98 KCAL/MOL
REMARK 924 INTRA-LIGAND FREE ENERGY PREDICTED BY IDOCK:   -2.28 KCAL/MOL
REMARK 927      BINDING AFFINITY PREDICTED BY RF-SCORE:    0.00 PKD
ROOT
HETATM    1 CA   UNL     1     -11.824   9.730  67.684  1.00  0.00    -0.521 Ca 
HETATM    2  O   UNL     2     -12.083   8.193  73.206  1.00  0.00    -0.543 OA 
HETATM    3  O   UNL     3     -11.128  14.934  64.221  1.00  0.00    -0.621 OA 
HETATM    4  H   UNL     2     -13.016   8.056  73.323  1.00  0.00     0.000 HD 
HETATM    5  C   UNL     2     -11.848   8.654  71.876  1.00  0.00    -0.351 C  
HETATM    6  C   UNL     3     -12.133  14.069  64.744  1.00  0.00    -0.437 C  
HETATM    7  H   UNL     3     -11.247  15.045  63.285  1.00  0.00     0.000 HD 
ENDROOT
BRANCH   5   8
HETATM    8  C   UNL     2     -10.333   8.877  71.686  1.00  0.00    -0.345 C  
HETATM    9  O   UNL     2      -9.642   7.996  72.565  1.00  0.00    -0.190 OA 
HETATM   10  H   UNL     2      -8.709   8.134  72.448  1.00  0.00     0.000 HD 
BRANCH   8  11
HETATM   11  C   UNL     2      -9.897   8.553  70.248  1.00  0.00    -0.182 C  
HETATM   12  H   UNL     2     -10.706   7.836  68.554  1.00  0.00     0.000 HD 
HETATM   13  O   UNL     2     -10.975   8.037  69.443  1.00  0.00    -0.150 OA 
BRANCH  11  14
HETATM   14  C   UNL     2      -9.124   9.614  69.426  1.00  0.00    -0.188 C  
HETATM   15  O   UNL     2     -10.028  10.569  68.893  1.00  0.00    -0.185 OA 
HETATM   16  H   UNL     2      -9.553  11.220  68.388  1.00  0.00     0.000 HD 
BRANCH  14  17
HETATM   17  C   UNL     2      -8.043   9.121  68.445  1.00  0.00    -0.104 C  
HETATM   18  H   UNL     2      -7.044   7.460  68.207  1.00  0.00     0.000 HD 
HETATM   19  O   UNL     2      -7.711   7.764  68.812  1.00  0.00    -0.108 OA 
BRANCH  17  20
HETATM   20  C   UNL     2      -8.383   9.240  66.960  1.00  0.00    -0.120 C  
HETATM   21  O   UNL     2      -9.768   8.913  66.706  1.00  0.00    -0.179 OA 
HETATM   22  C   UNL     2      -8.109  10.709  66.533  1.00  0.00    -0.140 C  
HETATM   23  H   UNL     2      -9.979   8.987  65.783  1.00  0.00     0.000 HD 
HETATM   24  O   UNL     2      -7.069  11.209  67.040  1.00  0.00    -0.107 OA 
HETATM   25  O   UNL     2      -8.988  11.179  65.762  1.00  0.00    -0.198 OA 
ENDBRANCH  17  20
ENDBRANCH  14  17
ENDBRANCH  11  14
ENDBRANCH   8  11
ENDBRANCH   5   8
BRANCH   6  26
HETATM   26  C   UNL     3     -11.942  13.889  66.257  1.00  0.00    -0.434 C  
HETATM   27  H   UNL     3     -12.164  12.428  67.481  1.00  0.00     0.000 HD 
HETATM   28  O   UNL     3     -12.283  12.539  66.545  1.00  0.00    -0.569 OA 
BRANCH  26  29
HETATM   29  C   UNL     3     -10.511  14.272  66.719  1.00  0.00    -0.273 C  
HETATM   30  O   UNL     3     -10.219  15.673  66.283  1.00  0.00    -0.270 OA 
HETATM   31  H   UNL     3      -9.342  15.907  66.566  1.00  0.00     0.000 HD 
BRANCH  29  32
HETATM   32  C   UNL     3     -10.341  14.359  68.251  1.00  0.00    -0.239 C  
HETATM   33  H   UNL     3      -9.666  13.140  69.643  1.00  0.00     0.000 HD 
HETATM   34  O   UNL     3      -9.771  13.086  68.700  1.00  0.00    -0.163 OA 
BRANCH  32  35
HETATM   35  C   UNL     3     -11.357  14.985  69.218  1.00  0.00    -0.296 C  
HETATM   36  H   UNL     3     -12.544  16.510  69.147  1.00  0.00     0.000 HD 
HETATM   37  O   UNL     3     -11.915  16.124  68.549  1.00  0.00    -0.214 OA 
BRANCH  35  38
HETATM   38  C   UNL     3     -12.432  14.058  69.777  1.00  0.00    -0.203 C  
HETATM   39  C   UNL     3     -13.269  14.784  70.863  1.00  0.00    -0.356 C  
HETATM   40  O   UNL     3     -11.843  12.880  70.362  1.00  0.00    -0.510 OA 
HETATM   41  O   UNL     3     -12.997  16.011  71.049  1.00  0.00    -0.414 OA 
HETATM   42  O   UNL     3     -13.950  14.004  71.584  1.00  0.00    -0.364 OA 
HETATM   43  H   UNL     3     -12.512  12.303  70.710  1.00  0.00     0.000 HD 
ENDBRANCH  35  38
ENDBRANCH  32  35
ENDBRANCH  29  32
ENDBRANCH  26  29
ENDBRANCH   6  26
TORSDOF 10
ENDMDL
MODEL      198
REMARK 921   NORMALIZED FREE ENERGY PREDICTED BY IDOCK:   -5.52 KCAL/MOL
REMARK 922        TOTAL FREE ENERGY PREDICTED BY IDOCK:  -11.25 KCAL/MOL
REMARK 923 INTER-LIGAND FREE ENERGY PREDICTED BY IDOCK:   -9.86 KCAL/MOL
REMARK 924 INTRA-LIGAND FREE ENERGY PREDICTED BY IDOCK:   -1.39 KCAL/MOL
REMARK 927      BINDING AFFINITY PREDICTED BY RF-SCORE:    0.00 PKD
ROOT
HETATM    1 CA   UNL     1     -11.644   7.582  66.881  1.00  0.00    -0.481 Ca 
HETATM    2  O   UNL     2     -13.630   6.845  72.213  1.00  0.00    -0.530 OA 
HETATM    3  O   UNL     3      -9.204  12.141  63.301  1.00  0.00    -0.653 OA 
HETATM    4  H   UNL     2     -14.569   6.846  72.070  1.00  0.00     0.000 HD 
HETATM    5  C   UNL     2     -12.973   7.089  70.970  1.00  0.00    -0.143 C  
HETATM    6  C   UNL     3     -10.439  11.492  63.591  1.00  0.00    -0.427 C  
HETATM    7  H   UNL     3      -9.046  12.141  62.364  1.00  0.00     0.000 HD 
ENDROOT
BRANCH   5   8
HETATM    8  C   UNL     2     -11.447   7.086  71.203  1.00  0.00    -0.294 C  
HETATM    9  O   UNL     2     -11.047   5.752  71.498  1.00  0.00    -0.265 OA 
HETATM   10  H   UNL     2     -10.108   5.751  71.641  1.00  0.00     0.000 HD 
BRANCH   8  11
HETATM   11  C   UNL     2     -10.690   7.544  69.946  1.00  0.00    -0.246 C  
HETATM   12  H   UNL     2     -10.591   7.079  67.994  1.00  0.00     0.000 HD 
HETATM   13  O   UNL     2     -11.060   6.796  68.771  1.00  0.00    -0.227 OA 
BRANCH  11  14
HETATM   14  C   UNL     2     -10.645   9.049  69.586  1.00  0.00    -0.224 C  
HETATM   15  O   UNL     2     -11.285   9.271  68.340  1.00  0.00    -0.473 OA 
HETATM   16  H   UNL     2     -11.257  10.194  68.119  1.00  0.00     0.000 HD 
BRANCH  14  17
HETATM   17  C   UNL     2      -9.312   9.798  69.776  1.00  0.00    -0.226 C  
HETATM   18  H   UNL     2      -7.490   9.282  70.254  1.00  0.00     0.000 HD 
HETATM   19  O   UNL     2      -8.312   8.820  70.137  1.00  0.00    -0.115 OA 
BRANCH  17  20
HETATM   20  C   UNL     2      -8.859  10.666  68.602  1.00  0.00    -0.151 C  
HETATM   21  O   UNL     2      -8.095  11.807  69.052  1.00  0.00    -0.345 OA 
HETATM   22  C   UNL     2      -7.976   9.780  67.679  1.00  0.00    -0.105 C  
HETATM   23  H   UNL     2      -7.814  12.346  68.322  1.00  0.00     0.000 HD 
HETATM   24  O   UNL     2      -8.397   8.601  67.537  1.00  0.00    -0.118 OA 
HETATM   25  O   UNL     2      -6.958  10.377  67.237  1.00  0.00    -0.083 OA 
ENDBRANCH  17  20
ENDBRANCH  14  17
ENDBRANCH  11  14
ENDBRANCH   8  11
ENDBRANCH   5   8
BRANCH   6  26
HETATM   26  C   UNL     3     -10.696  11.493  65.104  1.00  0.00    -0.289 C  
HETATM   27  H   UNL     3      -9.698  12.062  66.642  1.00  0.00     0.000 HD 
HETATM   28  O   UNL     3      -9.540  12.062  65.705  1.00  0.00    -0.241 OA 
BRANCH  26  29
HETATM   29  C   UNL     3     -12.008  12.231  65.478  1.00  0.00    -0.321 C  
HETATM   30  O   UNL     3     -12.251  12.077  66.946  1.00  0.00    -0.529 OA 
HETATM   31  H   UNL     3     -13.054  12.529  67.175  1.00  0.00     0.000 HD 
BRANCH  29  32
HETATM   32  C   UNL     3     -11.943  13.765  65.313  1.00  0.00    -0.374 C  
HETATM   33  H   UNL     3     -12.284  15.015  63.829  1.00  0.00     0.000 HD 
HETATM   34  O   UNL     3     -12.324  14.071  63.931  1.00  0.00    -0.659 OA 
BRANCH  32  35
HETATM   35  C   UNL     3     -10.844  14.670  65.892  1.00  0.00    -0.312 C  
HETATM   36  H   UNL     3      -9.967  16.291  65.306  1.00  0.00     0.000 HD 
HETATM   37  O   UNL     3     -10.646  15.731  64.948  1.00  0.00    -0.490 OA 
BRANCH  35  38
HETATM   38  C   UNL     3     -11.061  15.189  67.309  1.00  0.00    -0.332 C  
HETATM   39  C   UNL     3      -9.887  14.769  68.231  1.00  0.00    -0.222 C  
HETATM   40  O   UNL     3     -12.288  14.675  67.864  1.00  0.00    -0.614 OA 
HETATM   41  O   UNL     3      -8.926  14.157  67.666  1.00  0.00    -0.176 OA 
HETATM   42  O   UNL     3     -10.142  14.880  69.461  1.00  0.00    -0.190 OA 
HETATM   43  H   UNL     3     -12.423  14.999  68.747  1.00  0.00     0.000 HD 
ENDBRANCH  35  38
ENDBRANCH  32  35
ENDBRANCH  29  32
ENDBRANCH  26  29
ENDBRANCH   6  26
TORSDOF 10
ENDMDL
MODEL      199
REMARK 921   NORMALIZED FREE ENERGY PREDICTED BY IDOCK:   -5.52 KCAL/MOL
REMARK 922        TOTAL FREE ENERGY PREDICTED BY IDOCK:  -11.24 KCAL/MOL
REMARK 923 INTER-LIGAND FREE ENERGY PREDICTED BY IDOCK:   -8.23 KCAL/MOL
REMARK 924 INTRA-LIGAND FREE ENERGY PREDICTED BY IDOCK:   -3.01 KCAL/MOL
REMARK 927      BINDING AFFINITY PREDICTED BY RF-SCORE:    0.00 PKD
ROOT
HETATM    1 CA   UNL     1     -10.871  10.575  65.945  1.00  0.00    -0.242 Ca 
HETATM    2  O   UNL     2      -9.565   5.053  66.798  1.00  0.00    -0.133 OA 
HETATM    3  O   UNL     3     -10.751  16.031  69.072  1.00  0.00    -0.239 OA 
HETATM    4  H   UNL     2     -10.425   4.671  66.931  1.00  0.00     0.000 HD 
HETATM    5  C   UNL     2      -9.707   6.464  66.634  1.00  0.00    -0.153 C  
HETATM    6  C   UNL     3     -11.628  14.960  68.732  1.00  0.00    -0.323 C  
HETATM    7  H   UNL     3     -11.141  16.863  68.831  1.00  0.00     0.000 HD 
ENDROOT
BRANCH   5   8
HETATM    8  C   UNL     2      -8.311   7.084  66.419  1.00  0.00    -0.125 C  
HETATM    9  O   UNL     2      -8.068   7.149  65.017  1.00  0.00    -0.125 OA 
HETATM   10  H   UNL     2      -7.208   7.531  64.884  1.00  0.00     0.000 HD 
BRANCH   8  11
HETATM   11  C   UNL     2      -8.242   8.513  66.980  1.00  0.00    -0.107 C  
HETATM   12  H   UNL     2      -9.470  10.076  67.277  1.00  0.00     0.000 HD 
HETATM   13  O   UNL     2      -9.512   9.193  66.930  1.00  0.00    -0.153 OA 
BRANCH  11  14
HETATM   14  C   UNL     2      -7.599   8.760  68.367  1.00  0.00    -0.095 C  
HETATM   15  O   UNL     2      -6.192   8.881  68.236  1.00  0.00    -0.053 OA 
HETATM   16  H   UNL     2      -5.797   9.033  69.088  1.00  0.00     0.000 HD 
BRANCH  14  17
HETATM   17  C   UNL     2      -8.070   7.889  69.547  1.00  0.00    -0.121 C  
HETATM   18  H   UNL     2      -7.263   6.488  70.644  1.00  0.00     0.000 HD 
HETATM   19  O   UNL     2      -6.971   7.026  69.916  1.00  0.00    -0.058 OA 
BRANCH  17  20
HETATM   20  C   UNL     2      -8.629   8.642  70.754  1.00  0.00    -0.171 C  
HETATM   21  O   UNL     2      -7.981   9.921  70.926  1.00  0.00    -0.379 OA 
HETATM   22  C   UNL     2     -10.149   8.858  70.508  1.00  0.00    -0.205 C  
HETATM   23  H   UNL     2      -8.328  10.389  71.676  1.00  0.00     0.000 HD 
HETATM   24  O   UNL     2     -10.733   7.871  69.985  1.00  0.00    -0.240 OA 
HETATM   25  O   UNL     2     -10.553  10.001  70.849  1.00  0.00    -0.271 OA 
ENDBRANCH  17  20
ENDBRANCH  14  17
ENDBRANCH  11  14
ENDBRANCH   8  11
ENDBRANCH   5   8
BRANCH   6  26
HETATM   26  C   UNL     3     -10.998  13.615  69.121  1.00  0.00    -0.194 C  
HETATM   27  H   UNL     3     -11.557  12.120  70.187  1.00  0.00     0.000 HD 
HETATM   28  O   UNL     3     -11.947  12.952  69.946  1.00  0.00    -0.324 OA 
BRANCH  26  29
HETATM   29  C   UNL     3     -10.575  12.783  67.882  1.00  0.00    -0.221 C  
HETATM   30  O   UNL     3     -11.063  11.379  68.050  1.00  0.00    -0.219 OA 
HETATM   31  H   UNL     3     -10.804  10.870  67.291  1.00  0.00     0.000 HD 
BRANCH  29  32
HETATM   32  C   UNL     3     -11.255  13.215  66.565  1.00  0.00    -0.310 C  
HETATM   33  H   UNL     3     -12.828  12.600  65.549  1.00  0.00     0.000 HD 
HETATM   34  O   UNL     3     -12.409  12.334  66.360  1.00  0.00    -0.531 OA 
BRANCH  32  35
HETATM   35  C   UNL     3     -10.516  13.615  65.279  1.00  0.00    -0.351 C  
HETATM   36  H   UNL     3      -9.623  12.645  63.864  1.00  0.00     0.000 HD 
HETATM   37  O   UNL     3     -10.080  12.398  64.659  1.00  0.00    -0.283 OA 
BRANCH  35  38
HETATM   38  C   UNL     3     -11.268  14.521  64.310  1.00  0.00    -0.062 C  
HETATM   39  C   UNL     3     -10.948  16.012  64.595  1.00  0.00    -0.278 C  
HETATM   40  O   UNL     3     -12.692  14.327  64.423  1.00  0.00    -0.661 OA 
HETATM   41  O   UNL     3     -10.080  16.234  65.496  1.00  0.00    -0.477 OA 
HETATM   42  O   UNL     3     -11.760  16.816  64.060  1.00  0.00    -1.120 OA 
HETATM   43  H   UNL     3     -13.161  14.892  63.819  1.00  0.00     0.000 HD 
ENDBRANCH  35  38
ENDBRANCH  32  35
ENDBRANCH  29  32
ENDBRANCH  26  29
ENDBRANCH   6  26
TORSDOF 10
ENDMDL
MODEL      200
REMARK 921   NORMALIZED FREE ENERGY PREDICTED BY IDOCK:   -5.51 KCAL/MOL
REMARK 922        TOTAL FREE ENERGY PREDICTED BY IDOCK:  -11.23 KCAL/MOL
REMARK 923 INTER-LIGAND FREE ENERGY PREDICTED BY IDOCK:   -8.83 KCAL/MOL
REMARK 924 INTRA-LIGAND FREE ENERGY PREDICTED BY IDOCK:   -2.40 KCAL/MOL
REMARK 927      BINDING AFFINITY PREDICTED BY RF-SCORE:    0.00 PKD
ROOT
HETATM    1 CA   UNL     1     -10.139  12.059  69.588  1.00  0.00    -0.404 Ca 
HETATM    2  O   UNL     2     -14.409  15.518  71.238  1.00  0.00    -0.693 OA 
HETATM    3  O   UNL     3      -7.224  10.286  64.306  1.00  0.00    -0.219 OA 
HETATM    4  H   UNL     2     -15.110  14.896  71.395  1.00  0.00     0.000 HD 
HETATM    5  C   UNL     2     -13.269  14.815  70.747  1.00  0.00    -0.305 C  
HETATM    6  C   UNL     3      -8.257   9.879  65.199  1.00  0.00    -0.144 C  
HETATM    7  H   UNL     3      -6.603   9.578  64.178  1.00  0.00     0.000 HD 
ENDROOT
BRANCH   5   8
HETATM    8  C   UNL     2     -12.131  15.825  70.492  1.00  0.00    -0.374 C  
HETATM    9  O   UNL     2     -11.431  16.020  71.716  1.00  0.00    -0.413 OA 
HETATM   10  H   UNL     2     -10.730  16.642  71.559  1.00  0.00     0.000 HD 
BRANCH   8  11
HETATM   11  C   UNL     2     -11.132  15.290  69.452  1.00  0.00    -0.280 C  
HETATM   12  H   UNL     2     -10.334  13.532  68.896  1.00  0.00     0.000 HD 
HETATM   13  O   UNL     2     -10.951  13.863  69.539  1.00  0.00    -0.181 OA 
BRANCH  11  14
HETATM   14  C   UNL     2     -11.294  15.684  67.964  1.00  0.00    -0.324 C  
HETATM   15  O   UNL     2     -12.002  14.671  67.267  1.00  0.00    -0.448 OA 
HETATM   16  H   UNL     2     -12.101  14.913  66.353  1.00  0.00     0.000 HD 
BRANCH  14  17
HETATM   17  C   UNL     2     -10.063  16.243  67.226  1.00  0.00    -0.264 C  
HETATM   18  H   UNL     2      -9.230  15.929  65.488  1.00  0.00     0.000 HD 
HETATM   19  O   UNL     2      -9.990  15.584  65.942  1.00  0.00    -0.296 OA 
BRANCH  17  20
HETATM   20  C   UNL     2      -9.999  17.764  67.087  1.00  0.00    -0.322 C  
HETATM   21  O   UNL     2     -11.128  18.401  67.725  1.00  0.00    -0.218 OA 
HETATM   22  C   UNL     2      -8.683  18.241  67.762  1.00  0.00    -0.256 C  
HETATM   23  H   UNL     2     -11.089  19.346  67.638  1.00  0.00     0.000 HD 
HETATM   24  O   UNL     2      -7.693  17.491  67.551  1.00  0.00    -0.193 OA 
HETATM   25  O   UNL     2      -8.821  19.294  68.440  1.00  0.00    -0.329 OA 
ENDBRANCH  17  20
ENDBRANCH  14  17
ENDBRANCH  11  14
ENDBRANCH   8  11
ENDBRANCH   5   8
BRANCH   6  26
HETATM   26  C   UNL     3      -9.259  11.023  65.405  1.00  0.00    -0.210 C  
HETATM   27  H   UNL     3     -11.034  11.393  64.775  1.00  0.00     0.000 HD 
HETATM   28  O   UNL     3     -10.413  10.685  64.647  1.00  0.00    -0.336 OA 
BRANCH  26  29
HETATM   29  C   UNL     3      -9.564  11.275  66.906  1.00  0.00    -0.191 C  
HETATM   30  O   UNL     3     -10.389  12.515  67.032  1.00  0.00    -0.223 OA 
HETATM   31  H   UNL     3     -10.575  12.670  67.951  1.00  0.00     0.000 HD 
BRANCH  29  32
HETATM   32  C   UNL     3     -10.468  10.207  67.558  1.00  0.00    -0.253 C  
HETATM   33  H   UNL     3     -12.324  10.176  68.218  1.00  0.00     0.000 HD 
HETATM   34  O   UNL     3     -11.767  10.833  67.817  1.00  0.00    -0.547 OA 
BRANCH  32  35
HETATM   35  C   UNL     3     -10.016   9.201  68.627  1.00  0.00    -0.170 C  
HETATM   36  H   UNL     3     -10.170   9.098  70.552  1.00  0.00     0.000 HD 
HETATM   37  O   UNL     3     -10.449   9.721  69.891  1.00  0.00    -0.224 OA 
BRANCH  35  38
HETATM   38  C   UNL     3     -10.437   7.749  68.424  1.00  0.00    -0.166 C  
HETATM   39  C   UNL     3      -9.193   6.830  68.312  1.00  0.00    -0.122 C  
HETATM   40  O   UNL     3     -11.225   7.605  67.226  1.00  0.00    -0.495 OA 
HETATM   41  O   UNL     3      -8.066   7.391  68.485  1.00  0.00    -0.121 OA 
HETATM   42  O   UNL     3      -9.446   5.690  67.831  1.00  0.00    -0.110 OA 
HETATM   43  H   UNL     3     -11.488   6.700  67.099  1.00  0.00     0.000 HD 
ENDBRANCH  35  38
ENDBRANCH  32  35
ENDBRANCH  29  32
ENDBRANCH  26  29
ENDBRANCH   6  26
TORSDOF 10
ENDMDL
MODEL      201
REMARK 921   NORMALIZED FREE ENERGY PREDICTED BY IDOCK:   -5.49 KCAL/MOL
REMARK 922        TOTAL FREE ENERGY PREDICTED BY IDOCK:  -11.20 KCAL/MOL
REMARK 923 INTER-LIGAND FREE ENERGY PREDICTED BY IDOCK:   -8.93 KCAL/MOL
REMARK 924 INTRA-LIGAND FREE ENERGY PREDICTED BY IDOCK:   -2.27 KCAL/MOL
REMARK 927      BINDING AFFINITY PREDICTED BY RF-SCORE:    0.00 PKD
ROOT
HETATM    1 CA   UNL     1      -8.886  12.438  69.237  1.00  0.00    -0.346 Ca 
HETATM    2  O   UNL     2      -9.322   9.098  64.592  1.00  0.00    -0.438 OA 
HETATM    3  O   UNL     3     -12.589  14.946  73.659  1.00  0.00    -0.519 OA 
HETATM    4  H   UNL     2      -9.250   9.735  63.891  1.00  0.00     0.000 HD 
HETATM    5  C   UNL     2      -9.298   9.784  65.843  1.00  0.00    -0.205 C  
HETATM    6  C   UNL     3     -11.973  15.258  72.412  1.00  0.00    -0.419 C  
HETATM    7  H   UNL     3     -12.379  15.610  74.304  1.00  0.00     0.000 HD 
ENDROOT
BRANCH   5   8
HETATM    8  C   UNL     2      -9.415   8.750  66.982  1.00  0.00    -0.169 C  
HETATM    9  O   UNL     2     -10.462   9.168  67.852  1.00  0.00    -0.227 OA 
HETATM   10  H   UNL     2     -10.534   8.531  68.554  1.00  0.00     0.000 HD 
BRANCH   8  11
HETATM   11  C   UNL     2      -9.775   7.358  66.438  1.00  0.00    -0.093 C  
HETATM   12  H   UNL     2      -9.042   6.013  65.138  1.00  0.00     0.000 HD 
HETATM   13  O   UNL     2      -8.819   6.874  65.474  1.00  0.00    -0.086 OA 
BRANCH  11  14
HETATM   14  C   UNL     2     -10.111   6.214  67.426  1.00  0.00    -0.156 C  
HETATM   15  O   UNL     2     -11.170   6.608  68.284  1.00  0.00    -0.511 OA 
HETATM   16  H   UNL     2     -11.376   5.905  68.890  1.00  0.00     0.000 HD 
BRANCH  14  17
HETATM   17  C   UNL     2      -8.941   5.495  68.125  1.00  0.00    -0.108 C  
HETATM   18  H   UNL     2      -8.593   4.853  69.936  1.00  0.00     0.000 HD 
HETATM   19  O   UNL     2      -9.315   5.297  69.506  1.00  0.00    -0.119 OA 
BRANCH  17  20
HETATM   20  C   UNL     2      -8.469   4.196  67.473  1.00  0.00    -0.099 C  
HETATM   21  O   UNL     2      -9.380   3.761  66.440  1.00  0.00    -0.164 OA 
HETATM   22  C   UNL     2      -7.069   4.466  66.851  1.00  0.00    -0.068 C  
HETATM   23  H   UNL     2      -9.087   2.953  66.035  1.00  0.00     0.000 HD 
HETATM   24  O   UNL     2      -6.320   5.189  67.560  1.00  0.00    -0.037 OA 
HETATM   25  O   UNL     2      -6.915   3.937  65.718  1.00  0.00    -0.059 OA 
ENDBRANCH  17  20
ENDBRANCH  14  17
ENDBRANCH  11  14
ENDBRANCH   8  11
ENDBRANCH   5   8
BRANCH   6  26
HETATM   26  C   UNL     3     -12.314  14.184  71.369  1.00  0.00    -0.344 C  
HETATM   27  H   UNL     3     -13.830  13.054  71.041  1.00  0.00     0.000 HD 
HETATM   28  O   UNL     3     -13.619  13.718  71.686  1.00  0.00    -0.347 OA 
BRANCH  26  29
HETATM   29  C   UNL     3     -12.189  14.715  69.917  1.00  0.00    -0.316 C  
HETATM   30  O   UNL     3     -10.962  15.564  69.813  1.00  0.00    -0.247 OA 
HETATM   31  H   UNL     3     -10.886  15.889  68.924  1.00  0.00     0.000 HD 
BRANCH  29  32
HETATM   32  C   UNL     3     -11.923  13.619  68.862  1.00  0.00    -0.356 C  
HETATM   33  H   UNL     3     -11.210  11.784  68.918  1.00  0.00     0.000 HD 
HETATM   34  O   UNL     3     -11.373  12.458  69.567  1.00  0.00    -0.245 OA 
BRANCH  32  35
HETATM   35  C   UNL     3     -11.329  13.863  67.465  1.00  0.00    -0.318 C  
HETATM   36  H   UNL     3      -9.573  14.312  66.792  1.00  0.00     0.000 HD 
HETATM   37  O   UNL     3      -9.940  14.162  67.656  1.00  0.00    -0.228 OA 
BRANCH  35  38
HETATM   38  C   UNL     3     -11.548  12.768  66.427  1.00  0.00    -0.378 C  
HETATM   39  C   UNL     3     -12.609  13.207  65.384  1.00  0.00    -0.454 C  
HETATM   40  O   UNL     3     -11.996  11.548  67.052  1.00  0.00    -0.556 OA 
HETATM   41  O   UNL     3     -13.048  14.394  65.502  1.00  0.00    -0.553 OA 
HETATM   42  O   UNL     3     -13.070  12.254  64.697  1.00  0.00    -0.770 OA 
HETATM   43  H   UNL     3     -12.132  10.865  66.405  1.00  0.00     0.000 HD 
ENDBRANCH  35  38
ENDBRANCH  32  35
ENDBRANCH  29  32
ENDBRANCH  26  29
ENDBRANCH   6  26
TORSDOF 10
ENDMDL
MODEL      202
REMARK 921   NORMALIZED FREE ENERGY PREDICTED BY IDOCK:   -5.47 KCAL/MOL
REMARK 922        TOTAL FREE ENERGY PREDICTED BY IDOCK:  -11.17 KCAL/MOL
REMARK 923 INTER-LIGAND FREE ENERGY PREDICTED BY IDOCK:   -8.74 KCAL/MOL
REMARK 924 INTRA-LIGAND FREE ENERGY PREDICTED BY IDOCK:   -2.43 KCAL/MOL
REMARK 927      BINDING AFFINITY PREDICTED BY RF-SCORE:    0.00 PKD
ROOT
HETATM    1 CA   UNL     1      -9.247  11.745  69.588  1.00  0.00    -0.369 Ca 
HETATM    2  O   UNL     2     -10.455   7.102  66.441  1.00  0.00    -0.489 OA 
HETATM    3  O   UNL     3     -12.267  16.320  72.671  1.00  0.00    -0.495 OA 
HETATM    4  H   UNL     2     -10.288   7.418  65.561  1.00  0.00     0.000 HD 
HETATM    5  C   UNL     2     -10.262   8.175  67.361  1.00  0.00    -0.258 C  
HETATM    6  C   UNL     3     -11.644  16.042  71.420  1.00  0.00    -0.455 C  
HETATM    7  H   UNL     3     -11.914  17.120  73.042  1.00  0.00     0.000 HD 
ENDROOT
BRANCH   5   8
HETATM    8  C   UNL     2     -10.533   7.661  68.792  1.00  0.00    -0.189 C  
HETATM    9  O   UNL     2      -9.391   6.929  69.222  1.00  0.00    -0.145 OA 
HETATM   10  H   UNL     2      -9.557   6.613  70.103  1.00  0.00     0.000 HD 
BRANCH   8  11
HETATM   11  C   UNL     2     -10.751   8.826  69.771  1.00  0.00    -0.218 C  
HETATM   12  H   UNL     2     -10.868  10.831  69.725  1.00  0.00     0.000 HD 
HETATM   13  O   UNL     2     -10.734  10.111  69.120  1.00  0.00    -0.203 OA 
BRANCH  11  14
HETATM   14  C   UNL     2     -11.942   8.782  70.759  1.00  0.00    -0.133 C  
HETATM   15  O   UNL     2     -12.854   9.828  70.467  1.00  0.00    -0.534 OA 
HETATM   16  H   UNL     2     -13.586   9.801  71.073  1.00  0.00     0.000 HD 
BRANCH  14  17
HETATM   17  C   UNL     2     -11.634   8.585  72.255  1.00  0.00    -0.374 C  
HETATM   18  H   UNL     2     -12.590   8.931  73.923  1.00  0.00     0.000 HD 
HETATM   19  O   UNL     2     -12.780   9.052  73.000  1.00  0.00    -0.209 OA 
BRANCH  17  20
HETATM   20  C   UNL     2     -11.223   7.173  72.674  1.00  0.00    -0.293 C  
HETATM   21  O   UNL     2     -11.552   6.203  71.656  1.00  0.00    -0.295 OA 
HETATM   22  C   UNL     2      -9.686   7.183  72.906  1.00  0.00    -0.165 C  
HETATM   23  H   UNL     2     -11.296   5.325  71.916  1.00  0.00     0.000 HD 
HETATM   24  O   UNL     2      -9.256   8.220  73.478  1.00  0.00    -0.225 OA 
HETATM   25  O   UNL     2      -9.105   6.158  72.460  1.00  0.00    -0.139 OA 
ENDBRANCH  17  20
ENDBRANCH  14  17
ENDBRANCH  11  14
ENDBRANCH   8  11
ENDBRANCH   5   8
BRANCH   6  26
HETATM   26  C   UNL     3     -12.215  14.749  70.821  1.00  0.00    -0.314 C  
HETATM   27  H   UNL     3     -13.773  13.679  71.153  1.00  0.00     0.000 HD 
HETATM   28  O   UNL     3     -13.420  14.479  71.524  1.00  0.00    -0.341 OA 
BRANCH  26  29
HETATM   29  C   UNL     3     -12.410  14.849  69.285  1.00  0.00    -0.103 C  
HETATM   30  O   UNL     3     -11.466  15.872  68.740  1.00  0.00    -0.357 OA 
HETATM   31  H   UNL     3     -11.586  15.933  67.799  1.00  0.00     0.000 HD 
BRANCH  29  32
HETATM   32  C   UNL     3     -12.004  13.577  68.509  1.00  0.00    -0.344 C  
HETATM   33  H   UNL     3     -11.305  11.806  69.017  1.00  0.00     0.000 HD 
HETATM   34  O   UNL     3     -11.555  12.589  69.494  1.00  0.00    -0.284 OA 
BRANCH  32  35
HETATM   35  C   UNL     3     -11.226  13.561  67.184  1.00  0.00    -0.305 C  
HETATM   36  H   UNL     3     -11.285  14.606  65.558  1.00  0.00     0.000 HD 
HETATM   37  O   UNL     3     -11.766  14.616  66.378  1.00  0.00    -0.369 OA 
BRANCH  35  38
HETATM   38  C   UNL     3      -9.706  13.627  67.281  1.00  0.00    -0.243 C  
HETATM   39  C   UNL     3      -9.060  12.389  66.607  1.00  0.00    -0.204 C  
HETATM   40  O   UNL     3      -9.279  13.676  68.657  1.00  0.00    -0.334 OA 
HETATM   41  O   UNL     3      -9.860  11.588  66.027  1.00  0.00    -0.210 OA 
HETATM   42  O   UNL     3      -7.851  12.212  66.921  1.00  0.00    -0.146 OA 
HETATM   43  H   UNL     3      -8.331  13.717  68.718  1.00  0.00     0.000 HD 
ENDBRANCH  35  38
ENDBRANCH  32  35
ENDBRANCH  29  32
ENDBRANCH  26  29
ENDBRANCH   6  26
TORSDOF 10
ENDMDL
MODEL      203
REMARK 921   NORMALIZED FREE ENERGY PREDICTED BY IDOCK:   -5.47 KCAL/MOL
REMARK 922        TOTAL FREE ENERGY PREDICTED BY IDOCK:  -11.17 KCAL/MOL
REMARK 923 INTER-LIGAND FREE ENERGY PREDICTED BY IDOCK:   -8.13 KCAL/MOL
REMARK 924 INTRA-LIGAND FREE ENERGY PREDICTED BY IDOCK:   -3.04 KCAL/MOL
REMARK 927      BINDING AFFINITY PREDICTED BY RF-SCORE:    0.00 PKD
ROOT
HETATM    1 CA   UNL     1      -8.147  11.965  67.118  1.00  0.00    -0.119 Ca 
HETATM    2  O   UNL     2      -7.315   7.203  70.210  1.00  0.00    -0.079 OA 
HETATM    3  O   UNL     3     -12.767  14.847  63.972  1.00  0.00    -0.792 OA 
HETATM    4  H   UNL     2      -6.854   6.650  69.589  1.00  0.00     0.000 HD 
HETATM    5  C   UNL     2      -7.663   8.428  69.566  1.00  0.00    -0.096 C  
HETATM    6  C   UNL     3     -11.661  13.971  63.773  1.00  0.00    -0.027 C  
HETATM    7  H   UNL     3     -12.711  15.587  63.378  1.00  0.00     0.000 HD 
ENDROOT
BRANCH   5   8
HETATM    8  C   UNL     2      -8.411   9.327  70.573  1.00  0.00    -0.205 C  
HETATM    9  O   UNL     2      -8.140  10.684  70.240  1.00  0.00    -0.323 OA 
HETATM   10  H   UNL     2      -8.601  11.237  70.860  1.00  0.00     0.000 HD 
BRANCH   8  11
HETATM   11  C   UNL     2      -9.931   9.110  70.493  1.00  0.00    -0.235 C  
HETATM   12  H   UNL     2     -11.325   8.716  69.101  1.00  0.00     0.000 HD 
HETATM   13  O   UNL     2     -10.386   8.850  69.151  1.00  0.00    -0.212 OA 
BRANCH  11  14
HETATM   14  C   UNL     2     -10.611   8.105  71.455  1.00  0.00    -0.220 C  
HETATM   15  O   UNL     2     -10.517   8.571  72.791  1.00  0.00    -0.250 OA 
HETATM   16  H   UNL     2     -10.935   7.954  73.381  1.00  0.00     0.000 HD 
BRANCH  14  17
HETATM   17  C   UNL     2     -10.310   6.606  71.265  1.00  0.00    -0.205 C  
HETATM   18  H   UNL     2     -10.257   5.045  72.438  1.00  0.00     0.000 HD 
HETATM   19  O   UNL     2     -10.443   5.970  72.556  1.00  0.00    -0.191 OA 
BRANCH  17  20
HETATM   20  C   UNL     2     -11.130   5.889  70.193  1.00  0.00    -0.325 C  
HETATM   21  O   UNL     2     -12.099   6.774  69.588  1.00  0.00    -0.635 OA 
HETATM   22  C   UNL     2     -10.139   5.383  69.107  1.00  0.00    -0.223 C  
HETATM   23  H   UNL     2     -12.608   6.328  68.921  1.00  0.00     0.000 HD 
HETATM   24  O   UNL     2      -9.060   4.922  69.567  1.00  0.00    -0.096 OA 
HETATM   25  O   UNL     2     -10.564   5.537  67.931  1.00  0.00    -0.205 OA 
ENDBRANCH  17  20
ENDBRANCH  14  17
ENDBRANCH  11  14
ENDBRANCH   8  11
ENDBRANCH   5   8
BRANCH   6  26
HETATM   26  C   UNL     3     -11.752  12.777  64.733  1.00  0.00    -0.352 C  
HETATM   27  H   UNL     3     -13.187  11.876  65.634  1.00  0.00     0.000 HD 
HETATM   28  O   UNL     3     -13.131  12.615  65.040  1.00  0.00    -0.808 OA 
BRANCH  26  29
HETATM   29  C   UNL     3     -11.101  11.497  64.143  1.00  0.00    -0.344 C  
HETATM   30  O   UNL     3      -9.973  11.895  63.246  1.00  0.00    -0.426 OA 
HETATM   31  H   UNL     3      -9.575  11.112  62.885  1.00  0.00     0.000 HD 
BRANCH  29  32
HETATM   32  C   UNL     3     -10.395  10.606  65.188  1.00  0.00    -0.261 C  
HETATM   33  H   UNL     3     -10.022  10.758  67.116  1.00  0.00     0.000 HD 
HETATM   34  O   UNL     3     -10.456  11.307  66.473  1.00  0.00    -0.235 OA 
BRANCH  32  35
HETATM   35  C   UNL     3      -9.097   9.820  64.946  1.00  0.00    -0.229 C  
HETATM   36  H   UNL     3      -7.212  10.244  65.039  1.00  0.00     0.000 HD 
HETATM   37  O   UNL     3      -8.015  10.729  65.188  1.00  0.00    -0.089 OA 
BRANCH  35  38
HETATM   38  C   UNL     3      -8.935   8.511  65.710  1.00  0.00    -0.182 C  
HETATM   39  C   UNL     3      -8.351   7.409  64.789  1.00  0.00     0.008 C  
HETATM   40  O   UNL     3     -10.202   8.056  66.226  1.00  0.00    -0.481 OA 
HETATM   41  O   UNL     3      -8.031   7.774  63.614  1.00  0.00    -0.138 OA 
HETATM   42  O   UNL     3      -8.487   6.240  65.247  1.00  0.00    -0.151 OA 
HETATM   43  H   UNL     3     -10.101   7.240  66.703  1.00  0.00     0.000 HD 
ENDBRANCH  35  38
ENDBRANCH  32  35
ENDBRANCH  29  32
ENDBRANCH  26  29
ENDBRANCH   6  26
TORSDOF 10
ENDMDL
MODEL      204
REMARK 921   NORMALIZED FREE ENERGY PREDICTED BY IDOCK:   -5.47 KCAL/MOL
REMARK 922        TOTAL FREE ENERGY PREDICTED BY IDOCK:  -11.16 KCAL/MOL
REMARK 923 INTER-LIGAND FREE ENERGY PREDICTED BY IDOCK:   -9.52 KCAL/MOL
REMARK 924 INTRA-LIGAND FREE ENERGY PREDICTED BY IDOCK:   -1.65 KCAL/MOL
REMARK 927      BINDING AFFINITY PREDICTED BY RF-SCORE:    0.00 PKD
ROOT
HETATM    1 CA   UNL     1      -9.333  12.583  69.202  1.00  0.00    -0.347 Ca 
HETATM    2  O   UNL     2     -14.075  15.349  70.872  1.00  0.00    -0.823 OA 
HETATM    3  O   UNL     3      -6.804  10.217  63.953  1.00  0.00    -0.209 OA 
HETATM    4  H   UNL     2     -14.569  14.651  71.286  1.00  0.00     0.000 HD 
HETATM    5  C   UNL     2     -12.872  14.806  70.332  1.00  0.00    -0.274 C  
HETATM    6  C   UNL     3      -7.571   9.835  65.091  1.00  0.00    -0.125 C  
HETATM    7  H   UNL     3      -6.049   9.650  63.860  1.00  0.00     0.000 HD 
ENDROOT
BRANCH   5   8
HETATM    8  C   UNL     2     -12.070  15.940  69.658  1.00  0.00    -0.201 C  
HETATM    9  O   UNL     2     -11.301  16.594  70.662  1.00  0.00    -0.518 OA 
HETATM   10  H   UNL     2     -10.808  17.292  70.248  1.00  0.00     0.000 HD 
BRANCH   8  11
HETATM   11  C   UNL     2     -11.101  15.388  68.601  1.00  0.00    -0.289 C  
HETATM   12  H   UNL     2     -10.299  13.624  68.068  1.00  0.00     0.000 HD 
HETATM   13  O   UNL     2     -10.898  13.966  68.722  1.00  0.00    -0.252 OA 
BRANCH  11  14
HETATM   14  C   UNL     2     -11.319  15.735  67.108  1.00  0.00    -0.025 C  
HETATM   15  O   UNL     2     -11.881  14.625  66.427  1.00  0.00    -0.365 OA 
HETATM   16  H   UNL     2     -12.015  14.839  65.510  1.00  0.00     0.000 HD 
BRANCH  14  17
HETATM   17  C   UNL     2     -10.179  16.451  66.358  1.00  0.00    -0.316 C  
HETATM   18  H   UNL     2      -9.476  16.403  64.537  1.00  0.00     0.000 HD 
HETATM   19  O   UNL     2     -10.179  15.961  64.999  1.00  0.00    -0.484 OA 
BRANCH  17  20
HETATM   20  C   UNL     2     -10.198  17.978  66.411  1.00  0.00    -0.393 C  
HETATM   21  O   UNL     2     -10.859  18.458  67.602  1.00  0.00    -0.406 OA 
HETATM   22  C   UNL     2      -8.721  18.464  66.404  1.00  0.00    -0.247 C  
HETATM   23  H   UNL     2     -10.871  19.407  67.635  1.00  0.00     0.000 HD 
HETATM   24  O   UNL     2      -7.967  17.815  65.631  1.00  0.00    -0.532 OA 
HETATM   25  O   UNL     2      -8.506  19.421  67.195  1.00  0.00    -0.277 OA 
ENDBRANCH  17  20
ENDBRANCH  14  17
ENDBRANCH  11  14
ENDBRANCH   8  11
ENDBRANCH   5   8
BRANCH   6  26
HETATM   26  C   UNL     3      -8.793  10.752  65.240  1.00  0.00    -0.187 C  
HETATM   27  H   UNL     3     -10.601  10.708  64.597  1.00  0.00     0.000 HD 
HETATM   28  O   UNL     3      -9.845  10.140  64.505  1.00  0.00    -0.324 OA 
BRANCH  26  29
HETATM   29  C   UNL     3      -9.154  11.014  66.726  1.00  0.00    -0.162 C  
HETATM   30  O   UNL     3     -10.257  12.022  66.787  1.00  0.00    -0.200 OA 
HETATM   31  H   UNL     3     -10.478  12.183  67.697  1.00  0.00     0.000 HD 
BRANCH  29  32
HETATM   32  C   UNL     3      -9.774   9.801  67.452  1.00  0.00    -0.163 C  
HETATM   33  H   UNL     3     -11.246   8.552  67.058  1.00  0.00     0.000 HD 
HETATM   34  O   UNL     3     -10.865   9.299  66.612  1.00  0.00    -0.072 OA 
BRANCH  32  35
HETATM   35  C   UNL     3     -10.035   9.715  68.963  1.00  0.00    -0.185 C  
HETATM   36  H   UNL     3      -8.980  10.052  70.549  1.00  0.00     0.000 HD 
HETATM   37  O   UNL     3      -8.819  10.105  69.614  1.00  0.00    -0.195 OA 
BRANCH  35  38
HETATM   38  C   UNL     3     -11.245  10.476  69.494  1.00  0.00    -0.271 C  
HETATM   39  C   UNL     3     -11.921   9.691  70.649  1.00  0.00    -0.229 C  
HETATM   40  O   UNL     3     -12.218  10.688  68.451  1.00  0.00    -0.822 OA 
HETATM   41  O   UNL     3     -11.336   8.624  71.016  1.00  0.00    -0.259 OA 
HETATM   42  O   UNL     3     -13.088  10.089  70.917  1.00  0.00    -0.366 OA 
HETATM   43  H   UNL     3     -12.972  11.162  68.782  1.00  0.00     0.000 HD 
ENDBRANCH  35  38
ENDBRANCH  32  35
ENDBRANCH  29  32
ENDBRANCH  26  29
ENDBRANCH   6  26
TORSDOF 10
ENDMDL
MODEL      205
REMARK 921   NORMALIZED FREE ENERGY PREDICTED BY IDOCK:   -5.46 KCAL/MOL
REMARK 922        TOTAL FREE ENERGY PREDICTED BY IDOCK:  -11.16 KCAL/MOL
REMARK 923 INTER-LIGAND FREE ENERGY PREDICTED BY IDOCK:   -9.36 KCAL/MOL
REMARK 924 INTRA-LIGAND FREE ENERGY PREDICTED BY IDOCK:   -1.80 KCAL/MOL
REMARK 927      BINDING AFFINITY PREDICTED BY RF-SCORE:    0.00 PKD
ROOT
HETATM    1 CA   UNL     1     -13.131  10.602  68.818  1.00  0.00    -0.365 Ca 
HETATM    2  O   UNL     2     -10.046   7.530  72.555  1.00  0.00    -0.185 OA 
HETATM    3  O   UNL     3     -12.299  13.848  63.496  1.00  0.00    -0.976 OA 
HETATM    4  H   UNL     2      -9.953   8.142  73.276  1.00  0.00     0.000 HD 
HETATM    5  C   UNL     2     -10.747   8.172  71.492  1.00  0.00    -0.233 C  
HETATM    6  C   UNL     3     -12.382  14.024  64.907  1.00  0.00    -0.427 C  
HETATM    7  H   UNL     3     -12.904  14.434  63.056  1.00  0.00     0.000 HD 
ENDROOT
BRANCH   5   8
HETATM    8  C   UNL     2     -10.899   7.178  70.321  1.00  0.00    -0.249 C  
HETATM    9  O   UNL     2     -12.288   6.936  70.124  1.00  0.00    -0.628 OA 
HETATM   10  H   UNL     2     -12.381   6.324  69.403  1.00  0.00     0.000 HD 
BRANCH   8  11
HETATM   11  C   UNL     2     -10.326   7.759  69.018  1.00  0.00    -0.211 C  
HETATM   12  H   UNL     2      -8.685   8.739  68.398  1.00  0.00     0.000 HD 
HETATM   13  O   UNL     2      -9.039   8.380  69.204  1.00  0.00    -0.146 OA 
BRANCH  11  14
HETATM   14  C   UNL     2     -10.276   6.877  67.745  1.00  0.00    -0.180 C  
HETATM   15  O   UNL     2     -11.591   6.547  67.331  1.00  0.00    -0.719 OA 
HETATM   16  H   UNL     2     -11.560   6.006  66.550  1.00  0.00     0.000 HD 
BRANCH  14  17
HETATM   17  C   UNL     2      -9.270   5.711  67.713  1.00  0.00    -0.106 C  
HETATM   18  H   UNL     2      -9.102   4.002  68.644  1.00  0.00     0.000 HD 
HETATM   19  O   UNL     2      -9.723   4.721  68.664  1.00  0.00    -0.150 OA 
BRANCH  17  20
HETATM   20  C   UNL     2      -9.001   5.096  66.340  1.00  0.00    -0.125 C  
HETATM   21  O   UNL     2     -10.149   5.219  65.472  1.00  0.00    -0.388 OA 
HETATM   22  C   UNL     2      -7.795   5.854  65.717  1.00  0.00    -0.103 C  
HETATM   23  H   UNL     2      -9.982   4.836  64.618  1.00  0.00     0.000 HD 
HETATM   24  O   UNL     2      -6.878   6.128  66.536  1.00  0.00    -0.058 OA 
HETATM   25  O   UNL     2      -7.937   6.097  64.488  1.00  0.00    -0.115 OA 
ENDBRANCH  17  20
ENDBRANCH  14  17
ENDBRANCH  11  14
ENDBRANCH   8  11
ENDBRANCH   5   8
BRANCH   6  26
HETATM   26  C   UNL     3     -11.405  13.078  65.618  1.00  0.00    -0.301 C  
HETATM   27  H   UNL     3     -10.690  11.338  65.234  1.00  0.00     0.000 HD 
HETATM   28  O   UNL     3     -11.295  11.924  64.794  1.00  0.00    -0.316 OA 
BRANCH  26  29
HETATM   29  C   UNL     3     -10.040  13.754  65.912  1.00  0.00    -0.313 C  
HETATM   30  O   UNL     3      -9.811  14.842  64.911  1.00  0.00    -0.401 OA 
HETATM   31  H   UNL     3      -8.975  15.255  65.091  1.00  0.00     0.000 HD 
BRANCH  29  32
HETATM   32  C   UNL     3      -9.986  14.519  67.251  1.00  0.00    -0.236 C  
HETATM   33  H   UNL     3     -10.111  14.004  69.149  1.00  0.00     0.000 HD 
HETATM   34  O   UNL     3     -10.145  13.533  68.324  1.00  0.00    -0.236 OA 
BRANCH  32  35
HETATM   35  C   UNL     3     -10.655  15.875  67.521  1.00  0.00    -0.315 C  
HETATM   36  H   UNL     3     -12.215  16.451  68.510  1.00  0.00     0.000 HD 
HETATM   37  O   UNL     3     -11.801  15.613  68.342  1.00  0.00    -0.346 OA 
BRANCH  35  38
HETATM   38  C   UNL     3      -9.769  16.974  68.099  1.00  0.00    -0.268 C  
HETATM   39  C   UNL     3      -9.155  17.835  66.964  1.00  0.00    -0.252 C  
HETATM   40  O   UNL     3      -8.697  16.412  68.881  1.00  0.00    -0.238 OA 
HETATM   41  O   UNL     3      -9.538  17.557  65.784  1.00  0.00    -0.523 OA 
HETATM   42  O   UNL     3      -8.179  18.543  67.336  1.00  0.00    -0.248 OA 
HETATM   43  H   UNL     3      -8.144  17.097  69.242  1.00  0.00     0.000 HD 
ENDBRANCH  35  38
ENDBRANCH  32  35
ENDBRANCH  29  32
ENDBRANCH  26  29
ENDBRANCH   6  26
TORSDOF 10
ENDMDL
MODEL      206
REMARK 921   NORMALIZED FREE ENERGY PREDICTED BY IDOCK:   -5.44 KCAL/MOL
REMARK 922        TOTAL FREE ENERGY PREDICTED BY IDOCK:  -11.13 KCAL/MOL
REMARK 923 INTER-LIGAND FREE ENERGY PREDICTED BY IDOCK:   -9.72 KCAL/MOL
REMARK 924 INTRA-LIGAND FREE ENERGY PREDICTED BY IDOCK:   -1.41 KCAL/MOL
REMARK 927      BINDING AFFINITY PREDICTED BY RF-SCORE:    0.00 PKD
ROOT
HETATM    1 CA   UNL     1     -11.013  10.176  64.138  1.00  0.00    -0.369 Ca 
HETATM    2  O   UNL     2     -11.778  15.857  63.878  1.00  0.00    -1.111 OA 
HETATM    3  O   UNL     3      -8.207   5.917  67.818  1.00  0.00    -0.105 OA 
HETATM    4  H   UNL     2     -11.153  16.104  63.206  1.00  0.00     0.000 HD 
HETATM    5  C   UNL     2     -11.667  14.455  64.118  1.00  0.00    -0.227 C  
HETATM    6  C   UNL     3      -7.994   6.680  66.634  1.00  0.00    -0.105 C  
HETATM    7  H   UNL     3      -8.049   4.996  67.648  1.00  0.00     0.000 HD 
ENDROOT
BRANCH   5   8
HETATM    8  C   UNL     2     -12.682  14.053  65.209  1.00  0.00    -0.439 C  
HETATM    9  O   UNL     2     -13.333  12.859  64.790  1.00  0.00    -0.655 OA 
HETATM   10  H   UNL     2     -13.958  12.611  65.462  1.00  0.00     0.000 HD 
BRANCH   8  11
HETATM   11  C   UNL     2     -11.981  13.768  66.547  1.00  0.00    -0.434 C  
HETATM   12  H   UNL     2     -10.217  13.064  67.203  1.00  0.00     0.000 HD 
HETATM   13  O   UNL     2     -10.650  13.240  66.376  1.00  0.00    -0.279 OA 
BRANCH  11  14
HETATM   14  C   UNL     2     -11.945  14.864  67.641  1.00  0.00    -0.145 C  
HETATM   15  O   UNL     2     -10.726  15.584  67.568  1.00  0.00    -0.288 OA 
HETATM   16  H   UNL     2     -10.704  16.257  68.240  1.00  0.00     0.000 HD 
BRANCH  14  17
HETATM   17  C   UNL     2     -12.391  14.479  69.064  1.00  0.00    -0.086 C  
HETATM   18  H   UNL     2     -11.750  13.236  70.427  1.00  0.00     0.000 HD 
HETATM   19  O   UNL     2     -11.475  13.473  69.549  1.00  0.00    -0.274 OA 
BRANCH  17  20
HETATM   20  C   UNL     2     -12.541  15.634  70.054  1.00  0.00    -0.146 C  
HETATM   21  O   UNL     2     -13.663  15.429  70.941  1.00  0.00    -0.706 OA 
HETATM   22  C   UNL     2     -11.229  15.711  70.884  1.00  0.00    -0.369 C  
HETATM   23  H   UNL     2     -13.755  16.147  71.556  1.00  0.00     0.000 HD 
HETATM   24  O   UNL     2     -10.180  15.515  70.213  1.00  0.00    -0.294 OA 
HETATM   25  O   UNL     2     -11.424  15.934  72.109  1.00  0.00    -0.399 OA 
ENDBRANCH  17  20
ENDBRANCH  14  17
ENDBRANCH  11  14
ENDBRANCH   8  11
ENDBRANCH   5   8
BRANCH   6  26
HETATM   26  C   UNL     3      -8.249   8.168  66.909  1.00  0.00    -0.111 C  
HETATM   27  H   UNL     3      -7.601   9.810  66.156  1.00  0.00     0.000 HD 
HETATM   28  O   UNL     3      -7.443   8.889  65.986  1.00  0.00    -0.088 OA 
BRANCH  26  29
HETATM   29  C   UNL     3      -9.754   8.533  66.824  1.00  0.00    -0.236 C  
HETATM   30  O   UNL     3     -10.543   7.287  66.575  1.00  0.00    -0.505 OA 
HETATM   31  H   UNL     3     -11.465   7.511  66.523  1.00  0.00     0.000 HD 
BRANCH  29  32
HETATM   32  C   UNL     3     -10.358   9.048  68.148  1.00  0.00    -0.214 C  
HETATM   33  H   UNL     3     -10.949  10.806  68.812  1.00  0.00     0.000 HD 
HETATM   34  O   UNL     3     -10.577  10.489  67.997  1.00  0.00    -0.184 OA 
BRANCH  32  35
HETATM   35  C   UNL     3      -9.912   8.610  69.552  1.00  0.00    -0.196 C  
HETATM   36  H   UNL     3      -8.755   9.359  70.909  1.00  0.00     0.000 HD 
HETATM   37  O   UNL     3      -9.031   9.630  70.040  1.00  0.00    -0.207 OA 
BRANCH  35  38
HETATM   38  C   UNL     3     -11.017   8.274  70.548  1.00  0.00    -0.242 C  
HETATM   39  C   UNL     3     -11.510   6.817  70.346  1.00  0.00    -0.365 C  
HETATM   40  O   UNL     3     -12.139   9.164  70.392  1.00  0.00    -0.474 OA 
HETATM   41  O   UNL     3     -10.885   6.131  69.477  1.00  0.00    -0.284 OA 
HETATM   42  O   UNL     3     -12.617   6.574  70.902  1.00  0.00    -0.182 OA 
HETATM   43  H   UNL     3     -12.828   8.955  71.013  1.00  0.00     0.000 HD 
ENDBRANCH  35  38
ENDBRANCH  32  35
ENDBRANCH  29  32
ENDBRANCH  26  29
ENDBRANCH   6  26
TORSDOF 10
ENDMDL
MODEL      207
REMARK 921   NORMALIZED FREE ENERGY PREDICTED BY IDOCK:   -5.44 KCAL/MOL
REMARK 922        TOTAL FREE ENERGY PREDICTED BY IDOCK:  -11.11 KCAL/MOL
REMARK 923 INTER-LIGAND FREE ENERGY PREDICTED BY IDOCK:   -9.70 KCAL/MOL
REMARK 924 INTRA-LIGAND FREE ENERGY PREDICTED BY IDOCK:   -1.42 KCAL/MOL
REMARK 927      BINDING AFFINITY PREDICTED BY RF-SCORE:    0.00 PKD
ROOT
HETATM    1 CA   UNL     1     -12.539  12.870  69.415  1.00  0.00    -0.254 Ca 
HETATM    2  O   UNL     2     -11.485   8.230  72.622  1.00  0.00    -0.395 OA 
HETATM    3  O   UNL     3      -9.413  16.995  65.843  1.00  0.00    -0.492 OA 
HETATM    4  H   UNL     2     -11.524   8.591  73.500  1.00  0.00     0.000 HD 
HETATM    5  C   UNL     2     -11.664   9.287  71.680  1.00  0.00    -0.392 C  
HETATM    6  C   UNL     3      -9.924  16.826  67.163  1.00  0.00    -0.274 C  
HETATM    7  H   UNL     3      -9.719  17.816  65.476  1.00  0.00     0.000 HD 
ENDROOT
BRANCH   5   8
HETATM    8  C   UNL     2     -11.600   8.701  70.254  1.00  0.00     0.003 C  
HETATM    9  O   UNL     2     -10.877   9.613  69.433  1.00  0.00    -0.224 OA 
HETATM   10  H   UNL     2     -10.838   9.252  68.555  1.00  0.00     0.000 HD 
BRANCH   8  11
HETATM   11  C   UNL     2     -10.860   7.354  70.236  1.00  0.00    -0.245 C  
HETATM   12  H   UNL     2     -11.267   5.407  70.523  1.00  0.00     0.000 HD 
HETATM   13  O   UNL     2     -11.725   6.240  70.534  1.00  0.00    -0.354 OA 
BRANCH  11  14
HETATM   14  C   UNL     2      -9.971   6.986  69.022  1.00  0.00    -0.164 C  
HETATM   15  O   UNL     2      -8.808   7.798  69.007  1.00  0.00    -0.138 OA 
HETATM   16  H   UNL     2      -8.263   7.572  68.262  1.00  0.00     0.000 HD 
BRANCH  14  17
HETATM   17  C   UNL     2     -10.656   6.802  67.655  1.00  0.00    -0.259 C  
HETATM   18  H   UNL     2     -10.881   7.907  66.060  1.00  0.00     0.000 HD 
HETATM   19  O   UNL     2     -10.458   8.020  66.903  1.00  0.00    -0.330 OA 
BRANCH  17  20
HETATM   20  C   UNL     2     -10.235   5.569  66.856  1.00  0.00    -0.233 C  
HETATM   21  O   UNL     2     -11.289   5.126  65.973  1.00  0.00    -0.714 OA 
HETATM   22  C   UNL     2      -8.984   5.959  66.018  1.00  0.00    -0.151 C  
HETATM   23  H   UNL     2     -11.027   4.359  65.476  1.00  0.00     0.000 HD 
HETATM   24  O   UNL     2      -8.162   6.693  66.628  1.00  0.00    -0.108 OA 
HETATM   25  O   UNL     2      -9.003   5.496  64.846  1.00  0.00    -0.083 OA 
ENDBRANCH  17  20
ENDBRANCH  14  17
ENDBRANCH  11  14
ENDBRANCH   8  11
ENDBRANCH   5   8
BRANCH   6  26
HETATM   26  C   UNL     3      -9.428  15.500  67.756  1.00  0.00    -0.204 C  
HETATM   27  H   UNL     3      -9.832  14.496  69.341  1.00  0.00     0.000 HD 
HETATM   28  O   UNL     3     -10.139  15.316  68.974  1.00  0.00    -0.218 OA 
BRANCH  26  29
HETATM   29  C   UNL     3      -9.590  14.315  66.767  1.00  0.00    -0.280 C  
HETATM   30  O   UNL     3      -8.273  13.624  66.617  1.00  0.00    -0.397 OA 
HETATM   31  H   UNL     3      -8.372  12.899  66.012  1.00  0.00     0.000 HD 
BRANCH  29  32
HETATM   32  C   UNL     3     -10.503  13.181  67.280  1.00  0.00    -0.243 C  
HETATM   33  H   UNL     3     -10.340  11.786  68.662  1.00  0.00     0.000 HD 
HETATM   34  O   UNL     3      -9.778  12.484  68.346  1.00  0.00    -0.221 OA 
BRANCH  32  35
HETATM   35  C   UNL     3     -11.367  12.272  66.392  1.00  0.00    -0.354 C  
HETATM   36  H   UNL     3     -12.555  10.781  66.717  1.00  0.00     0.000 HD 
HETATM   37  O   UNL     3     -12.020  11.343  67.266  1.00  0.00    -0.580 OA 
BRANCH  35  38
HETATM   38  C   UNL     3     -12.345  12.965  65.450  1.00  0.00    -0.485 C  
HETATM   39  C   UNL     3     -12.070  12.556  63.979  1.00  0.00    -0.473 C  
HETATM   40  O   UNL     3     -12.236  14.398  65.556  1.00  0.00    -0.382 OA 
HETATM   41  O   UNL     3     -11.167  11.679  63.803  1.00  0.00    -0.388 OA 
HETATM   42  O   UNL     3     -12.613  13.317  63.130  1.00  0.00    -0.666 OA 
HETATM   43  H   UNL     3     -12.845  14.830  64.969  1.00  0.00     0.000 HD 
ENDBRANCH  35  38
ENDBRANCH  32  35
ENDBRANCH  29  32
ENDBRANCH  26  29
ENDBRANCH   6  26
TORSDOF 10
ENDMDL
MODEL      208
REMARK 921   NORMALIZED FREE ENERGY PREDICTED BY IDOCK:   -5.43 KCAL/MOL
REMARK 922        TOTAL FREE ENERGY PREDICTED BY IDOCK:  -11.10 KCAL/MOL
REMARK 923 INTER-LIGAND FREE ENERGY PREDICTED BY IDOCK:   -8.63 KCAL/MOL
REMARK 924 INTRA-LIGAND FREE ENERGY PREDICTED BY IDOCK:   -2.46 KCAL/MOL
REMARK 927      BINDING AFFINITY PREDICTED BY RF-SCORE:    0.00 PKD
ROOT
HETATM    1 CA   UNL     1      -8.122  11.387  69.696  1.00  0.00    -0.291 Ca 
HETATM    2  O   UNL     2     -10.323  16.658  69.152  1.00  0.00    -0.287 OA 
HETATM    3  O   UNL     3      -9.789   5.739  71.902  1.00  0.00    -0.161 OA 
HETATM    4  H   UNL     2      -9.890  17.121  69.860  1.00  0.00     0.000 HD 
HETATM    5  C   UNL     2      -9.929  15.287  69.187  1.00  0.00    -0.238 C  
HETATM    6  C   UNL     3      -9.088   6.920  72.280  1.00  0.00    -0.134 C  
HETATM    7  H   UNL     3      -9.246   4.974  72.049  1.00  0.00     0.000 HD 
ENDROOT
BRANCH   5   8
HETATM    8  C   UNL     2     -10.632  14.536  68.037  1.00  0.00    -0.237 C  
HETATM    9  O   UNL     2     -11.575  15.421  67.442  1.00  0.00    -0.269 OA 
HETATM   10  H   UNL     2     -12.007  14.959  66.733  1.00  0.00     0.000 HD 
BRANCH   8  11
HETATM   11  C   UNL     2      -9.629  14.109  66.954  1.00  0.00    -0.270 C  
HETATM   12  H   UNL     2      -8.106  12.816  66.736  1.00  0.00     0.000 HD 
HETATM   13  O   UNL     2      -8.726  13.080  67.406  1.00  0.00    -0.184 OA 
BRANCH  11  14
HETATM   14  C   UNL     2     -10.141  13.738  65.540  1.00  0.00    -0.284 C  
HETATM   15  O   UNL     2     -10.357  14.914  64.777  1.00  0.00    -0.478 OA 
HETATM   16  H   UNL     2     -10.672  14.686  63.910  1.00  0.00     0.000 HD 
BRANCH  14  17
HETATM   17  C   UNL     2     -11.252  12.677  65.430  1.00  0.00    -0.299 C  
HETATM   18  H   UNL     2     -13.183  12.657  65.727  1.00  0.00     0.000 HD 
HETATM   19  O   UNL     2     -12.498  13.312  65.795  1.00  0.00    -0.448 OA 
BRANCH  17  20
HETATM   20  C   UNL     2     -11.357  11.954  64.087  1.00  0.00    -0.380 C  
HETATM   21  O   UNL     2     -11.707  12.864  63.022  1.00  0.00    -0.831 OA 
HETATM   22  C   UNL     2      -9.971  11.315  63.791  1.00  0.00    -0.342 C  
HETATM   23  H   UNL     2     -11.772  12.415  62.188  1.00  0.00     0.000 HD 
HETATM   24  O   UNL     2      -9.408  10.811  64.799  1.00  0.00    -0.202 OA 
HETATM   25  O   UNL     2      -9.616  11.426  62.587  1.00  0.00    -0.320 OA 
ENDBRANCH  17  20
ENDBRANCH  14  17
ENDBRANCH  11  14
ENDBRANCH   8  11
ENDBRANCH   5   8
BRANCH   6  26
HETATM   26  C   UNL     3      -9.966   8.157  72.042  1.00  0.00    -0.233 C  
HETATM   27  H   UNL     3      -9.623  10.027  71.783  1.00  0.00     0.000 HD 
HETATM   28  O   UNL     3      -9.079   9.262  71.930  1.00  0.00    -0.290 OA 
BRANCH  26  29
HETATM   29  C   UNL     3     -10.897   7.990  70.813  1.00  0.00    -0.232 C  
HETATM   30  O   UNL     3     -12.211   7.439  71.268  1.00  0.00    -0.316 OA 
HETATM   31  H   UNL     3     -12.780   7.337  70.515  1.00  0.00     0.000 HD 
BRANCH  29  32
HETATM   32  C   UNL     3     -11.309   9.319  70.144  1.00  0.00    -0.164 C  
HETATM   33  H   UNL     3     -12.764  10.618  70.421  1.00  0.00     0.000 HD 
HETATM   34  O   UNL     3     -12.510   9.800  70.832  1.00  0.00    -0.306 OA 
BRANCH  32  35
HETATM   35  C   UNL     3     -11.283   9.593  68.632  1.00  0.00     0.046 C  
HETATM   36  H   UNL     3     -11.789  11.084  67.509  1.00  0.00     0.000 HD 
HETATM   37  O   UNL     3     -11.805  10.914  68.444  1.00  0.00    -0.498 OA 
BRANCH  35  38
HETATM   38  C   UNL     3      -9.948   9.392  67.923  1.00  0.00    -0.182 C  
HETATM   39  C   UNL     3      -9.942   8.054  67.138  1.00  0.00    -0.235 C  
HETATM   40  O   UNL     3      -8.860   9.375  68.868  1.00  0.00    -0.131 OA 
HETATM   41  O   UNL     3     -11.033   7.402  67.137  1.00  0.00    -0.312 OA 
HETATM   42  O   UNL     3      -8.789   7.671  66.797  1.00  0.00    -0.126 OA 
HETATM   43  H   UNL     3      -8.028   9.250  68.426  1.00  0.00     0.000 HD 
ENDBRANCH  35  38
ENDBRANCH  32  35
ENDBRANCH  29  32
ENDBRANCH  26  29
ENDBRANCH   6  26
TORSDOF 10
ENDMDL
MODEL      209
REMARK 921   NORMALIZED FREE ENERGY PREDICTED BY IDOCK:   -5.42 KCAL/MOL
REMARK 922        TOTAL FREE ENERGY PREDICTED BY IDOCK:  -11.09 KCAL/MOL
REMARK 923 INTER-LIGAND FREE ENERGY PREDICTED BY IDOCK:   -9.25 KCAL/MOL
REMARK 924 INTRA-LIGAND FREE ENERGY PREDICTED BY IDOCK:   -1.84 KCAL/MOL
REMARK 927      BINDING AFFINITY PREDICTED BY RF-SCORE:    0.00 PKD
ROOT
HETATM    1 CA   UNL     1     -12.626  13.443  68.383  1.00  0.00    -0.320 Ca 
HETATM    2  O   UNL     2     -13.867   9.667  72.521  1.00  0.00    -0.664 OA 
HETATM    3  O   UNL     3      -9.067  18.556  67.519  1.00  0.00    -0.276 OA 
HETATM    4  H   UNL     2     -14.725   9.965  72.801  1.00  0.00     0.000 HD 
HETATM    5  C   UNL     2     -13.374  10.556  71.520  1.00  0.00    -0.290 C  
HETATM    6  C   UNL     3     -10.398  18.167  67.847  1.00  0.00    -0.396 C  
HETATM    7  H   UNL     3      -9.074  19.169  66.794  1.00  0.00     0.000 HD 
ENDROOT
BRANCH   5   8
HETATM    8  C   UNL     2     -11.981  10.072  71.064  1.00  0.00    -0.376 C  
HETATM    9  O   UNL     2     -12.067   8.679  70.783  1.00  0.00    -0.457 OA 
HETATM   10  H   UNL     2     -11.209   8.382  70.503  1.00  0.00     0.000 HD 
BRANCH   8  11
HETATM   11  C   UNL     2     -11.532  10.791  69.782  1.00  0.00    -0.311 C  
HETATM   12  H   UNL     2     -11.466  12.660  69.046  1.00  0.00     0.000 HD 
HETATM   13  O   UNL     2     -11.743  12.216  69.839  1.00  0.00    -0.314 OA 
BRANCH  11  14
HETATM   14  C   UNL     2     -10.121  10.518  69.206  1.00  0.00    -0.224 C  
HETATM   15  O   UNL     2      -9.405  11.735  69.077  1.00  0.00    -0.406 OA 
HETATM   16  H   UNL     2      -8.539  11.567  68.723  1.00  0.00     0.000 HD 
BRANCH  14  17
HETATM   17  C   UNL     2     -10.004   9.562  68.003  1.00  0.00    -0.167 C  
HETATM   18  H   UNL     2     -10.243   7.642  67.732  1.00  0.00     0.000 HD 
HETATM   19  O   UNL     2     -10.315   8.232  68.474  1.00  0.00    -0.206 OA 
BRANCH  17  20
HETATM   20  C   UNL     2     -10.826   9.934  66.770  1.00  0.00    -0.015 C  
HETATM   21  O   UNL     2     -11.438  11.235  66.914  1.00  0.00    -0.431 OA 
HETATM   22  C   UNL     2      -9.862   9.945  65.551  1.00  0.00    -0.311 C  
HETATM   23  H   UNL     2     -11.949  11.466  66.148  1.00  0.00     0.000 HD 
HETATM   24  O   UNL     2      -9.015   9.013  65.554  1.00  0.00    -0.184 OA 
HETATM   25  O   UNL     2     -10.065  10.905  64.760  1.00  0.00    -0.273 OA 
ENDBRANCH  17  20
ENDBRANCH  14  17
ENDBRANCH  11  14
ENDBRANCH   8  11
ENDBRANCH   5   8
BRANCH   6  26
HETATM   26  C   UNL     3     -10.387  17.175  69.019  1.00  0.00    -0.331 C  
HETATM   27  H   UNL     3     -11.565  15.786  69.623  1.00  0.00     0.000 HD 
HETATM   28  O   UNL     3     -11.572  16.399  68.898  1.00  0.00    -0.290 OA 
BRANCH  26  29
HETATM   29  C   UNL     3      -9.094  16.319  69.052  1.00  0.00    -0.255 C  
HETATM   30  O   UNL     3      -9.391  15.015  69.722  1.00  0.00    -0.448 OA 
HETATM   31  H   UNL     3      -8.599  14.491  69.742  1.00  0.00     0.000 HD 
BRANCH  29  32
HETATM   32  C   UNL     3      -8.593  15.870  67.662  1.00  0.00    -0.163 C  
HETATM   33  H   UNL     3      -6.980  16.224  66.588  1.00  0.00     0.000 HD 
HETATM   34  O   UNL     3      -7.288  16.501  67.443  1.00  0.00    -0.126 OA 
BRANCH  32  35
HETATM   35  C   UNL     3      -9.468  15.752  66.404  1.00  0.00    -0.297 C  
HETATM   36  H   UNL     3      -9.281  16.301  64.559  1.00  0.00     0.000 HD 
HETATM   37  O   UNL     3      -8.740  16.374  65.337  1.00  0.00    -0.034 OA 
BRANCH  35  38
HETATM   38  C   UNL     3      -9.952  14.353  66.036  1.00  0.00    -0.317 C  
HETATM   39  C   UNL     3     -11.099  14.429  64.995  1.00  0.00    -0.380 C  
HETATM   40  O   UNL     3     -10.432  13.651  67.199  1.00  0.00    -0.261 OA 
HETATM   41  O   UNL     3     -11.387  15.590  64.565  1.00  0.00    -0.399 OA 
HETATM   42  O   UNL     3     -11.756  13.357  64.885  1.00  0.00    -0.328 OA 
HETATM   43  H   UNL     3     -10.734  12.780  66.970  1.00  0.00     0.000 HD 
ENDBRANCH  35  38
ENDBRANCH  32  35
ENDBRANCH  29  32
ENDBRANCH  26  29
ENDBRANCH   6  26
TORSDOF 10
ENDMDL
MODEL      210
REMARK 921   NORMALIZED FREE ENERGY PREDICTED BY IDOCK:   -5.42 KCAL/MOL
REMARK 922        TOTAL FREE ENERGY PREDICTED BY IDOCK:  -11.09 KCAL/MOL
REMARK 923 INTER-LIGAND FREE ENERGY PREDICTED BY IDOCK:   -8.83 KCAL/MOL
REMARK 924 INTRA-LIGAND FREE ENERGY PREDICTED BY IDOCK:   -2.25 KCAL/MOL
REMARK 927      BINDING AFFINITY PREDICTED BY RF-SCORE:    0.00 PKD
ROOT
HETATM    1 CA   UNL     1     -12.021   9.940  68.169  1.00  0.00    -0.527 Ca 
HETATM    2  O   UNL     2     -11.742   7.645  73.421  1.00  0.00    -0.615 OA 
HETATM    3  O   UNL     3     -10.073  15.080  65.114  1.00  0.00    -0.361 OA 
HETATM    4  H   UNL     2     -12.611   7.830  73.757  1.00  0.00     0.000 HD 
HETATM    5  C   UNL     2     -11.619   8.219  72.121  1.00  0.00    -0.364 C  
HETATM    6  C   UNL     3     -11.207  14.551  65.796  1.00  0.00    -0.334 C  
HETATM    7  H   UNL     3     -10.324  15.390  64.252  1.00  0.00     0.000 HD 
ENDROOT
BRANCH   5   8
HETATM    8  C   UNL     2     -10.207   7.919  71.574  1.00  0.00    -0.190 C  
HETATM    9  O   UNL     2      -9.546   7.064  72.501  1.00  0.00    -0.146 OA 
HETATM   10  H   UNL     2      -8.677   6.879  72.165  1.00  0.00     0.000 HD 
BRANCH   8  11
HETATM   11  C   UNL     2     -10.274   7.193  70.221  1.00  0.00    -0.198 C  
HETATM   12  H   UNL     2     -10.915   7.549  68.350  1.00  0.00     0.000 HD 
HETATM   13  O   UNL     2     -10.874   7.998  69.187  1.00  0.00    -0.152 OA 
BRANCH  11  14
HETATM   14  C   UNL     2      -9.003   6.515  69.652  1.00  0.00    -0.141 C  
HETATM   15  O   UNL     2      -7.847   7.054  70.272  1.00  0.00    -0.101 OA 
HETATM   16  H   UNL     2      -7.067   6.638  69.923  1.00  0.00     0.000 HD 
BRANCH  14  17
HETATM   17  C   UNL     2      -8.901   6.336  68.126  1.00  0.00    -0.113 C  
HETATM   18  H   UNL     2      -8.106   7.356  66.662  1.00  0.00     0.000 HD 
HETATM   19  O   UNL     2      -8.169   7.467  67.604  1.00  0.00    -0.116 OA 
BRANCH  17  20
HETATM   20  C   UNL     2      -8.313   5.009  67.645  1.00  0.00    -0.105 C  
HETATM   21  O   UNL     2      -7.595   4.336  68.702  1.00  0.00    -0.062 OA 
HETATM   22  C   UNL     2      -9.496   4.119  67.170  1.00  0.00    -0.189 C  
HETATM   23  H   UNL     2      -7.229   3.511  68.403  1.00  0.00     0.000 HD 
HETATM   24  O   UNL     2     -10.390   4.741  66.537  1.00  0.00    -0.256 OA 
HETATM   25  O   UNL     2      -9.384   2.912  67.517  1.00  0.00    -0.192 OA 
ENDBRANCH  17  20
ENDBRANCH  14  17
ENDBRANCH  11  14
ENDBRANCH   8  11
ENDBRANCH   5   8
BRANCH   6  26
HETATM   26  C   UNL     3     -10.801  14.050  67.189  1.00  0.00    -0.286 C  
HETATM   27  H   UNL     3     -10.061  14.873  68.756  1.00  0.00     0.000 HD 
HETATM   28  O   UNL     3     -10.311  15.183  67.894  1.00  0.00    -0.237 OA 
BRANCH  26  29
HETATM   29  C   UNL     3     -11.967  13.331  67.918  1.00  0.00    -0.309 C  
HETATM   30  O   UNL     3     -12.127  11.960  67.343  1.00  0.00    -0.577 OA 
HETATM   31  H   UNL     3     -12.841  11.520  67.790  1.00  0.00     0.000 HD 
BRANCH  29  32
HETATM   32  C   UNL     3     -11.697  13.036  69.409  1.00  0.00    -0.326 C  
HETATM   33  H   UNL     3     -11.260  11.419  70.446  1.00  0.00     0.000 HD 
HETATM   34  O   UNL     3     -11.427  11.601  69.528  1.00  0.00    -0.270 OA 
BRANCH  32  35
HETATM   35  C   UNL     3     -12.478  13.642  70.585  1.00  0.00    -0.347 C  
HETATM   36  H   UNL     3     -13.556  12.921  72.020  1.00  0.00     0.000 HD 
HETATM   37  O   UNL     3     -13.073  12.546  71.292  1.00  0.00    -0.272 OA 
BRANCH  35  38
HETATM   38  C   UNL     3     -11.707  14.577  71.510  1.00  0.00    -0.119 C  
HETATM   39  C   UNL     3     -12.617  15.733  72.002  1.00  0.00    -0.455 C  
HETATM   40  O   UNL     3     -10.567  15.145  70.835  1.00  0.00    -0.527 OA 
HETATM   41  O   UNL     3     -13.835  15.676  71.642  1.00  0.00    -0.475 OA 
HETATM   42  O   UNL     3     -11.982  16.703  72.499  1.00  0.00    -0.471 OA 
HETATM   43  H   UNL     3     -10.087  15.728  71.412  1.00  0.00     0.000 HD 
ENDBRANCH  35  38
ENDBRANCH  32  35
ENDBRANCH  29  32
ENDBRANCH  26  29
ENDBRANCH   6  26
TORSDOF 10
ENDMDL
MODEL      211
REMARK 921   NORMALIZED FREE ENERGY PREDICTED BY IDOCK:   -5.42 KCAL/MOL
REMARK 922        TOTAL FREE ENERGY PREDICTED BY IDOCK:  -11.08 KCAL/MOL
REMARK 923 INTER-LIGAND FREE ENERGY PREDICTED BY IDOCK:   -9.24 KCAL/MOL
REMARK 924 INTRA-LIGAND FREE ENERGY PREDICTED BY IDOCK:   -1.84 KCAL/MOL
REMARK 927      BINDING AFFINITY PREDICTED BY RF-SCORE:    0.00 PKD
ROOT
HETATM    1 CA   UNL     1     -13.607  10.317  69.477  1.00  0.00    -0.568 Ca 
HETATM    2  O   UNL     2     -10.542   7.764  73.602  1.00  0.00    -0.256 OA 
HETATM    3  O   UNL     3     -12.672  13.516  64.144  1.00  0.00    -0.650 OA 
HETATM    4  H   UNL     2     -10.600   8.400  74.305  1.00  0.00     0.000 HD 
HETATM    5  C   UNL     2     -11.210   8.284  72.453  1.00  0.00    -0.381 C  
HETATM    6  C   UNL     3     -12.917  13.713  65.533  1.00  0.00    -0.271 C  
HETATM    7  H   UNL     3     -13.300  14.007  63.627  1.00  0.00     0.000 HD 
ENDROOT
BRANCH   5   8
HETATM    8  C   UNL     2     -11.115   7.251  71.310  1.00  0.00    -0.247 C  
HETATM    9  O   UNL     2     -12.239   7.433  70.456  1.00  0.00    -0.531 OA 
HETATM   10  H   UNL     2     -12.181   6.797  69.752  1.00  0.00     0.000 HD 
BRANCH   8  11
HETATM   11  C   UNL     2      -9.842   7.458  70.474  1.00  0.00    -0.180 C  
HETATM   12  H   UNL     2      -8.733   6.442  69.142  1.00  0.00     0.000 HD 
HETATM   13  O   UNL     2      -9.520   6.314  69.659  1.00  0.00    -0.145 OA 
BRANCH  11  14
HETATM   14  C   UNL     2      -9.690   8.740  69.618  1.00  0.00    -0.173 C  
HETATM   15  O   UNL     2      -9.098   9.772  70.389  1.00  0.00    -0.314 OA 
HETATM   16  H   UNL     2      -9.004  10.558  69.864  1.00  0.00     0.000 HD 
BRANCH  14  17
HETATM   17  C   UNL     2     -10.887   9.178  68.753  1.00  0.00    -0.060 C  
HETATM   18  H   UNL     2     -12.240  10.582  68.871  1.00  0.00     0.000 HD 
HETATM   19  O   UNL     2     -11.502  10.312  69.405  1.00  0.00    -0.234 OA 
BRANCH  17  20
HETATM   20  C   UNL     2     -10.582   9.465  67.283  1.00  0.00    -0.244 C  
HETATM   21  O   UNL     2      -9.517  10.431  67.143  1.00  0.00    -0.156 OA 
HETATM   22  C   UNL     2     -10.157   8.123  66.623  1.00  0.00    -0.273 C  
HETATM   23  H   UNL     2      -9.328  10.610  66.230  1.00  0.00     0.000 HD 
HETATM   24  O   UNL     2     -10.828   7.126  67.001  1.00  0.00    -0.351 OA 
HETATM   25  O   UNL     2      -9.187   8.242  65.827  1.00  0.00    -0.167 OA 
ENDBRANCH  17  20
ENDBRANCH  14  17
ENDBRANCH  11  14
ENDBRANCH   8  11
ENDBRANCH   5   8
BRANCH   6  26
HETATM   26  C   UNL     3     -11.902  12.920  66.368  1.00  0.00    -0.415 C  
HETATM   27  H   UNL     3     -10.410  11.784  65.958  1.00  0.00     0.000 HD 
HETATM   28  O   UNL     3     -11.038  12.275  65.441  1.00  0.00    -0.293 OA 
BRANCH  26  29
HETATM   29  C   UNL     3     -11.149  13.816  67.386  1.00  0.00    -0.296 C  
HETATM   30  O   UNL     3     -10.387  12.943  68.332  1.00  0.00    -0.237 OA 
HETATM   31  H   UNL     3      -9.926  13.493  68.956  1.00  0.00     0.000 HD 
BRANCH  29  32
HETATM   32  C   UNL     3     -10.033  14.684  66.765  1.00  0.00    -0.261 C  
HETATM   33  H   UNL     3      -8.146  15.039  67.203  1.00  0.00     0.000 HD 
HETATM   34  O   UNL     3      -8.832  14.506  67.586  1.00  0.00    -0.173 OA 
BRANCH  32  35
HETATM   35  C   UNL     3     -10.224  16.102  66.206  1.00  0.00    -0.320 C  
HETATM   36  H   UNL     3     -11.092  16.844  64.645  1.00  0.00     0.000 HD 
HETATM   37  O   UNL     3     -10.973  15.967  64.990  1.00  0.00    -0.421 OA 
BRANCH  35  38
HETATM   38  C   UNL     3     -10.833  17.134  67.149  1.00  0.00    -0.080 C  
HETATM   39  C   UNL     3     -10.313  18.556  66.812  1.00  0.00    -0.401 C  
HETATM   40  O   UNL     3     -10.503  16.836  68.520  1.00  0.00    -0.293 OA 
HETATM   41  O   UNL     3      -9.560  18.648  65.792  1.00  0.00    -0.440 OA 
HETATM   42  O   UNL     3     -10.513  19.400  67.729  1.00  0.00    -0.408 OA 
HETATM   43  H   UNL     3     -10.882  17.479  69.108  1.00  0.00     0.000 HD 
ENDBRANCH  35  38
ENDBRANCH  32  35
ENDBRANCH  29  32
ENDBRANCH  26  29
ENDBRANCH   6  26
TORSDOF 10
ENDMDL
MODEL      212
REMARK 921   NORMALIZED FREE ENERGY PREDICTED BY IDOCK:   -5.41 KCAL/MOL
REMARK 922        TOTAL FREE ENERGY PREDICTED BY IDOCK:  -11.08 KCAL/MOL
REMARK 923 INTER-LIGAND FREE ENERGY PREDICTED BY IDOCK:   -8.87 KCAL/MOL
REMARK 924 INTRA-LIGAND FREE ENERGY PREDICTED BY IDOCK:   -2.21 KCAL/MOL
REMARK 927      BINDING AFFINITY PREDICTED BY RF-SCORE:    0.00 PKD
ROOT
HETATM    1 CA   UNL     1     -10.480  18.161  70.446  1.00  0.00    -0.174 Ca 
HETATM    2  O   UNL     2     -12.696  12.875  70.183  1.00  0.00     0.001 OA 
HETATM    3  O   UNL     3      -5.315  21.251  68.620  1.00  0.00    -0.407 OA 
HETATM    4  H   UNL     2     -12.536  12.556  71.064  1.00  0.00     0.000 HD 
HETATM    5  C   UNL     2     -12.134  14.180  70.056  1.00  0.00    -0.346 C  
HETATM    6  C   UNL     3      -5.874  20.582  69.748  1.00  0.00    -0.347 C  
HETATM    7  H   UNL     3      -5.025  22.122  68.866  1.00  0.00     0.000 HD 
ENDROOT
BRANCH   5   8
HETATM    8  C   UNL     2     -12.393  14.698  68.625  1.00  0.00     0.014 C  
HETATM    9  O   UNL     2     -12.190  16.107  68.622  1.00  0.00    -0.297 OA 
HETATM   10  H   UNL     2     -12.350  16.426  67.741  1.00  0.00     0.000 HD 
BRANCH   8  11
HETATM   11  C   UNL     2     -11.412  14.073  67.620  1.00  0.00    -0.334 C  
HETATM   12  H   UNL     2      -9.941  12.704  67.602  1.00  0.00     0.000 HD 
HETATM   13  O   UNL     2     -10.547  13.090  68.223  1.00  0.00    -0.233 OA 
BRANCH  11  14
HETATM   14  C   UNL     2     -11.945  13.513  66.278  1.00  0.00    -0.413 C  
HETATM   15  O   UNL     2     -12.259  12.137  66.417  1.00  0.00    -0.592 OA 
HETATM   16  H   UNL     2     -12.587  11.793  65.594  1.00  0.00     0.000 HD 
BRANCH  14  17
HETATM   17  C   UNL     2     -11.188  13.881  64.989  1.00  0.00    -0.342 C  
HETATM   18  H   UNL     2     -10.126  15.410  64.395  1.00  0.00     0.000 HD 
HETATM   19  O   UNL     2     -10.594  15.183  65.191  1.00  0.00    -0.370 OA 
BRANCH  17  20
HETATM   20  C   UNL     2     -10.162  12.860  64.500  1.00  0.00    -0.310 C  
HETATM   21  O   UNL     2      -9.305  12.415  65.575  1.00  0.00    -0.437 OA 
HETATM   22  C   UNL     2     -10.946  11.647  63.925  1.00  0.00    -0.407 C  
HETATM   23  H   UNL     2      -8.667  11.780  65.271  1.00  0.00     0.000 HD 
HETATM   24  O   UNL     2     -11.969  11.962  63.261  1.00  0.00    -0.445 OA 
HETATM   25  O   UNL     2     -10.445  10.534  64.236  1.00  0.00    -0.287 OA 
ENDBRANCH  17  20
ENDBRANCH  14  17
ENDBRANCH  11  14
ENDBRANCH   8  11
ENDBRANCH   5   8
BRANCH   6  26
HETATM   26  C   UNL     3      -6.342  19.175  69.350  1.00  0.00    -0.298 C  
HETATM   27  H   UNL     3      -8.048  18.304  69.230  1.00  0.00     0.000 HD 
HETATM   28  O   UNL     3      -7.758  19.175  69.476  1.00  0.00    -0.081 OA 
BRANCH  26  29
HETATM   29  C   UNL     3      -5.852  18.770  67.935  1.00  0.00    -0.197 C  
HETATM   30  O   UNL     3      -5.187  17.433  68.015  1.00  0.00    -0.122 OA 
HETATM   31  H   UNL     3      -4.886  17.185  67.149  1.00  0.00     0.000 HD 
BRANCH  29  32
HETATM   32  C   UNL     3      -6.987  18.514  66.919  1.00  0.00    -0.197 C  
HETATM   33  H   UNL     3      -7.332  17.152  65.540  1.00  0.00     0.000 HD 
HETATM   34  O   UNL     3      -6.634  17.309  66.164  1.00  0.00    -0.229 OA 
BRANCH  32  35
HETATM   35  C   UNL     3      -7.699  19.601  66.099  1.00  0.00    -0.321 C  
HETATM   36  H   UNL     3      -7.349  20.482  64.413  1.00  0.00     0.000 HD 
HETATM   37  O   UNL     3      -6.909  19.810  64.921  1.00  0.00    -0.361 OA 
BRANCH  35  38
HETATM   38  C   UNL     3      -9.169  19.361  65.775  1.00  0.00     0.194 C  
HETATM   39  C   UNL     3     -10.080  20.143  66.757  1.00  0.00    -0.457 C  
HETATM   40  O   UNL     3      -9.495  17.960  65.862  1.00  0.00    -0.522 OA 
HETATM   41  O   UNL     3      -9.485  20.897  67.590  1.00  0.00    -0.306 OA 
HETATM   42  O   UNL     3     -11.280  19.751  66.758  1.00  0.00    -0.243 OA 
HETATM   43  H   UNL     3     -10.411  17.810  65.660  1.00  0.00     0.000 HD 
ENDBRANCH  35  38
ENDBRANCH  32  35
ENDBRANCH  29  32
ENDBRANCH  26  29
ENDBRANCH   6  26
TORSDOF 10
ENDMDL
MODEL      213
REMARK 921   NORMALIZED FREE ENERGY PREDICTED BY IDOCK:   -5.39 KCAL/MOL
REMARK 922        TOTAL FREE ENERGY PREDICTED BY IDOCK:  -11.03 KCAL/MOL
REMARK 923 INTER-LIGAND FREE ENERGY PREDICTED BY IDOCK:   -9.53 KCAL/MOL
REMARK 924 INTRA-LIGAND FREE ENERGY PREDICTED BY IDOCK:   -1.50 KCAL/MOL
REMARK 927      BINDING AFFINITY PREDICTED BY RF-SCORE:    0.00 PKD
ROOT
HETATM    1 CA   UNL     1      -9.672  13.587  69.391  1.00  0.00    -0.378 Ca 
HETATM    2  O   UNL     2      -5.710   9.668  70.759  1.00  0.00    -0.052 OA 
HETATM    3  O   UNL     3     -11.192  17.336  64.575  1.00  0.00    -1.083 OA 
HETATM    4  H   UNL     2      -5.139  10.165  71.333  1.00  0.00     0.000 HD 
HETATM    5  C   UNL     2      -6.734  10.532  70.266  1.00  0.00    -0.123 C  
HETATM    6  C   UNL     3     -10.483  17.341  65.811  1.00  0.00    -0.229 C  
HETATM    7  H   UNL     3     -11.817  18.051  64.553  1.00  0.00     0.000 HD 
ENDROOT
BRANCH   5   8
HETATM    8  C   UNL     2      -7.661   9.724  69.333  1.00  0.00    -0.109 C  
HETATM    9  O   UNL     2      -7.124   8.412  69.203  1.00  0.00    -0.061 OA 
HETATM   10  H   UNL     2      -7.696   7.915  68.629  1.00  0.00     0.000 HD 
BRANCH   8  11
HETATM   11  C   UNL     2      -9.077   9.604  69.921  1.00  0.00    -0.225 C  
HETATM   12  H   UNL     2     -10.969   9.431  69.268  1.00  0.00     0.000 HD 
HETATM   13  O   UNL     2     -10.094   9.505  68.905  1.00  0.00    -0.175 OA 
BRANCH  11  14
HETATM   14  C   UNL     2      -9.362   8.549  71.017  1.00  0.00    -0.185 C  
HETATM   15  O   UNL     2      -8.681   8.893  72.213  1.00  0.00    -0.395 OA 
HETATM   16  H   UNL     2      -8.856   8.246  72.886  1.00  0.00     0.000 HD 
BRANCH  14  17
HETATM   17  C   UNL     2      -9.281   7.061  70.627  1.00  0.00    -0.158 C  
HETATM   18  H   UNL     2      -8.681   5.427  71.514  1.00  0.00     0.000 HD 
HETATM   19  O   UNL     2      -8.731   6.345  71.755  1.00  0.00    -0.132 OA 
BRANCH  17  20
HETATM   20  C   UNL     2     -10.581   6.427  70.132  1.00  0.00    -0.240 C  
HETATM   21  O   UNL     2     -11.659   7.388  70.099  1.00  0.00    -0.466 OA 
HETATM   22  C   UNL     2     -10.321   5.886  68.698  1.00  0.00    -0.215 C  
HETATM   23  H   UNL     2     -12.467   6.993  69.792  1.00  0.00     0.000 HD 
HETATM   24  O   UNL     2      -9.194   5.346  68.546  1.00  0.00    -0.107 OA 
HETATM   25  O   UNL     2     -11.276   6.098  67.903  1.00  0.00    -0.304 OA 
ENDBRANCH  17  20
ENDBRANCH  14  17
ENDBRANCH  11  14
ENDBRANCH   8  11
ENDBRANCH   5   8
BRANCH   6  26
HETATM   26  C   UNL     3      -9.473  16.186  65.848  1.00  0.00    -0.302 C  
HETATM   27  H   UNL     3      -7.562  16.067  65.980  1.00  0.00     0.000 HD 
HETATM   28  O   UNL     3      -8.187  16.782  65.957  1.00  0.00    -0.423 OA 
BRANCH  26  29
HETATM   29  C   UNL     3      -9.778  15.173  66.983  1.00  0.00    -0.231 C  
HETATM   30  O   UNL     3     -10.245  15.922  68.190  1.00  0.00    -0.226 OA 
HETATM   31  H   UNL     3     -10.432  15.302  68.885  1.00  0.00     0.000 HD 
BRANCH  29  32
HETATM   32  C   UNL     3     -10.970  14.235  66.693  1.00  0.00    -0.310 C  
HETATM   33  H   UNL     3     -12.472  13.532  67.756  1.00  0.00     0.000 HD 
HETATM   34  O   UNL     3     -11.738  14.109  67.935  1.00  0.00    -0.326 OA 
BRANCH  32  35
HETATM   35  C   UNL     3     -10.900  12.954  65.849  1.00  0.00    -0.272 C  
HETATM   36  H   UNL     3     -10.299  11.143  66.168  1.00  0.00     0.000 HD 
HETATM   37  O   UNL     3     -10.342  11.936  66.691  1.00  0.00    -0.205 OA 
BRANCH  35  38
HETATM   38  C   UNL     3     -12.193  12.504  65.178  1.00  0.00    -0.448 C  
HETATM   39  C   UNL     3     -11.915  12.003  63.736  1.00  0.00    -0.490 C  
HETATM   40  O   UNL     3     -13.143  13.586  65.113  1.00  0.00    -0.737 OA 
HETATM   41  O   UNL     3     -10.695  11.966  63.384  1.00  0.00    -0.401 OA 
HETATM   42  O   UNL     3     -12.951  11.920  63.019  1.00  0.00    -0.525 OA 
HETATM   43  H   UNL     3     -13.949  13.306  64.695  1.00  0.00     0.000 HD 
ENDBRANCH  35  38
ENDBRANCH  32  35
ENDBRANCH  29  32
ENDBRANCH  26  29
ENDBRANCH   6  26
TORSDOF 10
ENDMDL
MODEL      214
REMARK 921   NORMALIZED FREE ENERGY PREDICTED BY IDOCK:   -5.36 KCAL/MOL
REMARK 922        TOTAL FREE ENERGY PREDICTED BY IDOCK:  -11.00 KCAL/MOL
REMARK 923 INTER-LIGAND FREE ENERGY PREDICTED BY IDOCK:  -10.01 KCAL/MOL
REMARK 924 INTRA-LIGAND FREE ENERGY PREDICTED BY IDOCK:   -0.98 KCAL/MOL
REMARK 927      BINDING AFFINITY PREDICTED BY RF-SCORE:    0.00 PKD
ROOT
HETATM    1 CA   UNL     1      -8.981  10.383  67.894  1.00  0.00    -0.121 Ca 
HETATM    2  O   UNL     2     -12.549  14.819  68.607  1.00  0.00    -0.493 OA 
HETATM    3  O   UNL     3      -9.237   4.223  66.652  1.00  0.00    -0.125 OA 
HETATM    4  H   UNL     2     -12.548  14.916  69.552  1.00  0.00     0.000 HD 
HETATM    5  C   UNL     2     -11.746  13.693  68.258  1.00  0.00    -0.363 C  
HETATM    6  C   UNL     3      -9.137   5.138  67.740  1.00  0.00    -0.111 C  
HETATM    7  H   UNL     3      -8.542   3.577  66.701  1.00  0.00     0.000 HD 
ENDROOT
BRANCH   5   8
HETATM    8  C   UNL     2     -11.748  13.536  66.722  1.00  0.00    -0.391 C  
HETATM    9  O   UNL     2     -12.945  14.120  66.220  1.00  0.00    -0.451 OA 
HETATM   10  H   UNL     2     -12.946  14.023  65.274  1.00  0.00     0.000 HD 
BRANCH   8  11
HETATM   11  C   UNL     2     -10.556  14.267  66.084  1.00  0.00    -0.293 C  
HETATM   12  H   UNL     2      -9.396  14.118  64.450  1.00  0.00     0.000 HD 
HETATM   13  O   UNL     2     -10.133  13.666  64.845  1.00  0.00    -0.343 OA 
BRANCH  11  14
HETATM   14  C   UNL     2     -10.611  15.804  65.900  1.00  0.00    -0.339 C  
HETATM   15  O   UNL     2     -10.784  16.123  64.529  1.00  0.00    -0.828 OA 
HETATM   16  H   UNL     2     -10.818  17.066  64.416  1.00  0.00     0.000 HD 
BRANCH  14  17
HETATM   17  C   UNL     2      -9.565  16.659  66.641  1.00  0.00    -0.263 C  
HETATM   18  H   UNL     2      -8.493  18.229  66.195  1.00  0.00     0.000 HD 
HETATM   19  O   UNL     2      -9.138  17.702  65.737  1.00  0.00    -0.503 OA 
BRANCH  17  20
HETATM   20  C   UNL     2      -9.998  17.222  67.994  1.00  0.00    -0.304 C  
HETATM   21  O   UNL     2      -8.950  17.096  68.980  1.00  0.00    -0.223 OA 
HETATM   22  C   UNL     2     -10.339  18.725  67.787  1.00  0.00    -0.411 C  
HETATM   23  H   UNL     2      -9.219  17.446  69.821  1.00  0.00     0.000 HD 
HETATM   24  O   UNL     2     -10.951  18.973  66.714  1.00  0.00    -0.325 OA 
HETATM   25  O   UNL     2      -9.925  19.465  68.719  1.00  0.00    -0.412 OA 
ENDBRANCH  17  20
ENDBRANCH  14  17
ENDBRANCH  11  14
ENDBRANCH   8  11
ENDBRANCH   5   8
BRANCH   6  26
HETATM   26  C   UNL     3     -10.260   6.181  67.659  1.00  0.00    -0.174 C  
HETATM   27  H   UNL     3     -11.855   6.370  66.608  1.00  0.00     0.000 HD 
HETATM   28  O   UNL     3     -11.160   5.725  66.658  1.00  0.00    -0.227 OA 
BRANCH  26  29
HETATM   29  C   UNL     3     -10.941   6.420  69.033  1.00  0.00    -0.348 C  
HETATM   30  O   UNL     3     -10.250   5.592  70.069  1.00  0.00    -0.208 OA 
HETATM   31  H   UNL     3     -10.667   5.739  70.909  1.00  0.00     0.000 HD 
BRANCH  29  32
HETATM   32  C   UNL     3     -10.771   7.852  69.585  1.00  0.00    -0.218 C  
HETATM   33  H   UNL     3      -9.280   9.137  69.672  1.00  0.00     0.000 HD 
HETATM   34  O   UNL     3      -9.385   8.256  69.332  1.00  0.00    -0.154 OA 
BRANCH  32  35
HETATM   35  C   UNL     3     -11.356   8.363  70.910  1.00  0.00    -0.268 C  
HETATM   36  H   UNL     3     -11.072   7.943  72.777  1.00  0.00     0.000 HD 
HETATM   37  O   UNL     3     -10.710   7.627  71.957  1.00  0.00    -0.213 OA 
BRANCH  35  38
HETATM   38  C   UNL     3     -11.307   9.868  71.146  1.00  0.00    -0.370 C  
HETATM   39  C   UNL     3     -12.734  10.435  71.363  1.00  0.00    -0.446 C  
HETATM   40  O   UNL     3     -10.709  10.546  70.024  1.00  0.00    -0.350 OA 
HETATM   41  O   UNL     3     -13.675   9.581  71.395  1.00  0.00    -0.345 OA 
HETATM   42  O   UNL     3     -12.805  11.690  71.246  1.00  0.00    -0.391 OA 
HETATM   43  H   UNL     3     -10.678  11.485  70.171  1.00  0.00     0.000 HD 
ENDBRANCH  35  38
ENDBRANCH  32  35
ENDBRANCH  29  32
ENDBRANCH  26  29
ENDBRANCH   6  26
TORSDOF 10
ENDMDL
MODEL      215
REMARK 921   NORMALIZED FREE ENERGY PREDICTED BY IDOCK:   -5.35 KCAL/MOL
REMARK 922        TOTAL FREE ENERGY PREDICTED BY IDOCK:  -10.98 KCAL/MOL
REMARK 923 INTER-LIGAND FREE ENERGY PREDICTED BY IDOCK:   -8.23 KCAL/MOL
REMARK 924 INTRA-LIGAND FREE ENERGY PREDICTED BY IDOCK:   -2.75 KCAL/MOL
REMARK 927      BINDING AFFINITY PREDICTED BY RF-SCORE:    0.00 PKD
ROOT
HETATM    1 CA   UNL     1      -6.510  13.659  68.109  1.00  0.00    -0.071 Ca 
HETATM    2  O   UNL     2      -6.629   8.099  66.697  1.00  0.00    -0.054 OA 
HETATM    3  O   UNL     3     -10.163  18.759  67.667  1.00  0.00    -0.356 OA 
HETATM    4  H   UNL     2      -6.071   8.085  65.927  1.00  0.00     0.000 HD 
HETATM    5  C   UNL     2      -6.762   9.447  67.145  1.00  0.00    -0.076 C  
HETATM    6  C   UNL     3      -9.087  18.098  67.007  1.00  0.00    -0.263 C  
HETATM    7  H   UNL     3      -9.938  19.667  67.832  1.00  0.00     0.000 HD 
ENDROOT
BRANCH   5   8
HETATM    8  C   UNL     2      -7.668   9.470  68.394  1.00  0.00    -0.085 C  
HETATM    9  O   UNL     2      -8.588  10.548  68.253  1.00  0.00    -0.119 OA 
HETATM   10  H   UNL     2      -9.146  10.562  69.022  1.00  0.00     0.000 HD 
BRANCH   8  11
HETATM   11  C   UNL     2      -8.475   8.168  68.524  1.00  0.00    -0.127 C  
HETATM   12  H   UNL     2      -8.313   6.379  69.424  1.00  0.00     0.000 HD 
HETATM   13  O   UNL     2      -7.815   7.184  69.344  1.00  0.00    -0.108 OA 
BRANCH  11  14
HETATM   14  C   UNL     2      -9.969   8.232  68.924  1.00  0.00    -0.186 C  
HETATM   15  O   UNL     2     -10.718   8.876  67.906  1.00  0.00    -0.400 OA 
HETATM   16  H   UNL     2     -11.636   8.914  68.152  1.00  0.00     0.000 HD 
BRANCH  14  17
HETATM   17  C   UNL     2     -10.314   8.666  70.361  1.00  0.00    -0.200 C  
HETATM   18  H   UNL     2     -10.992  10.301  71.189  1.00  0.00     0.000 HD 
HETATM   19  O   UNL     2     -10.779  10.033  70.302  1.00  0.00    -0.276 OA 
BRANCH  17  20
HETATM   20  C   UNL     2     -11.294   7.767  71.115  1.00  0.00    -0.269 C  
HETATM   21  O   UNL     2     -12.234   7.138  70.217  1.00  0.00    -0.583 OA 
HETATM   22  C   UNL     2     -10.460   6.675  71.843  1.00  0.00    -0.201 C  
HETATM   23  H   UNL     2     -12.843   6.580  70.686  1.00  0.00     0.000 HD 
HETATM   24  O   UNL     2      -9.387   7.096  72.351  1.00  0.00    -0.135 OA 
HETATM   25  O   UNL     2     -10.981   5.528  71.788  1.00  0.00    -0.240 OA 
ENDBRANCH  17  20
ENDBRANCH  14  17
ENDBRANCH  11  14
ENDBRANCH   8  11
ENDBRANCH   5   8
BRANCH   6  26
HETATM   26  C   UNL     3      -9.450  16.631  66.741  1.00  0.00    -0.244 C  
HETATM   27  H   UNL     3      -8.544  15.140  65.940  1.00  0.00     0.000 HD 
HETATM   28  O   UNL     3      -8.320  16.048  66.104  1.00  0.00    -0.307 OA 
BRANCH  26  29
HETATM   29  C   UNL     3      -9.877  15.887  68.034  1.00  0.00    -0.218 C  
HETATM   30  O   UNL     3     -11.307  16.208  68.330  1.00  0.00    -0.361 OA 
HETATM   31  H   UNL     3     -11.568  15.752  69.121  1.00  0.00     0.000 HD 
BRANCH  29  32
HETATM   32  C   UNL     3      -9.903  14.348  67.901  1.00  0.00    -0.224 C  
HETATM   33  H   UNL     3      -8.775  12.879  68.569  1.00  0.00     0.000 HD 
HETATM   34  O   UNL     3      -8.758  13.825  68.650  1.00  0.00    -0.147 OA 
BRANCH  32  35
HETATM   35  C   UNL     3     -10.234  13.579  66.613  1.00  0.00    -0.275 C  
HETATM   36  H   UNL     3      -9.446  12.075  65.685  1.00  0.00     0.000 HD 
HETATM   37  O   UNL     3      -9.242  12.552  66.482  1.00  0.00    -0.232 OA 
BRANCH  35  38
HETATM   38  C   UNL     3     -11.652  13.033  66.485  1.00  0.00    -0.356 C  
HETATM   39  C   UNL     3     -11.966  12.669  65.010  1.00  0.00    -0.419 C  
HETATM   40  O   UNL     3     -12.619  14.003  66.934  1.00  0.00    -0.513 OA 
HETATM   41  O   UNL     3     -11.006  12.794  64.187  1.00  0.00    -0.348 OA 
HETATM   42  O   UNL     3     -13.197  12.519  64.776  1.00  0.00    -0.839 OA 
HETATM   43  H   UNL     3     -13.503  13.663  66.855  1.00  0.00     0.000 HD 
ENDBRANCH  35  38
ENDBRANCH  32  35
ENDBRANCH  29  32
ENDBRANCH  26  29
ENDBRANCH   6  26
TORSDOF 10
ENDMDL
MODEL      216
REMARK 921   NORMALIZED FREE ENERGY PREDICTED BY IDOCK:   -5.35 KCAL/MOL
REMARK 922        TOTAL FREE ENERGY PREDICTED BY IDOCK:  -10.97 KCAL/MOL
REMARK 923 INTER-LIGAND FREE ENERGY PREDICTED BY IDOCK:   -8.21 KCAL/MOL
REMARK 924 INTRA-LIGAND FREE ENERGY PREDICTED BY IDOCK:   -2.76 KCAL/MOL
REMARK 927      BINDING AFFINITY PREDICTED BY RF-SCORE:    0.00 PKD
ROOT
HETATM    1 CA   UNL     1      -7.875   7.001  68.735  1.00  0.00    -0.095 Ca 
HETATM    2  O   UNL     2      -6.118  11.112  65.139  1.00  0.00    -0.371 OA 
HETATM    3  O   UNL     3     -12.728   5.763  72.540  1.00  0.00    -0.418 OA 
HETATM    4  H   UNL     2      -5.457  11.553  65.660  1.00  0.00     0.000 HD 
HETATM    5  C   UNL     2      -6.715  10.082  65.926  1.00  0.00    -0.103 C  
HETATM    6  C   UNL     3     -11.409   6.302  72.555  1.00  0.00    -0.275 C  
HETATM    7  H   UNL     3     -12.811   5.080  73.194  1.00  0.00     0.000 HD 
ENDROOT
BRANCH   5   8
HETATM    8  C   UNL     2      -7.788   9.366  65.079  1.00  0.00    -0.115 C  
HETATM    9  O   UNL     2      -8.582   8.570  65.953  1.00  0.00    -0.144 OA 
HETATM   10  H   UNL     2      -9.243   8.129  65.432  1.00  0.00     0.000 HD 
BRANCH   8  11
HETATM   11  C   UNL     2      -8.714  10.375  64.381  1.00  0.00    -0.198 C  
HETATM   12  H   UNL     2      -9.678  10.574  62.629  1.00  0.00     0.000 HD 
HETATM   13  O   UNL     2      -9.106   9.950  63.061  1.00  0.00    -0.245 OA 
BRANCH  11  14
HETATM   14  C   UNL     2      -9.963  10.908  65.125  1.00  0.00    -0.284 C  
HETATM   15  O   UNL     2     -10.880   9.850  65.357  1.00  0.00     0.340 OA 
HETATM   16  H   UNL     2     -11.646  10.178  65.813  1.00  0.00     0.000 HD 
BRANCH  14  17
HETATM   17  C   UNL     2     -10.597  12.221  64.625  1.00  0.00    -0.303 C  
HETATM   18  H   UNL     2     -11.754  12.719  63.133  1.00  0.00     0.000 HD 
HETATM   19  O   UNL     2     -11.363  11.909  63.441  1.00  0.00    -0.404 OA 
BRANCH  17  20
HETATM   20  C   UNL     2     -11.425  12.997  65.649  1.00  0.00    -0.333 C  
HETATM   21  O   UNL     2     -12.079  12.109  66.582  1.00  0.00    -0.622 OA 
HETATM   22  C   UNL     2     -10.455  13.937  66.419  1.00  0.00    -0.284 C  
HETATM   23  H   UNL     2     -12.594  12.591  67.218  1.00  0.00     0.000 HD 
HETATM   24  O   UNL     2      -9.578  14.479  65.695  1.00  0.00    -0.275 OA 
HETATM   25  O   UNL     2     -10.686  13.990  67.656  1.00  0.00    -0.253 OA 
ENDBRANCH  17  20
ENDBRANCH  14  17
ENDBRANCH  11  14
ENDBRANCH   8  11
ENDBRANCH   5   8
BRANCH   6  26
HETATM   26  C   UNL     3     -11.275   7.406  71.496  1.00  0.00    -0.243 C  
HETATM   27  H   UNL     3     -11.009   7.429  69.596  1.00  0.00     0.000 HD 
HETATM   28  O   UNL     3     -11.091   6.746  70.251  1.00  0.00    -0.268 OA 
BRANCH  26  29
HETATM   29  C   UNL     3     -12.485   8.377  71.503  1.00  0.00    -0.312 C  
HETATM   30  O   UNL     3     -13.055   8.434  72.884  1.00  0.00    -0.639 OA 
HETATM   31  H   UNL     3     -13.796   9.029  72.888  1.00  0.00     0.000 HD 
BRANCH  29  32
HETATM   32  C   UNL     3     -12.116   9.852  71.235  1.00  0.00    -0.394 C  
HETATM   33  H   UNL     3     -12.919  11.589  71.702  1.00  0.00     0.000 HD 
HETATM   34  O   UNL     3     -13.146  10.682  71.866  1.00  0.00    -0.469 OA 
BRANCH  32  35
HETATM   35  C   UNL     3     -11.576  10.401  69.906  1.00  0.00    -0.284 C  
HETATM   36  H   UNL     3     -11.818  12.041  68.911  1.00  0.00     0.000 HD 
HETATM   37  O   UNL     3     -12.152  11.702  69.733  1.00  0.00    -0.304 OA 
BRANCH  35  38
HETATM   38  C   UNL     3     -10.061  10.411  69.733  1.00  0.00    -0.157 C  
HETATM   39  C   UNL     3      -9.635   9.457  68.587  1.00  0.00    -0.147 C  
HETATM   40  O   UNL     3      -9.402   9.995  70.946  1.00  0.00    -0.262 OA 
HETATM   41  O   UNL     3     -10.580   8.905  67.940  1.00  0.00    -0.230 OA 
HETATM   42  O   UNL     3      -8.406   9.171  68.595  1.00  0.00    -0.122 OA 
HETATM   43  H   UNL     3      -8.458  10.002  70.838  1.00  0.00     0.000 HD 
ENDBRANCH  35  38
ENDBRANCH  32  35
ENDBRANCH  29  32
ENDBRANCH  26  29
ENDBRANCH   6  26
TORSDOF 10
ENDMDL
MODEL      217
REMARK 921   NORMALIZED FREE ENERGY PREDICTED BY IDOCK:   -5.35 KCAL/MOL
REMARK 922        TOTAL FREE ENERGY PREDICTED BY IDOCK:  -10.97 KCAL/MOL
REMARK 923 INTER-LIGAND FREE ENERGY PREDICTED BY IDOCK:   -9.38 KCAL/MOL
REMARK 924 INTRA-LIGAND FREE ENERGY PREDICTED BY IDOCK:   -1.59 KCAL/MOL
REMARK 927      BINDING AFFINITY PREDICTED BY RF-SCORE:    0.00 PKD
ROOT
HETATM    1 CA   UNL     1      -8.112  14.634  66.187  1.00  0.00    -0.366 Ca 
HETATM    2  O   UNL     2     -10.408   9.391  65.787  1.00  0.00    -0.257 OA 
HETATM    3  O   UNL     3      -9.964  20.592  66.983  1.00  0.00    -0.453 OA 
HETATM    4  H   UNL     2     -10.362   9.233  64.851  1.00  0.00     0.000 HD 
HETATM    5  C   UNL     2      -9.927  10.707  66.056  1.00  0.00    -0.239 C  
HETATM    6  C   UNL     3      -9.611  19.661  65.964  1.00  0.00    -0.318 C  
HETATM    7  H   UNL     3      -9.458  21.389  66.889  1.00  0.00     0.000 HD 
ENDROOT
BRANCH   5   8
HETATM    8  C   UNL     2     -10.001  10.964  67.576  1.00  0.00    -0.174 C  
HETATM    9  O   UNL     2     -11.363  11.193  67.920  1.00  0.00    -0.283 OA 
HETATM   10  H   UNL     2     -11.408  11.351  68.856  1.00  0.00     0.000 HD 
BRANCH   8  11
HETATM   11  C   UNL     2      -9.505   9.747  68.373  1.00  0.00    -0.140 C  
HETATM   12  H   UNL     2      -7.926   8.505  68.399  1.00  0.00     0.000 HD 
HETATM   13  O   UNL     2      -8.232   9.257  67.907  1.00  0.00    -0.114 OA 
BRANCH  11  14
HETATM   14  C   UNL     2      -9.482   9.803  69.920  1.00  0.00    -0.231 C  
HETATM   15  O   UNL     2      -8.195  10.188  70.374  1.00  0.00    -0.392 OA 
HETATM   16  H   UNL     2      -8.181  10.223  71.323  1.00  0.00     0.000 HD 
BRANCH  14  17
HETATM   17  C   UNL     2     -10.124   8.637  70.696  1.00  0.00    -0.198 C  
HETATM   18  H   UNL     2     -10.227   8.114  72.575  1.00  0.00     0.000 HD 
HETATM   19  O   UNL     2      -9.831   8.833  72.097  1.00  0.00    -0.314 OA 
BRANCH  17  20
HETATM   20  C   UNL     2     -11.617   8.415  70.455  1.00  0.00    -0.128 C  
HETATM   21  O   UNL     2     -12.062   7.160  71.017  1.00  0.00    -0.333 OA 
HETATM   22  C   UNL     2     -12.380   9.588  71.132  1.00  0.00    -0.326 C  
HETATM   23  H   UNL     2     -12.990   7.022  70.867  1.00  0.00     0.000 HD 
HETATM   24  O   UNL     2     -11.824  10.711  70.998  1.00  0.00    -0.336 OA 
HETATM   25  O   UNL     2     -13.427   9.224  71.732  1.00  0.00    -0.373 OA 
ENDBRANCH  17  20
ENDBRANCH  14  17
ENDBRANCH  11  14
ENDBRANCH   8  11
ENDBRANCH   5   8
BRANCH   6  26
HETATM   26  C   UNL     3     -10.430  18.371  66.117  1.00  0.00    -0.395 C  
HETATM   27  H   UNL     3     -11.504  17.306  64.936  1.00  0.00     0.000 HD 
HETATM   28  O   UNL     3     -10.997  18.104  64.841  1.00  0.00    -0.718 OA 
BRANCH  26  29
HETATM   29  C   UNL     3      -9.580  17.197  66.669  1.00  0.00    -0.267 C  
HETATM   30  O   UNL     3      -8.134  17.485  66.422  1.00  0.00    -0.249 OA 
HETATM   31  H   UNL     3      -7.614  16.766  66.760  1.00  0.00     0.000 HD 
BRANCH  29  32
HETATM   32  C   UNL     3      -9.631  17.044  68.204  1.00  0.00    -0.266 C  
HETATM   33  H   UNL     3      -8.836  18.017  69.722  1.00  0.00     0.000 HD 
HETATM   34  O   UNL     3      -8.805  18.110  68.777  1.00  0.00    -0.294 OA 
BRANCH  32  35
HETATM   35  C   UNL     3      -9.570  15.708  68.962  1.00  0.00    -0.243 C  
HETATM   36  H   UNL     3      -8.198  14.761  69.943  1.00  0.00     0.000 HD 
HETATM   37  O   UNL     3      -8.236  15.587  69.474  1.00  0.00    -0.250 OA 
BRANCH  35  38
HETATM   38  C   UNL     3     -10.626  15.482  70.037  1.00  0.00    -0.324 C  
HETATM   39  C   UNL     3     -11.751  14.551  69.511  1.00  0.00    -0.314 C  
HETATM   40  O   UNL     3     -11.217  16.730  70.450  1.00  0.00    -0.471 OA 
HETATM   41  O   UNL     3     -11.581  14.074  68.346  1.00  0.00    -0.290 OA 
HETATM   42  O   UNL     3     -12.799  14.576  70.214  1.00  0.00    -0.329 OA 
HETATM   43  H   UNL     3     -11.876  16.588  71.120  1.00  0.00     0.000 HD 
ENDBRANCH  35  38
ENDBRANCH  32  35
ENDBRANCH  29  32
ENDBRANCH  26  29
ENDBRANCH   6  26
TORSDOF 10
ENDMDL
MODEL      218
REMARK 921   NORMALIZED FREE ENERGY PREDICTED BY IDOCK:   -5.34 KCAL/MOL
REMARK 922        TOTAL FREE ENERGY PREDICTED BY IDOCK:  -10.97 KCAL/MOL
REMARK 923 INTER-LIGAND FREE ENERGY PREDICTED BY IDOCK:   -8.83 KCAL/MOL
REMARK 924 INTRA-LIGAND FREE ENERGY PREDICTED BY IDOCK:   -2.14 KCAL/MOL
REMARK 927      BINDING AFFINITY PREDICTED BY RF-SCORE:    0.00 PKD
ROOT
HETATM    1 CA   UNL     1     -13.007  10.835  68.837  1.00  0.00    -0.409 Ca 
HETATM    2  O   UNL     2     -12.653  13.370  63.702  1.00  0.00    -0.718 OA 
HETATM    3  O   UNL     3     -10.495   5.964  71.921  1.00  0.00    -0.207 OA 
HETATM    4  H   UNL     2     -13.445  13.058  63.279  1.00  0.00     0.000 HD 
HETATM    5  C   UNL     2     -12.551  12.769  64.992  1.00  0.00    -0.468 C  
HETATM    6  C   UNL     3     -11.637   6.325  71.149  1.00  0.00    -0.275 C  
HETATM    7  H   UNL     3     -10.765   5.579  72.747  1.00  0.00     0.000 HD 
ENDROOT
BRANCH   5   8
HETATM    8  C   UNL     2     -11.265  13.276  65.679  1.00  0.00    -0.285 C  
HETATM    9  O   UNL     2     -11.176  14.681  65.466  1.00  0.00    -0.325 OA 
HETATM   10  H   UNL     2     -10.384  14.993  65.889  1.00  0.00     0.000 HD 
BRANCH   8  11
HETATM   11  C   UNL     2     -11.306  13.025  67.195  1.00  0.00    -0.305 C  
HETATM   12  H   UNL     2     -11.199  11.474  68.468  1.00  0.00     0.000 HD 
HETATM   13  O   UNL     2     -11.174  11.629  67.531  1.00  0.00    -0.254 OA 
BRANCH  11  14
HETATM   14  C   UNL     2     -10.392  13.852  68.132  1.00  0.00    -0.247 C  
HETATM   15  O   UNL     2      -9.451  13.003  68.767  1.00  0.00    -0.403 OA 
HETATM   16  H   UNL     2      -8.890  13.511  69.343  1.00  0.00     0.000 HD 
BRANCH  14  17
HETATM   17  C   UNL     2     -11.055  14.894  69.052  1.00  0.00    -0.250 C  
HETATM   18  H   UNL     2     -11.890  16.641  68.791  1.00  0.00     0.000 HD 
HETATM   19  O   UNL     2     -11.480  15.998  68.223  1.00  0.00    -0.355 OA 
BRANCH  17  20
HETATM   20  C   UNL     2     -12.191  14.379  69.937  1.00  0.00    -0.340 C  
HETATM   21  O   UNL     2     -12.152  12.941  70.064  1.00  0.00    -0.324 OA 
HETATM   22  C   UNL     2     -12.023  15.030  71.339  1.00  0.00    -0.341 C  
HETATM   23  H   UNL     2     -12.858  12.621  70.613  1.00  0.00     0.000 HD 
HETATM   24  O   UNL     2     -11.673  16.240  71.308  1.00  0.00    -0.435 OA 
HETATM   25  O   UNL     2     -12.242  14.233  72.290  1.00  0.00    -0.197 OA 
ENDBRANCH  17  20
ENDBRANCH  14  17
ENDBRANCH  11  14
ENDBRANCH   8  11
ENDBRANCH   5   8
BRANCH   6  26
HETATM   26  C   UNL     3     -11.199   6.947  69.815  1.00  0.00    -0.267 C  
HETATM   27  H   UNL     3      -9.748   8.075  69.263  1.00  0.00     0.000 HD 
HETATM   28  O   UNL     3     -10.019   7.691  70.089  1.00  0.00    -0.184 OA 
BRANCH  26  29
HETATM   29  C   UNL     3     -11.008   5.881  68.704  1.00  0.00    -0.215 C  
HETATM   30  O   UNL     3     -11.358   6.488  67.383  1.00  0.00    -0.694 OA 
HETATM   31  H   UNL     3     -11.241   5.835  66.703  1.00  0.00     0.000 HD 
BRANCH  29  32
HETATM   32  C   UNL     3      -9.543   5.442  68.490  1.00  0.00    -0.129 C  
HETATM   33  H   UNL     3      -8.159   5.840  67.147  1.00  0.00     0.000 HD 
HETATM   34  O   UNL     3      -9.060   6.110  67.278  1.00  0.00    -0.116 OA 
BRANCH  32  35
HETATM   35  C   UNL     3      -9.010   4.016  68.694  1.00  0.00    -0.117 C  
HETATM   36  H   UNL     3      -9.322   2.618  69.994  1.00  0.00     0.000 HD 
HETATM   37  O   UNL     3      -9.652   3.500  69.868  1.00  0.00    -0.188 OA 
BRANCH  35  38
HETATM   38  C   UNL     3      -9.124   3.065  67.507  1.00  0.00    -0.180 C  
HETATM   39  C   UNL     3      -7.737   2.842  66.850  1.00  0.00    -0.075 C  
HETATM   40  O   UNL     3     -10.025   3.590  66.512  1.00  0.00    -0.410 OA 
HETATM   41  O   UNL     3      -6.749   3.394  67.430  1.00  0.00    -0.044 OA 
HETATM   42  O   UNL     3      -7.797   2.338  65.695  1.00  0.00    -0.075 OA 
HETATM   43  H   UNL     3     -10.096   2.998  65.772  1.00  0.00     0.000 HD 
ENDBRANCH  35  38
ENDBRANCH  32  35
ENDBRANCH  29  32
ENDBRANCH  26  29
ENDBRANCH   6  26
TORSDOF 10
ENDMDL
MODEL      219
REMARK 921   NORMALIZED FREE ENERGY PREDICTED BY IDOCK:   -5.33 KCAL/MOL
REMARK 922        TOTAL FREE ENERGY PREDICTED BY IDOCK:  -10.94 KCAL/MOL
REMARK 923 INTER-LIGAND FREE ENERGY PREDICTED BY IDOCK:  -10.20 KCAL/MOL
REMARK 924 INTRA-LIGAND FREE ENERGY PREDICTED BY IDOCK:   -0.74 KCAL/MOL
REMARK 927      BINDING AFFINITY PREDICTED BY RF-SCORE:    0.00 PKD
ROOT
HETATM    1 CA   UNL     1      -5.703  12.651  67.460  1.00  0.00    -0.064 Ca 
HETATM    2  O   UNL     2      -5.203  17.663  70.209  1.00  0.00    -0.205 OA 
HETATM    3  O   UNL     3     -10.146   8.443  66.011  1.00  0.00    -0.470 OA 
HETATM    4  H   UNL     2      -4.816  17.391  71.034  1.00  0.00     0.000 HD 
HETATM    5  C   UNL     2      -5.460  16.504  69.417  1.00  0.00    -0.142 C  
HETATM    6  C   UNL     3      -9.132   8.705  66.977  1.00  0.00    -0.138 C  
HETATM    7  H   UNL     3     -10.043   7.567  65.656  1.00  0.00     0.000 HD 
ENDROOT
BRANCH   5   8
HETATM    8  C   UNL     2      -6.088  16.945  68.077  1.00  0.00    -0.132 C  
HETATM    9  O   UNL     2      -5.829  15.930  67.113  1.00  0.00    -0.327 OA 
HETATM   10  H   UNL     2      -6.215  16.202  66.288  1.00  0.00     0.000 HD 
BRANCH   8  11
HETATM   11  C   UNL     2      -7.611  17.107  68.201  1.00  0.00    -0.208 C  
HETATM   12  H   UNL     2      -9.112  16.409  69.341  1.00  0.00     0.000 HD 
HETATM   13  O   UNL     2      -8.171  16.309  69.264  1.00  0.00    -0.234 OA 
BRANCH  11  14
HETATM   14  C   UNL     2      -8.227  18.526  68.265  1.00  0.00    -0.314 C  
HETATM   15  O   UNL     2      -7.622  19.272  69.309  1.00  0.00    -0.305 OA 
HETATM   16  H   UNL     2      -8.000  20.143  69.348  1.00  0.00     0.000 HD 
BRANCH  14  17
HETATM   17  C   UNL     2      -9.760  18.654  68.178  1.00  0.00    -0.336 C  
HETATM   18  H   UNL     2     -11.089  19.892  68.895  1.00  0.00     0.000 HD 
HETATM   19  O   UNL     2     -10.144  19.814  68.949  1.00  0.00    -0.455 OA 
BRANCH  17  20
HETATM   20  C   UNL     2     -10.349  18.690  66.768  1.00  0.00    -0.407 C  
HETATM   21  O   UNL     2      -9.482  19.392  65.850  1.00  0.00    -0.416 OA 
HETATM   22  C   UNL     2     -10.524  17.219  66.297  1.00  0.00    -0.268 C  
HETATM   23  H   UNL     2      -9.849  19.414  64.974  1.00  0.00     0.000 HD 
HETATM   24  O   UNL     2     -10.937  16.435  67.192  1.00  0.00    -0.226 OA 
HETATM   25  O   UNL     2     -10.200  17.037  65.093  1.00  0.00    -0.544 OA 
ENDBRANCH  17  20
ENDBRANCH  14  17
ENDBRANCH  11  14
ENDBRANCH   8  11
ENDBRANCH   5   8
BRANCH   6  26
HETATM   26  C   UNL     3      -9.299  10.119  67.549  1.00  0.00    -0.151 C  
HETATM   27  H   UNL     3      -8.284  11.745  67.448  1.00  0.00     0.000 HD 
HETATM   28  O   UNL     3      -8.181  10.870  67.094  1.00  0.00    -0.121 OA 
BRANCH  26  29
HETATM   29  C   UNL     3     -10.661  10.754  67.162  1.00  0.00    -0.272 C  
HETATM   30  O   UNL     3     -11.723  10.216  68.068  1.00  0.00    -0.685 OA 
HETATM   31  H   UNL     3     -12.557  10.604  67.830  1.00  0.00     0.000 HD 
BRANCH  29  32
HETATM   32  C   UNL     3     -10.748  12.274  67.417  1.00  0.00    -0.230 C  
HETATM   33  H   UNL     3     -11.357  13.397  68.917  1.00  0.00     0.000 HD 
HETATM   34  O   UNL     3     -11.304  12.461  68.760  1.00  0.00    -0.249 OA 
BRANCH  32  35
HETATM   35  C   UNL     3     -11.200  13.318  66.384  1.00  0.00    -0.302 C  
HETATM   36  H   UNL     3     -10.336  14.257  64.930  1.00  0.00     0.000 HD 
HETATM   37  O   UNL     3     -10.057  13.612  65.569  1.00  0.00    -0.298 OA 
BRANCH  35  38
HETATM   38  C   UNL     3     -12.430  12.972  65.552  1.00  0.00    -0.438 C  
HETATM   39  C   UNL     3     -12.014  12.351  64.193  1.00  0.00    -0.435 C  
HETATM   40  O   UNL     3     -13.226  14.146  65.296  1.00  0.00    -0.760 OA 
HETATM   41  O   UNL     3     -10.769  12.156  64.027  1.00  0.00    -0.315 OA 
HETATM   42  O   UNL     3     -12.941  12.337  63.337  1.00  0.00    -0.753 OA 
HETATM   43  H   UNL     3     -13.993  13.931  64.778  1.00  0.00     0.000 HD 
ENDBRANCH  35  38
ENDBRANCH  32  35
ENDBRANCH  29  32
ENDBRANCH  26  29
ENDBRANCH   6  26
TORSDOF 10
ENDMDL
MODEL      220
REMARK 921   NORMALIZED FREE ENERGY PREDICTED BY IDOCK:   -5.33 KCAL/MOL
REMARK 922        TOTAL FREE ENERGY PREDICTED BY IDOCK:  -10.94 KCAL/MOL
REMARK 923 INTER-LIGAND FREE ENERGY PREDICTED BY IDOCK:   -8.02 KCAL/MOL
REMARK 924 INTRA-LIGAND FREE ENERGY PREDICTED BY IDOCK:   -2.92 KCAL/MOL
REMARK 927      BINDING AFFINITY PREDICTED BY RF-SCORE:    0.00 PKD
ROOT
HETATM    1 CA   UNL     1      -6.247  12.441  70.045  1.00  0.00    -0.091 Ca 
HETATM    2  O   UNL     2      -7.359  17.961  68.941  1.00  0.00    -0.276 OA 
HETATM    3  O   UNL     3      -9.263   6.925  70.229  1.00  0.00    -0.155 OA 
HETATM    4  H   UNL     2      -7.391  18.329  69.817  1.00  0.00     0.000 HD 
HETATM    5  C   UNL     2      -7.152  16.553  69.040  1.00  0.00    -0.213 C  
HETATM    6  C   UNL     3      -8.836   7.991  71.073  1.00  0.00    -0.139 C  
HETATM    7  H   UNL     3      -8.960   6.093  70.573  1.00  0.00     0.000 HD 
ENDROOT
BRANCH   5   8
HETATM    8  C   UNL     2      -7.100  15.955  67.618  1.00  0.00    -0.161 C  
HETATM    9  O   UNL     2      -5.752  15.589  67.341  1.00  0.00    -0.313 OA 
HETATM   10  H   UNL     2      -5.720  15.221  66.466  1.00  0.00     0.000 HD 
BRANCH   8  11
HETATM   11  C   UNL     2      -7.969  14.691  67.511  1.00  0.00    -0.190 C  
HETATM   12  H   UNL     2      -8.417  13.073  68.616  1.00  0.00     0.000 HD 
HETATM   13  O   UNL     2      -7.880  13.855  68.682  1.00  0.00    -0.136 OA 
BRANCH  11  14
HETATM   14  C   UNL     2      -9.456  14.817  67.099  1.00  0.00    -0.227 C  
HETATM   15  O   UNL     2      -9.580  14.719  65.689  1.00  0.00    -0.456 OA 
HETATM   16  H   UNL     2     -10.492  14.796  65.436  1.00  0.00     0.000 HD 
BRANCH  14  17
HETATM   17  C   UNL     2     -10.294  15.934  67.750  1.00  0.00    -0.278 C  
HETATM   18  H   UNL     2     -10.841  17.736  67.231  1.00  0.00     0.000 HD 
HETATM   19  O   UNL     2     -10.324  17.047  66.829  1.00  0.00    -0.309 OA 
BRANCH  17  20
HETATM   20  C   UNL     2     -11.697  15.537  68.207  1.00  0.00    -0.274 C  
HETATM   21  O   UNL     2     -12.220  14.443  67.422  1.00  0.00    -0.591 OA 
HETATM   22  C   UNL     2     -11.600  15.108  69.698  1.00  0.00    -0.311 C  
HETATM   23  H   UNL     2     -13.093  14.197  67.706  1.00  0.00     0.000 HD 
HETATM   24  O   UNL     2     -10.829  15.823  70.393  1.00  0.00    -0.312 OA 
HETATM   25  O   UNL     2     -12.291  14.091  69.972  1.00  0.00    -0.335 OA 
ENDBRANCH  17  20
ENDBRANCH  14  17
ENDBRANCH  11  14
ENDBRANCH   8  11
ENDBRANCH   5   8
BRANCH   6  26
HETATM   26  C   UNL     3      -9.326   9.335  70.517  1.00  0.00    -0.264 C  
HETATM   27  H   UNL     3      -8.473  10.856  69.716  1.00  0.00     0.000 HD 
HETATM   28  O   UNL     3      -8.170  10.025  70.061  1.00  0.00    -0.178 OA 
BRANCH  26  29
HETATM   29  C   UNL     3     -10.408   9.159  69.419  1.00  0.00    -0.216 C  
HETATM   30  O   UNL     3     -11.672   8.676  70.056  1.00  0.00    -0.454 OA 
HETATM   31  H   UNL     3     -12.335   8.568  69.383  1.00  0.00     0.000 HD 
BRANCH  29  32
HETATM   32  C   UNL     3     -10.856  10.477  68.752  1.00  0.00    -0.231 C  
HETATM   33  H   UNL     3     -12.332  11.748  69.045  1.00  0.00     0.000 HD 
HETATM   34  O   UNL     3     -12.057  10.937  69.455  1.00  0.00    -0.322 OA 
BRANCH  32  35
HETATM   35  C   UNL     3     -10.855  10.747  67.239  1.00  0.00    -0.288 C  
HETATM   36  H   UNL     3     -11.955  11.795  66.042  1.00  0.00     0.000 HD 
HETATM   37  O   UNL     3     -11.956  11.628  66.978  1.00  0.00    -0.593 OA 
BRANCH  35  38
HETATM   38  C   UNL     3      -9.551  11.255  66.635  1.00  0.00    -0.195 C  
HETATM   39  C   UNL     3      -9.213  10.480  65.334  1.00  0.00    -0.192 C  
HETATM   40  O   UNL     3      -8.458  11.097  67.560  1.00  0.00    -0.123 OA 
HETATM   41  O   UNL     3     -10.082   9.638  64.944  1.00  0.00    -0.075 OA 
HETATM   42  O   UNL     3      -8.016  10.616  64.958  1.00  0.00    -0.119 OA 
HETATM   43  H   UNL     3      -7.645  11.413  67.184  1.00  0.00     0.000 HD 
ENDBRANCH  35  38
ENDBRANCH  32  35
ENDBRANCH  29  32
ENDBRANCH  26  29
ENDBRANCH   6  26
TORSDOF 10
ENDMDL
MODEL      221
REMARK 921   NORMALIZED FREE ENERGY PREDICTED BY IDOCK:   -5.32 KCAL/MOL
REMARK 922        TOTAL FREE ENERGY PREDICTED BY IDOCK:  -10.93 KCAL/MOL
REMARK 923 INTER-LIGAND FREE ENERGY PREDICTED BY IDOCK:   -9.67 KCAL/MOL
REMARK 924 INTRA-LIGAND FREE ENERGY PREDICTED BY IDOCK:   -1.26 KCAL/MOL
REMARK 927      BINDING AFFINITY PREDICTED BY RF-SCORE:    0.00 PKD
ROOT
HETATM    1 CA   UNL     1      -9.141  15.414  69.781  1.00  0.00    -0.198 Ca 
HETATM    2  O   UNL     2      -9.964   9.857  68.611  1.00  0.00    -0.155 OA 
HETATM    3  O   UNL     3      -9.901  21.018  67.030  1.00  0.00    -0.610 OA 
HETATM    4  H   UNL     2      -9.079   9.568  68.421  1.00  0.00     0.000 HD 
HETATM    5  C   UNL     2      -9.947  11.261  68.863  1.00  0.00    -0.155 C  
HETATM    6  C   UNL     3      -8.915  20.017  67.266  1.00  0.00    -0.346 C  
HETATM    7  H   UNL     3      -9.580  21.867  67.311  1.00  0.00     0.000 HD 
ENDROOT
BRANCH   5   8
HETATM    8  C   UNL     2     -11.384  11.731  69.171  1.00  0.00    -0.279 C  
HETATM    9  O   UNL     2     -12.254  11.160  68.200  1.00  0.00    -0.708 OA 
HETATM   10  H   UNL     2     -13.139  11.450  68.390  1.00  0.00     0.000 HD 
BRANCH   8  11
HETATM   11  C   UNL     2     -11.842  11.255  70.559  1.00  0.00    -0.324 C  
HETATM   12  H   UNL     2     -12.923  11.942  72.108  1.00  0.00     0.000 HD 
HETATM   13  O   UNL     2     -12.640  12.237  71.250  1.00  0.00    -0.343 OA 
BRANCH  11  14
HETATM   14  C   UNL     2     -12.517   9.869  70.708  1.00  0.00    -0.256 C  
HETATM   15  O   UNL     2     -13.850   9.924  70.228  1.00  0.00    -0.283 OA 
HETATM   16  H   UNL     2     -14.264   9.073  70.319  1.00  0.00     0.000 HD 
BRANCH  14  17
HETATM   17  C   UNL     2     -12.333   9.115  72.039  1.00  0.00    -0.377 C  
HETATM   18  H   UNL     2     -13.471   8.725  73.578  1.00  0.00     0.000 HD 
HETATM   19  O   UNL     2     -13.585   9.191  72.757  1.00  0.00    -0.430 OA 
BRANCH  17  20
HETATM   20  C   UNL     2     -11.829   7.676  71.929  1.00  0.00    -0.294 C  
HETATM   21  O   UNL     2     -12.573   6.929  70.941  1.00  0.00    -0.479 OA 
HETATM   22  C   UNL     2     -10.331   7.735  71.517  1.00  0.00    -0.193 C  
HETATM   23  H   UNL     2     -12.260   6.035  70.873  1.00  0.00     0.000 HD 
HETATM   24  O   UNL     2      -9.676   8.650  72.084  1.00  0.00    -0.292 OA 
HETATM   25  O   UNL     2     -10.014   6.870  70.658  1.00  0.00    -0.186 OA 
ENDBRANCH  17  20
ENDBRANCH  14  17
ENDBRANCH  11  14
ENDBRANCH   8  11
ENDBRANCH   5   8
BRANCH   6  26
HETATM   26  C   UNL     3      -9.434  18.645  66.811  1.00  0.00    -0.316 C  
HETATM   27  H   UNL     3     -10.597  18.039  65.410  1.00  0.00     0.000 HD 
HETATM   28  O   UNL     3     -10.276  18.887  65.691  1.00  0.00    -0.504 OA 
BRANCH  26  29
HETATM   29  C   UNL     3      -8.282  17.651  66.509  1.00  0.00    -0.273 C  
HETATM   30  O   UNL     3      -6.994  18.240  66.988  1.00  0.00    -0.186 OA 
HETATM   31  H   UNL     3      -6.288  17.631  66.803  1.00  0.00     0.000 HD 
BRANCH  29  32
HETATM   32  C   UNL     3      -8.359  16.330  67.306  1.00  0.00    -0.180 C  
HETATM   33  H   UNL     3      -7.393  15.585  68.852  1.00  0.00     0.000 HD 
HETATM   34  O   UNL     3      -7.346  16.398  68.362  1.00  0.00    -0.155 OA 
BRANCH  32  35
HETATM   35  C   UNL     3      -8.551  14.936  66.688  1.00  0.00    -0.172 C  
HETATM   36  H   UNL     3      -8.434  13.124  67.355  1.00  0.00     0.000 HD 
HETATM   37  O   UNL     3      -8.315  13.987  67.736  1.00  0.00    -0.150 OA 
BRANCH  35  38
HETATM   38  C   UNL     3      -9.868  14.683  65.964  1.00  0.00    -0.322 C  
HETATM   39  C   UNL     3     -11.055  14.706  66.963  1.00  0.00    -0.333 C  
HETATM   40  O   UNL     3      -9.853  13.405  65.298  1.00  0.00    -0.497 OA 
HETATM   41  O   UNL     3     -10.767  15.005  68.165  1.00  0.00    -0.246 OA 
HETATM   42  O   UNL     3     -12.115  14.197  66.505  1.00  0.00    -0.428 OA 
HETATM   43  H   UNL     3     -10.674  13.247  64.847  1.00  0.00     0.000 HD 
ENDBRANCH  35  38
ENDBRANCH  32  35
ENDBRANCH  29  32
ENDBRANCH  26  29
ENDBRANCH   6  26
TORSDOF 10
ENDMDL
MODEL      222
REMARK 921   NORMALIZED FREE ENERGY PREDICTED BY IDOCK:   -5.32 KCAL/MOL
REMARK 922        TOTAL FREE ENERGY PREDICTED BY IDOCK:  -10.92 KCAL/MOL
REMARK 923 INTER-LIGAND FREE ENERGY PREDICTED BY IDOCK:   -8.59 KCAL/MOL
REMARK 924 INTRA-LIGAND FREE ENERGY PREDICTED BY IDOCK:   -2.33 KCAL/MOL
REMARK 927      BINDING AFFINITY PREDICTED BY RF-SCORE:    0.00 PKD
ROOT
HETATM    1 CA   UNL     1      -8.562  15.446  65.350  1.00  0.00    -0.331 Ca 
HETATM    2  O   UNL     2     -11.346  10.972  63.080  1.00  0.00    -0.731 OA 
HETATM    3  O   UNL     3      -9.840  21.061  67.877  1.00  0.00    -0.130 OA 
HETATM    4  H   UNL     2     -11.202  11.108  62.151  1.00  0.00     0.000 HD 
HETATM    5  C   UNL     2     -10.763  12.056  63.801  1.00  0.00    -0.423 C  
HETATM    6  C   UNL     3      -9.466  20.453  66.644  1.00  0.00    -0.305 C  
HETATM    7  H   UNL     3      -9.242  21.768  68.089  1.00  0.00     0.000 HD 
ENDROOT
BRANCH   5   8
HETATM    8  C   UNL     2     -10.997  11.836  65.310  1.00  0.00    -0.295 C  
HETATM    9  O   UNL     2     -12.391  11.973  65.566  1.00  0.00    -0.460 OA 
HETATM   10  H   UNL     2     -12.535  11.837  66.495  1.00  0.00     0.000 HD 
BRANCH   8  11
HETATM   11  C   UNL     2     -10.570  10.423  65.741  1.00  0.00    -0.030 C  
HETATM   12  H   UNL     2      -9.288   8.992  65.154  1.00  0.00     0.000 HD 
HETATM   13  O   UNL     2      -9.551   9.865  64.888  1.00  0.00    -0.281 OA 
BRANCH  11  14
HETATM   14  C   UNL     2     -10.185  10.158  67.218  1.00  0.00    -0.222 C  
HETATM   15  O   UNL     2      -8.778  10.234  67.374  1.00  0.00    -0.128 OA 
HETATM   16  H   UNL     2      -8.541  10.071  68.280  1.00  0.00     0.000 HD 
BRANCH  14  17
HETATM   17  C   UNL     2     -10.858   8.974  67.938  1.00  0.00    -0.053 C  
HETATM   18  H   UNL     2     -11.426   7.179  67.418  1.00  0.00     0.000 HD 
HETATM   19  O   UNL     2     -11.011   7.909  66.973  1.00  0.00    -0.219 OA 
BRANCH  17  20
HETATM   20  C   UNL     2     -10.169   8.488  69.213  1.00  0.00    -0.208 C  
HETATM   21  O   UNL     2      -8.802   8.096  68.960  1.00  0.00    -0.143 OA 
HETATM   22  C   UNL     2     -10.194   9.660  70.234  1.00  0.00    -0.277 C  
HETATM   23  H   UNL     2      -8.374   7.794  69.752  1.00  0.00     0.000 HD 
HETATM   24  O   UNL     2     -11.270  10.315  70.243  1.00  0.00    -0.280 OA 
HETATM   25  O   UNL     2      -9.117   9.787  70.876  1.00  0.00    -0.120 OA 
ENDBRANCH  17  20
ENDBRANCH  14  17
ENDBRANCH  11  14
ENDBRANCH   8  11
ENDBRANCH   5   8
BRANCH   6  26
HETATM   26  C   UNL     3     -10.433  19.311  66.302  1.00  0.00    -0.478 C  
HETATM   27  H   UNL     3     -11.352  18.751  64.713  1.00  0.00     0.000 HD 
HETATM   28  O   UNL     3     -10.754  19.457  64.925  1.00  0.00    -0.105 OA 
BRANCH  26  29
HETATM   29  C   UNL     3      -9.845  17.918  66.650  1.00  0.00    -0.342 C  
HETATM   30  O   UNL     3      -8.400  18.074  67.001  1.00  0.00    -0.225 OA 
HETATM   31  H   UNL     3      -8.040  17.221  67.214  1.00  0.00     0.000 HD 
BRANCH  29  32
HETATM   32  C   UNL     3     -10.430  17.284  67.930  1.00  0.00    -0.382 C  
HETATM   33  H   UNL     3     -10.329  17.697  69.854  1.00  0.00     0.000 HD 
HETATM   34  O   UNL     3      -9.968  18.087  69.066  1.00  0.00    -0.357 OA 
BRANCH  32  35
HETATM   35  C   UNL     3     -10.523  15.775  68.206  1.00  0.00    -0.259 C  
HETATM   36  H   UNL     3      -9.278  14.297  68.122  1.00  0.00     0.000 HD 
HETATM   37  O   UNL     3      -9.222  15.230  67.951  1.00  0.00    -0.182 OA 
BRANCH  35  38
HETATM   38  C   UNL     3     -11.067  15.360  69.568  1.00  0.00    -0.284 C  
HETATM   39  C   UNL     3     -11.974  14.108  69.436  1.00  0.00    -0.337 C  
HETATM   40  O   UNL     3     -11.837  16.424  70.162  1.00  0.00    -0.347 OA 
HETATM   41  O   UNL     3     -12.050  13.594  68.276  1.00  0.00    -0.357 OA 
HETATM   42  O   UNL     3     -12.704  13.901  70.445  1.00  0.00    -0.305 OA 
HETATM   43  H   UNL     3     -12.177  16.165  71.011  1.00  0.00     0.000 HD 
ENDBRANCH  35  38
ENDBRANCH  32  35
ENDBRANCH  29  32
ENDBRANCH  26  29
ENDBRANCH   6  26
TORSDOF 10
ENDMDL
MODEL      223
REMARK 921   NORMALIZED FREE ENERGY PREDICTED BY IDOCK:   -5.31 KCAL/MOL
REMARK 922        TOTAL FREE ENERGY PREDICTED BY IDOCK:  -10.91 KCAL/MOL
REMARK 923 INTER-LIGAND FREE ENERGY PREDICTED BY IDOCK:   -9.30 KCAL/MOL
REMARK 924 INTRA-LIGAND FREE ENERGY PREDICTED BY IDOCK:   -1.61 KCAL/MOL
REMARK 927      BINDING AFFINITY PREDICTED BY RF-SCORE:    0.00 PKD
ROOT
HETATM    1 CA   UNL     1     -11.433   8.231  67.162  1.00  0.00    -0.470 Ca 
HETATM    2  O   UNL     2      -9.876  12.641  63.838  1.00  0.00    -0.624 OA 
HETATM    3  O   UNL     3      -9.077   4.716  71.814  1.00  0.00    -0.130 OA 
HETATM    4  H   UNL     2      -9.670  12.202  63.021  1.00  0.00     0.000 HD 
HETATM    5  C   UNL     2     -10.225  11.661  64.814  1.00  0.00    -0.275 C  
HETATM    6  C   UNL     3      -9.246   4.724  70.399  1.00  0.00    -0.136 C  
HETATM    7  H   UNL     3      -9.418   3.908  72.180  1.00  0.00     0.000 HD 
ENDROOT
BRANCH   5   8
HETATM    8  C   UNL     2     -10.560  12.374  66.141  1.00  0.00    -0.254 C  
HETATM    9  O   UNL     2      -9.349  12.540  66.871  1.00  0.00    -0.206 OA 
HETATM   10  H   UNL     2      -9.555  12.979  67.688  1.00  0.00     0.000 HD 
BRANCH   8  11
HETATM   11  C   UNL     2     -11.160  13.767  65.891  1.00  0.00    -0.286 C  
HETATM   12  H   UNL     2     -12.952  14.586  65.494  1.00  0.00     0.000 HD 
HETATM   13  O   UNL     2     -12.580  13.725  65.649  1.00  0.00    -0.491 OA 
BRANCH  11  14
HETATM   14  C   UNL     2     -10.855  14.920  66.879  1.00  0.00    -0.319 C  
HETATM   15  O   UNL     2     -11.992  15.181  67.686  1.00  0.00    -0.416 OA 
HETATM   16  H   UNL     2     -11.804  15.889  68.292  1.00  0.00     0.000 HD 
BRANCH  14  17
HETATM   17  C   UNL     2     -10.143  16.171  66.331  1.00  0.00    -0.308 C  
HETATM   18  H   UNL     2     -10.123  17.116  64.621  1.00  0.00     0.000 HD 
HETATM   19  O   UNL     2     -10.563  16.344  64.959  1.00  0.00    -0.651 OA 
BRANCH  17  20
HETATM   20  C   UNL     2     -10.322  17.453  67.144  1.00  0.00    -0.325 C  
HETATM   21  O   UNL     2     -10.544  17.166  68.542  1.00  0.00    -0.345 OA 
HETATM   22  C   UNL     2      -9.023  18.292  66.986  1.00  0.00    -0.274 C  
HETATM   23  H   UNL     2     -10.656  17.962  69.047  1.00  0.00     0.000 HD 
HETATM   24  O   UNL     2      -8.539  18.281  65.823  1.00  0.00    -0.462 OA 
HETATM   25  O   UNL     2      -8.644  18.835  68.058  1.00  0.00    -0.282 OA 
ENDBRANCH  17  20
ENDBRANCH  14  17
ENDBRANCH  11  14
ENDBRANCH   8  11
ENDBRANCH   5   8
BRANCH   6  26
HETATM   26  C   UNL     3      -8.695   6.029  69.808  1.00  0.00    -0.130 C  
HETATM   27  H   UNL     3      -8.146   6.592  68.057  1.00  0.00     0.000 HD 
HETATM   28  O   UNL     3      -8.487   5.784  68.423  1.00  0.00    -0.109 OA 
BRANCH  26  29
HETATM   29  C   UNL     3      -9.626   7.239  70.084  1.00  0.00    -0.168 C  
HETATM   30  O   UNL     3      -9.845   7.986  68.807  1.00  0.00    -0.164 OA 
HETATM   31  H   UNL     3     -10.415   8.727  68.976  1.00  0.00     0.000 HD 
BRANCH  29  32
HETATM   32  C   UNL     3     -11.064   6.853  70.492  1.00  0.00    -0.288 C  
HETATM   33  H   UNL     3     -12.772   6.652  69.531  1.00  0.00     0.000 HD 
HETATM   34  O   UNL     3     -11.887   6.890  69.280  1.00  0.00     0.081 OA 
BRANCH  32  35
HETATM   35  C   UNL     3     -11.778   7.327  71.768  1.00  0.00    -0.286 C  
HETATM   36  H   UNL     3     -11.531   7.019  73.661  1.00  0.00     0.000 HD 
HETATM   37  O   UNL     3     -11.090   6.725  72.872  1.00  0.00    -0.264 OA 
BRANCH  35  38
HETATM   38  C   UNL     3     -11.944   8.833  71.941  1.00  0.00    -0.365 C  
HETATM   39  C   UNL     3     -13.445   9.210  72.037  1.00  0.00    -0.448 C  
HETATM   40  O   UNL     3     -11.361   9.546  70.832  1.00  0.00    -0.285 OA 
HETATM   41  O   UNL     3     -14.265   8.239  72.043  1.00  0.00    -0.406 OA 
HETATM   42  O   UNL     3     -13.672  10.439  71.861  1.00  0.00    -0.212 OA 
HETATM   43  H   UNL     3     -11.465  10.485  70.939  1.00  0.00     0.000 HD 
ENDBRANCH  35  38
ENDBRANCH  32  35
ENDBRANCH  29  32
ENDBRANCH  26  29
ENDBRANCH   6  26
TORSDOF 10
ENDMDL
MODEL      224
REMARK 921   NORMALIZED FREE ENERGY PREDICTED BY IDOCK:   -5.31 KCAL/MOL
REMARK 922        TOTAL FREE ENERGY PREDICTED BY IDOCK:  -10.91 KCAL/MOL
REMARK 923 INTER-LIGAND FREE ENERGY PREDICTED BY IDOCK:   -9.40 KCAL/MOL
REMARK 924 INTRA-LIGAND FREE ENERGY PREDICTED BY IDOCK:   -1.51 KCAL/MOL
REMARK 927      BINDING AFFINITY PREDICTED BY RF-SCORE:    0.00 PKD
ROOT
HETATM    1 CA   UNL     1     -12.688  10.364  68.463  1.00  0.00    -0.427 Ca 
HETATM    2  O   UNL     2     -12.198  12.842  63.311  1.00  0.00    -0.605 OA 
HETATM    3  O   UNL     3      -9.965   5.801  71.827  1.00  0.00    -0.164 OA 
HETATM    4  H   UNL     2     -12.924  12.449  62.840  1.00  0.00     0.000 HD 
HETATM    5  C   UNL     2     -12.135  12.273  64.618  1.00  0.00    -0.374 C  
HETATM    6  C   UNL     3     -11.076   6.041  70.967  1.00  0.00    -0.282 C  
HETATM    7  H   UNL     3     -10.258   5.406  72.639  1.00  0.00     0.000 HD 
ENDROOT
BRANCH   5   8
HETATM    8  C   UNL     2     -10.956  12.910  65.383  1.00  0.00    -0.278 C  
HETATM    9  O   UNL     2      -9.795  12.815  64.565  1.00  0.00    -0.547 OA 
HETATM   10  H   UNL     2      -9.069  13.207  65.037  1.00  0.00     0.000 HD 
BRANCH   8  11
HETATM   11  C   UNL     2     -11.216  14.398  65.671  1.00  0.00    -0.323 C  
HETATM   12  H   UNL     2     -12.144  15.526  67.051  1.00  0.00     0.000 HD 
HETATM   13  O   UNL     2     -11.983  14.606  66.873  1.00  0.00    -0.373 OA 
BRANCH  11  14
HETATM   14  C   UNL     2     -10.034  15.398  65.653  1.00  0.00    -0.362 C  
HETATM   15  O   UNL     2      -9.136  15.108  66.712  1.00  0.00    -0.222 OA 
HETATM   16  H   UNL     2      -8.410  15.722  66.701  1.00  0.00     0.000 HD 
BRANCH  14  17
HETATM   17  C   UNL     2     -10.354  16.892  65.461  1.00  0.00    -0.177 C  
HETATM   18  H   UNL     2     -11.545  17.915  64.299  1.00  0.00     0.000 HD 
HETATM   19  O   UNL     2     -11.348  16.992  64.417  1.00  0.00    -1.140 OA 
BRANCH  17  20
HETATM   20  C   UNL     2     -10.774  17.653  66.718  1.00  0.00    -0.129 C  
HETATM   21  O   UNL     2     -10.729  16.808  67.889  1.00  0.00    -0.344 OA 
HETATM   22  C   UNL     2      -9.789  18.842  66.896  1.00  0.00    -0.329 C  
HETATM   23  H   UNL     2     -10.990  17.281  68.670  1.00  0.00     0.000 HD 
HETATM   24  O   UNL     2      -9.473  19.417  65.821  1.00  0.00    -0.391 OA 
HETATM   25  O   UNL     2      -9.440  19.028  68.093  1.00  0.00    -0.307 OA 
ENDBRANCH  17  20
ENDBRANCH  14  17
ENDBRANCH  11  14
ENDBRANCH   8  11
ENDBRANCH   5   8
BRANCH   6  26
HETATM   26  C   UNL     3     -10.602   6.680  69.654  1.00  0.00    -0.234 C  
HETATM   27  H   UNL     3     -11.196   6.618  67.831  1.00  0.00     0.000 HD 
HETATM   28  O   UNL     3     -11.489   6.222  68.643  1.00  0.00    -0.263 OA 
BRANCH  26  29
HETATM   29  C   UNL     3     -10.525   8.227  69.748  1.00  0.00    -0.220 C  
HETATM   30  O   UNL     3     -11.603   8.713  70.663  1.00  0.00    -0.342 OA 
HETATM   31  H   UNL     3     -11.556   9.660  70.720  1.00  0.00     0.000 HD 
BRANCH  29  32
HETATM   32  C   UNL     3      -9.246   8.759  70.430  1.00  0.00    -0.180 C  
HETATM   33  H   UNL     3      -8.738   9.183  72.286  1.00  0.00     0.000 HD 
HETATM   34  O   UNL     3      -9.525   8.856  71.865  1.00  0.00    -0.290 OA 
BRANCH  32  35
HETATM   35  C   UNL     3      -8.346   9.873  69.874  1.00  0.00    -0.183 C  
HETATM   36  H   UNL     3      -6.566   9.935  69.119  1.00  0.00     0.000 HD 
HETATM   37  O   UNL     3      -7.123   9.246  69.464  1.00  0.00    -0.056 OA 
BRANCH  35  38
HETATM   38  C   UNL     3      -8.941  10.753  68.781  1.00  0.00    -0.170 C  
HETATM   39  C   UNL     3      -8.054  12.003  68.542  1.00  0.00    -0.123 C  
HETATM   40  O   UNL     3     -10.267  11.191  69.137  1.00  0.00    -0.307 OA 
HETATM   41  O   UNL     3      -6.971  12.054  69.206  1.00  0.00    -0.096 OA 
HETATM   42  O   UNL     3      -8.633  12.920  67.897  1.00  0.00    -0.163 OA 
HETATM   43  H   UNL     3     -10.638  11.740  68.455  1.00  0.00     0.000 HD 
ENDBRANCH  35  38
ENDBRANCH  32  35
ENDBRANCH  29  32
ENDBRANCH  26  29
ENDBRANCH   6  26
TORSDOF 10
ENDMDL
MODEL      225
REMARK 921   NORMALIZED FREE ENERGY PREDICTED BY IDOCK:   -5.29 KCAL/MOL
REMARK 922        TOTAL FREE ENERGY PREDICTED BY IDOCK:  -10.88 KCAL/MOL
REMARK 923 INTER-LIGAND FREE ENERGY PREDICTED BY IDOCK:   -9.83 KCAL/MOL
REMARK 924 INTRA-LIGAND FREE ENERGY PREDICTED BY IDOCK:   -1.05 KCAL/MOL
REMARK 927      BINDING AFFINITY PREDICTED BY RF-SCORE:    0.00 PKD
ROOT
HETATM    1 CA   UNL     1     -11.818   9.351  67.166  1.00  0.00    -0.240 Ca 
HETATM    2  O   UNL     2     -12.591  13.072  62.867  1.00  0.00    -0.555 OA 
HETATM    3  O   UNL     3      -7.252   7.450  71.050  1.00  0.00    -0.066 OA 
HETATM    4  H   UNL     2     -12.575  12.497  62.110  1.00  0.00     0.000 HD 
HETATM    5  C   UNL     2     -12.341  12.298  64.039  1.00  0.00    -0.475 C  
HETATM    6  C   UNL     3      -7.887   7.103  69.823  1.00  0.00    -0.118 C  
HETATM    7  H   UNL     3      -7.244   6.704  71.637  1.00  0.00     0.000 HD 
ENDROOT
BRANCH   5   8
HETATM    8  C   UNL     2     -12.368  13.232  65.268  1.00  0.00    -0.476 C  
HETATM    9  O   UNL     2     -12.221  12.431  66.435  1.00  0.00    -0.604 OA 
HETATM   10  H   UNL     2     -12.237  13.005  67.192  1.00  0.00     0.000 HD 
BRANCH   8  11
HETATM   11  C   UNL     2     -11.205  14.237  65.230  1.00  0.00    -0.337 C  
HETATM   12  H   UNL     2      -9.423  14.446  64.326  1.00  0.00     0.000 HD 
HETATM   13  O   UNL     2     -10.142  13.825  64.349  1.00  0.00    -0.319 OA 
BRANCH  11  14
HETATM   14  C   UNL     2     -11.500  15.738  64.990  1.00  0.00    -0.122 C  
HETATM   15  O   UNL     2     -11.961  15.937  63.663  1.00  0.00    -1.239 OA 
HETATM   16  H   UNL     2     -12.141  16.858  63.516  1.00  0.00     0.000 HD 
BRANCH  14  17
HETATM   17  C   UNL     2     -10.462  16.766  65.480  1.00  0.00    -0.237 C  
HETATM   18  H   UNL     2     -10.232  18.697  65.296  1.00  0.00     0.000 HD 
HETATM   19  O   UNL     2     -10.872  18.063  64.994  1.00  0.00    -0.738 OA 
BRANCH  17  20
HETATM   20  C   UNL     2     -10.195  16.783  66.984  1.00  0.00    -0.292 C  
HETATM   21  O   UNL     2     -11.369  16.401  67.734  1.00  0.00    -0.194 OA 
HETATM   22  C   UNL     2      -9.047  15.774  67.267  1.00  0.00    -0.207 C  
HETATM   23  H   UNL     2     -11.203  16.412  68.670  1.00  0.00     0.000 HD 
HETATM   24  O   UNL     2      -8.126  15.785  66.408  1.00  0.00    -0.245 OA 
HETATM   25  O   UNL     2      -9.232  15.082  68.304  1.00  0.00    -0.175 OA 
ENDBRANCH  17  20
ENDBRANCH  14  17
ENDBRANCH  11  14
ENDBRANCH   8  11
ENDBRANCH   5   8
BRANCH   6  26
HETATM   26  C   UNL     3      -7.901   8.310  68.874  1.00  0.00    -0.111 C  
HETATM   27  H   UNL     3      -8.226   8.549  66.997  1.00  0.00     0.000 HD 
HETATM   28  O   UNL     3      -8.217   7.802  67.584  1.00  0.00    -0.122 OA 
BRANCH  26  29
HETATM   29  C   UNL     3      -8.873   9.422  69.350  1.00  0.00    -0.159 C  
HETATM   30  O   UNL     3      -9.388  10.161  68.156  1.00  0.00    -0.134 OA 
HETATM   31  H   UNL     3      -9.983  10.842  68.448  1.00  0.00     0.000 HD 
BRANCH  29  32
HETATM   32  C   UNL     3     -10.172   8.894  69.998  1.00  0.00    -0.199 C  
HETATM   33  H   UNL     3     -12.058   9.460  69.983  1.00  0.00     0.000 HD 
HETATM   34  O   UNL     3     -11.259   9.784  69.584  1.00  0.00    -0.234 OA 
BRANCH  32  35
HETATM   35  C   UNL     3     -10.289   8.363  71.435  1.00  0.00    -0.222 C  
HETATM   36  H   UNL     3      -9.293   8.631  73.071  1.00  0.00     0.000 HD 
HETATM   37  O   UNL     3      -9.221   8.960  72.183  1.00  0.00    -0.364 OA 
BRANCH  35  38
HETATM   38  C   UNL     3     -11.640   8.533  72.121  1.00  0.00    -0.377 C  
HETATM   39  C   UNL     3     -12.586   7.356  71.764  1.00  0.00    -0.335 C  
HETATM   40  O   UNL     3     -12.269   9.766  71.720  1.00  0.00    -0.382 OA 
HETATM   41  O   UNL     3     -12.081   6.430  71.055  1.00  0.00    -0.300 OA 
HETATM   42  O   UNL     3     -13.800   7.584  72.024  1.00  0.00    -0.255 OA 
HETATM   43  H   UNL     3     -13.111   9.872  72.147  1.00  0.00     0.000 HD 
ENDBRANCH  35  38
ENDBRANCH  32  35
ENDBRANCH  29  32
ENDBRANCH  26  29
ENDBRANCH   6  26
TORSDOF 10
ENDMDL
MODEL      226
REMARK 921   NORMALIZED FREE ENERGY PREDICTED BY IDOCK:   -5.29 KCAL/MOL
REMARK 922        TOTAL FREE ENERGY PREDICTED BY IDOCK:  -10.88 KCAL/MOL
REMARK 923 INTER-LIGAND FREE ENERGY PREDICTED BY IDOCK:   -7.94 KCAL/MOL
REMARK 924 INTRA-LIGAND FREE ENERGY PREDICTED BY IDOCK:   -2.94 KCAL/MOL
REMARK 927      BINDING AFFINITY PREDICTED BY RF-SCORE:    0.00 PKD
ROOT
HETATM    1 CA   UNL     1     -12.185   6.550  67.872  1.00  0.00    -0.555 Ca 
HETATM    2  O   UNL     2      -8.740   2.234  66.314  1.00  0.00    -0.111 OA 
HETATM    3  O   UNL     3     -11.753  12.448  70.012  1.00  0.00    -0.451 OA 
HETATM    4  H   UNL     2      -8.794   1.663  67.072  1.00  0.00     0.000 HD 
HETATM    5  C   UNL     2      -9.503   3.412  66.570  1.00  0.00    -0.123 C  
HETATM    6  C   UNL     3     -11.927  11.108  70.464  1.00  0.00    -0.380 C  
HETATM    7  H   UNL     3     -12.437  13.005  70.363  1.00  0.00     0.000 HD 
ENDROOT
BRANCH   5   8
HETATM    8  C   UNL     2      -9.416   4.340  65.339  1.00  0.00    -0.177 C  
HETATM    9  O   UNL     2     -10.736   4.749  64.999  1.00  0.00    -0.488 OA 
HETATM   10  H   UNL     2     -10.682   5.320  64.242  1.00  0.00     0.000 HD 
BRANCH   8  11
HETATM   11  C   UNL     2      -8.591   5.601  65.648  1.00  0.00    -0.150 C  
HETATM   12  H   UNL     2      -7.720   7.112  64.651  1.00  0.00     0.000 HD 
HETATM   13  O   UNL     2      -8.230   6.333  64.460  1.00  0.00    -0.126 OA 
BRANCH  11  14
HETATM   14  C   UNL     2      -9.094   6.601  66.718  1.00  0.00    -0.142 C  
HETATM   15  O   UNL     2      -9.950   7.561  66.121  1.00  0.00    -0.451 OA 
HETATM   16  H   UNL     2     -10.258   8.175  66.778  1.00  0.00     0.000 HD 
BRANCH  14  17
HETATM   17  C   UNL     2      -8.066   7.172  67.713  1.00  0.00    -0.115 C  
HETATM   18  H   UNL     2      -6.923   8.755  67.766  1.00  0.00     0.000 HD 
HETATM   19  O   UNL     2      -7.557   8.403  67.152  1.00  0.00    -0.091 OA 
BRANCH  17  20
HETATM   20  C   UNL     2      -8.558   7.364  69.147  1.00  0.00    -0.136 C  
HETATM   21  O   UNL     2      -9.844   6.740  69.353  1.00  0.00    -0.155 OA 
HETATM   22  C   UNL     2      -7.507   6.716  70.092  1.00  0.00    -0.094 C  
HETATM   23  H   UNL     2     -10.150   6.859  70.245  1.00  0.00     0.000 HD 
HETATM   24  O   UNL     2      -6.312   6.910  69.746  1.00  0.00    -0.036 OA 
HETATM   25  O   UNL     2      -8.022   6.074  71.047  1.00  0.00    -0.111 OA 
ENDBRANCH  17  20
ENDBRANCH  14  17
ENDBRANCH  11  14
ENDBRANCH   8  11
ENDBRANCH   5   8
BRANCH   6  26
HETATM   26  C   UNL     3     -10.820  10.209  69.896  1.00  0.00    -0.299 C  
HETATM   27  H   UNL     3     -10.327   8.369  70.123  1.00  0.00     0.000 HD 
HETATM   28  O   UNL     3     -11.011   8.925  70.475  1.00  0.00    -0.229 OA 
BRANCH  26  29
HETATM   29  C   UNL     3     -10.818  10.188  68.344  1.00  0.00    -0.242 C  
HETATM   30  O   UNL     3     -12.128  10.713  67.849  1.00  0.00    -0.649 OA 
HETATM   31  H   UNL     3     -12.126  10.699  66.899  1.00  0.00     0.000 HD 
BRANCH  29  32
HETATM   32  C   UNL     3      -9.806  11.160  67.698  1.00  0.00    -0.174 C  
HETATM   33  H   UNL     3      -8.212  12.126  68.333  1.00  0.00     0.000 HD 
HETATM   34  O   UNL     3      -8.834  11.529  68.731  1.00  0.00    -0.138 OA 
BRANCH  32  35
HETATM   35  C   UNL     3     -10.167  12.291  66.723  1.00  0.00    -0.211 C  
HETATM   36  H   UNL     3      -9.477  14.064  66.379  1.00  0.00     0.000 HD 
HETATM   37  O   UNL     3      -9.254  13.365  66.983  1.00  0.00    -0.226 OA 
BRANCH  35  38
HETATM   38  C   UNL     3     -10.227  11.927  65.244  1.00  0.00    -0.272 C  
HETATM   39  C   UNL     3     -11.639  12.211  64.667  1.00  0.00    -0.328 C  
HETATM   40  O   UNL     3      -9.921  10.533  65.043  1.00  0.00    -0.278 OA 
HETATM   41  O   UNL     3     -12.466  12.760  65.461  1.00  0.00    -0.573 OA 
HETATM   42  O   UNL     3     -11.857  11.648  63.559  1.00  0.00    -0.431 OA 
HETATM   43  H   UNL     3      -9.958  10.306  64.121  1.00  0.00     0.000 HD 
ENDBRANCH  35  38
ENDBRANCH  32  35
ENDBRANCH  29  32
ENDBRANCH  26  29
ENDBRANCH   6  26
TORSDOF 10
ENDMDL
MODEL      227
REMARK 921   NORMALIZED FREE ENERGY PREDICTED BY IDOCK:   -5.28 KCAL/MOL
REMARK 922        TOTAL FREE ENERGY PREDICTED BY IDOCK:  -10.86 KCAL/MOL
REMARK 923 INTER-LIGAND FREE ENERGY PREDICTED BY IDOCK:   -8.56 KCAL/MOL
REMARK 924 INTRA-LIGAND FREE ENERGY PREDICTED BY IDOCK:   -2.30 KCAL/MOL
REMARK 927      BINDING AFFINITY PREDICTED BY RF-SCORE:    0.00 PKD
ROOT
HETATM    1 CA   UNL     1      -6.361  10.719  69.303  1.00  0.00    -0.044 Ca 
HETATM    2  O   UNL     2      -5.705  16.417  69.142  1.00  0.00    -0.123 OA 
HETATM    3  O   UNL     3     -10.769   6.476  70.760  1.00  0.00    -0.222 OA 
HETATM    4  H   UNL     2      -5.194  16.573  69.928  1.00  0.00     0.000 HD 
HETATM    5  C   UNL     2      -6.018  15.027  69.065  1.00  0.00    -0.096 C  
HETATM    6  C   UNL     3      -9.642   7.148  71.315  1.00  0.00    -0.163 C  
HETATM    7  H   UNL     3     -10.677   5.537  70.868  1.00  0.00     0.000 HD 
ENDROOT
BRANCH   5   8
HETATM    8  C   UNL     2      -6.848  14.773  67.788  1.00  0.00    -0.177 C  
HETATM    9  O   UNL     2      -7.850  13.810  68.097  1.00  0.00    -0.125 OA 
HETATM   10  H   UNL     2      -8.361  13.654  67.312  1.00  0.00     0.000 HD 
BRANCH   8  11
HETATM   11  C   UNL     2      -7.550  16.056  67.314  1.00  0.00    -0.194 C  
HETATM   12  H   UNL     2      -7.188  17.605  66.086  1.00  0.00     0.000 HD 
HETATM   13  O   UNL     2      -6.755  16.812  66.379  1.00  0.00    -0.194 OA 
BRANCH  11  14
HETATM   14  C   UNL     2      -9.004  15.982  66.787  1.00  0.00    -0.246 C  
HETATM   15  O   UNL     2      -9.119  14.950  65.820  1.00  0.00    -0.479 OA 
HETATM   16  H   UNL     2     -10.011  14.904  65.497  1.00  0.00     0.000 HD 
BRANCH  14  17
HETATM   17  C   UNL     2      -9.707  17.302  66.416  1.00  0.00    -0.290 C  
HETATM   18  H   UNL     2     -10.828  17.906  64.935  1.00  0.00     0.000 HD 
HETATM   19  O   UNL     2     -10.394  17.091  65.163  1.00  0.00    -0.632 OA 
BRANCH  17  20
HETATM   20  C   UNL     2     -10.634  17.888  67.481  1.00  0.00    -0.376 C  
HETATM   21  O   UNL     2     -10.627  17.091  68.685  1.00  0.00    -0.336 OA 
HETATM   22  C   UNL     2     -10.129  19.322  67.803  1.00  0.00    -0.391 C  
HETATM   23  H   UNL     2     -11.204  17.455  69.347  1.00  0.00     0.000 HD 
HETATM   24  O   UNL     2      -9.744  19.973  66.795  1.00  0.00    -0.378 OA 
HETATM   25  O   UNL     2     -10.160  19.599  69.032  1.00  0.00    -0.445 OA 
ENDBRANCH  17  20
ENDBRANCH  14  17
ENDBRANCH  11  14
ENDBRANCH   8  11
ENDBRANCH   5   8
BRANCH   6  26
HETATM   26  C   UNL     3      -9.790   8.666  71.139  1.00  0.00    -0.222 C  
HETATM   27  H   UNL     3      -8.693  10.052  70.391  1.00  0.00     0.000 HD 
HETATM   28  O   UNL     3      -8.601   9.113  70.500  1.00  0.00    -0.178 OA 
BRANCH  26  29
HETATM   29  C   UNL     3     -11.081   9.045  70.367  1.00  0.00    -0.244 C  
HETATM   30  O   UNL     3     -12.268   8.742  71.225  1.00  0.00    -0.295 OA 
HETATM   31  H   UNL     3     -13.058   8.975  70.752  1.00  0.00     0.000 HD 
BRANCH  29  32
HETATM   32  C   UNL     3     -11.241  10.558  70.103  1.00  0.00    -0.315 C  
HETATM   33  H   UNL     3     -12.507  11.944  70.700  1.00  0.00     0.000 HD 
HETATM   34  O   UNL     3     -12.409  11.013  70.862  1.00  0.00    -0.350 OA 
BRANCH  32  35
HETATM   35  C   UNL     3     -11.055  11.242  68.740  1.00  0.00    -0.233 C  
HETATM   36  H   UNL     3     -11.030  10.633  66.904  1.00  0.00     0.000 HD 
HETATM   37  O   UNL     3     -11.145  10.210  67.748  1.00  0.00    -0.295 OA 
BRANCH  35  38
HETATM   38  C   UNL     3     -11.972  12.420  68.433  1.00  0.00    -0.216 C  
HETATM   39  C   UNL     3     -11.516  13.147  67.141  1.00  0.00    -0.334 C  
HETATM   40  O   UNL     3     -11.972  13.369  69.518  1.00  0.00    -0.308 OA 
HETATM   41  O   UNL     3     -10.543  12.618  66.518  1.00  0.00    -0.249 OA 
HETATM   42  O   UNL     3     -12.016  14.297  67.001  1.00  0.00    -0.414 OA 
HETATM   43  H   UNL     3     -12.543  14.104  69.327  1.00  0.00     0.000 HD 
ENDBRANCH  35  38
ENDBRANCH  32  35
ENDBRANCH  29  32
ENDBRANCH  26  29
ENDBRANCH   6  26
TORSDOF 10
ENDMDL
MODEL      228
REMARK 921   NORMALIZED FREE ENERGY PREDICTED BY IDOCK:   -5.28 KCAL/MOL
REMARK 922        TOTAL FREE ENERGY PREDICTED BY IDOCK:  -10.86 KCAL/MOL
REMARK 923 INTER-LIGAND FREE ENERGY PREDICTED BY IDOCK:   -7.54 KCAL/MOL
REMARK 924 INTRA-LIGAND FREE ENERGY PREDICTED BY IDOCK:   -3.32 KCAL/MOL
REMARK 927      BINDING AFFINITY PREDICTED BY RF-SCORE:    0.00 PKD
ROOT
HETATM    1 CA   UNL     1     -10.926   8.519  67.788  1.00  0.00    -0.235 Ca 
HETATM    2  O   UNL     2     -10.764  11.770  63.063  1.00  0.00    -0.656 OA 
HETATM    3  O   UNL     3      -6.965   6.062  72.011  1.00  0.00    -0.074 OA 
HETATM    4  H   UNL     2     -10.885  11.121  62.380  1.00  0.00     0.000 HD 
HETATM    5  C   UNL     2     -10.712  11.107  64.325  1.00  0.00    -0.333 C  
HETATM    6  C   UNL     3      -7.662   5.733  70.813  1.00  0.00    -0.093 C  
HETATM    7  H   UNL     3      -7.139   5.412  72.681  1.00  0.00     0.000 HD 
ENDROOT
BRANCH   5   8
HETATM    8  C   UNL     2     -10.515  12.161  65.436  1.00  0.00    -0.270 C  
HETATM    9  O   UNL     2     -11.756  12.830  65.635  1.00  0.00    -0.355 OA 
HETATM   10  H   UNL     2     -11.635  13.479  66.318  1.00  0.00     0.000 HD 
BRANCH   8  11
HETATM   11  C   UNL     2     -10.110  11.503  66.765  1.00  0.00    -0.215 C  
HETATM   12  H   UNL     2      -9.342   9.762  67.411  1.00  0.00     0.000 HD 
HETATM   13  O   UNL     2      -9.593  10.169  66.590  1.00  0.00    -0.171 OA 
BRANCH  11  14
HETATM   14  C   UNL     2      -9.193  12.270  67.749  1.00  0.00    -0.191 C  
HETATM   15  O   UNL     2      -9.844  12.425  69.000  1.00  0.00    -0.415 OA 
HETATM   16  H   UNL     2      -9.280  12.895  69.603  1.00  0.00     0.000 HD 
BRANCH  14  17
HETATM   17  C   UNL     2      -8.468  13.527  67.231  1.00  0.00    -0.193 C  
HETATM   18  H   UNL     2      -9.030  15.286  66.595  1.00  0.00     0.000 HD 
HETATM   19  O   UNL     2      -9.478  14.510  66.914  1.00  0.00    -0.231 OA 
BRANCH  17  20
HETATM   20  C   UNL     2      -7.386  14.099  68.146  1.00  0.00    -0.130 C  
HETATM   21  O   UNL     2      -7.870  14.271  69.496  1.00  0.00    -0.358 OA 
HETATM   22  C   UNL     2      -6.194  13.100  68.143  1.00  0.00    -0.106 C  
HETATM   23  H   UNL     2      -7.197  14.627  70.064  1.00  0.00     0.000 HD 
HETATM   24  O   UNL     2      -5.944  12.598  67.016  1.00  0.00    -0.301 OA 
HETATM   25  O   UNL     2      -5.681  12.931  69.282  1.00  0.00    -0.073 OA 
ENDBRANCH  17  20
ENDBRANCH  14  17
ENDBRANCH  11  14
ENDBRANCH   8  11
ENDBRANCH   5   8
BRANCH   6  26
HETATM   26  C   UNL     3      -7.381   6.784  69.730  1.00  0.00    -0.089 C  
HETATM   27  H   UNL     3      -7.156   6.733  67.825  1.00  0.00     0.000 HD 
HETATM   28  O   UNL     3      -7.330   6.083  68.495  1.00  0.00    -0.081 OA 
BRANCH  26  29
HETATM   29  C   UNL     3      -8.424   7.933  69.740  1.00  0.00    -0.132 C  
HETATM   30  O   UNL     3      -8.948   8.126  68.353  1.00  0.00    -0.137 OA 
HETATM   31  H   UNL     3      -9.587   8.829  68.360  1.00  0.00     0.000 HD 
BRANCH  29  32
HETATM   32  C   UNL     3      -9.708   7.617  70.538  1.00  0.00    -0.182 C  
HETATM   33  H   UNL     3     -11.497   6.937  70.074  1.00  0.00     0.000 HD 
HETATM   34  O   UNL     3     -10.707   7.132  69.583  1.00  0.00    -0.229 OA 
BRANCH  32  35
HETATM   35  C   UNL     3     -10.273   8.477  71.678  1.00  0.00    -0.266 C  
HETATM   36  H   UNL     3      -9.504   9.427  73.178  1.00  0.00     0.000 HD 
HETATM   37  O   UNL     3      -9.155   8.894  72.473  1.00  0.00    -0.349 OA 
BRANCH  35  38
HETATM   38  C   UNL     3     -11.165   9.647  71.277  1.00  0.00    -0.376 C  
HETATM   39  C   UNL     3     -12.646   9.353  71.634  1.00  0.00    -0.375 C  
HETATM   40  O   UNL     3     -11.076   9.900  69.860  1.00  0.00    -0.248 OA 
HETATM   41  O   UNL     3     -12.865   8.267  72.257  1.00  0.00    -0.325 OA 
HETATM   42  O   UNL     3     -13.469  10.114  71.054  1.00  0.00    -0.351 OA 
HETATM   43  H   UNL     3     -11.632  10.629  69.610  1.00  0.00     0.000 HD 
ENDBRANCH  35  38
ENDBRANCH  32  35
ENDBRANCH  29  32
ENDBRANCH  26  29
ENDBRANCH   6  26
TORSDOF 10
ENDMDL
MODEL      229
REMARK 921   NORMALIZED FREE ENERGY PREDICTED BY IDOCK:   -5.27 KCAL/MOL
REMARK 922        TOTAL FREE ENERGY PREDICTED BY IDOCK:  -10.85 KCAL/MOL
REMARK 923 INTER-LIGAND FREE ENERGY PREDICTED BY IDOCK:   -8.86 KCAL/MOL
REMARK 924 INTRA-LIGAND FREE ENERGY PREDICTED BY IDOCK:   -1.99 KCAL/MOL
REMARK 927      BINDING AFFINITY PREDICTED BY RF-SCORE:    0.00 PKD
ROOT
HETATM    1 CA   UNL     1      -9.554   9.532  65.401  1.00  0.00    -0.178 Ca 
HETATM    2  O   UNL     2     -10.389   4.969  68.779  1.00  0.00    -0.139 OA 
HETATM    3  O   UNL     3     -11.266  15.574  65.056  1.00  0.00    -0.379 OA 
HETATM    4  H   UNL     2     -11.019   4.469  68.272  1.00  0.00     0.000 HD 
HETATM    5  C   UNL     2     -10.118   6.193  68.097  1.00  0.00    -0.157 C  
HETATM    6  C   UNL     3     -11.615  14.286  64.556  1.00  0.00    -0.387 C  
HETATM    7  H   UNL     3     -11.151  16.184  64.338  1.00  0.00     0.000 HD 
ENDROOT
BRANCH   5   8
HETATM    8  C   UNL     2      -9.096   7.006  68.919  1.00  0.00    -0.134 C  
HETATM    9  O   UNL     2      -7.996   7.319  68.072  1.00  0.00    -0.116 OA 
HETATM   10  H   UNL     2      -7.366   7.819  68.578  1.00  0.00     0.000 HD 
BRANCH   8  11
HETATM   11  C   UNL     2      -9.704   8.327  69.417  1.00  0.00    -0.177 C  
HETATM   12  H   UNL     2     -10.955   9.754  68.756  1.00  0.00     0.000 HD 
HETATM   13  O   UNL     2     -10.579   8.937  68.448  1.00  0.00    -0.206 OA 
BRANCH  11  14
HETATM   14  C   UNL     2     -10.384   8.380  70.807  1.00  0.00    -0.195 C  
HETATM   15  O   UNL     2     -10.986   9.649  71.007  1.00  0.00    -0.315 OA 
HETATM   16  H   UNL     2     -11.403   9.681  71.860  1.00  0.00     0.000 HD 
BRANCH  14  17
HETATM   17  C   UNL     2      -9.602   7.833  72.016  1.00  0.00    -0.168 C  
HETATM   18  H   UNL     2      -8.269   8.558  73.246  1.00  0.00     0.000 HD 
HETATM   19  O   UNL     2      -8.751   8.896  72.500  1.00  0.00    -0.391 OA 
BRANCH  17  20
HETATM   20  C   UNL     2     -10.442   7.224  73.138  1.00  0.00    -0.339 C  
HETATM   21  O   UNL     2     -11.822   7.645  73.054  1.00  0.00    -0.606 OA 
HETATM   22  C   UNL     2     -10.361   5.678  72.998  1.00  0.00    -0.203 C  
HETATM   23  H   UNL     2     -12.344   7.267  73.751  1.00  0.00     0.000 HD 
HETATM   24  O   UNL     2      -9.219   5.247  72.687  1.00  0.00    -0.135 OA 
HETATM   25  O   UNL     2     -11.463   5.099  73.194  1.00  0.00    -0.323 OA 
ENDBRANCH  17  20
ENDBRANCH  14  17
ENDBRANCH  11  14
ENDBRANCH   8  11
ENDBRANCH   5   8
BRANCH   6  26
HETATM   26  C   UNL     3     -11.802  13.299  65.717  1.00  0.00    -0.387 C  
HETATM   27  H   UNL     3     -12.746  11.643  65.943  1.00  0.00     0.000 HD 
HETATM   28  O   UNL     3     -12.631  12.254  65.225  1.00  0.00    -0.583 OA 
BRANCH  26  29
HETATM   29  C   UNL     3     -10.449  12.794  66.283  1.00  0.00    -0.257 C  
HETATM   30  O   UNL     3      -9.333  13.430  65.517  1.00  0.00    -0.466 OA 
HETATM   31  H   UNL     3      -8.505  13.121  65.864  1.00  0.00     0.000 HD 
BRANCH  29  32
HETATM   32  C   UNL     3     -10.157  13.247  67.730  1.00  0.00    -0.229 C  
HETATM   33  H   UNL     3     -10.585  12.539  69.518  1.00  0.00     0.000 HD 
HETATM   34  O   UNL     3     -10.765  12.260  68.628  1.00  0.00    -0.225 OA 
BRANCH  32  35
HETATM   35  C   UNL     3     -10.224  14.698  68.232  1.00  0.00    -0.227 C  
HETATM   36  H   UNL     3      -9.626  16.404  67.546  1.00  0.00     0.000 HD 
HETATM   37  O   UNL     3      -9.584  15.507  67.236  1.00  0.00    -0.211 OA 
BRANCH  35  38
HETATM   38  C   UNL     3     -11.601  15.229  68.613  1.00  0.00    -0.354 C  
HETATM   39  C   UNL     3     -11.588  15.799  70.055  1.00  0.00    -0.357 C  
HETATM   40  O   UNL     3     -12.594  14.186  68.540  1.00  0.00    -0.445 OA 
HETATM   41  O   UNL     3     -10.459  15.814  70.639  1.00  0.00    -0.189 OA 
HETATM   42  O   UNL     3     -12.739  15.959  70.548  1.00  0.00    -0.387 OA 
HETATM   43  H   UNL     3     -13.452  14.517  68.777  1.00  0.00     0.000 HD 
ENDBRANCH  35  38
ENDBRANCH  32  35
ENDBRANCH  29  32
ENDBRANCH  26  29
ENDBRANCH   6  26
TORSDOF 10
ENDMDL
MODEL      230
REMARK 921   NORMALIZED FREE ENERGY PREDICTED BY IDOCK:   -5.27 KCAL/MOL
REMARK 922        TOTAL FREE ENERGY PREDICTED BY IDOCK:  -10.85 KCAL/MOL
REMARK 923 INTER-LIGAND FREE ENERGY PREDICTED BY IDOCK:   -8.89 KCAL/MOL
REMARK 924 INTRA-LIGAND FREE ENERGY PREDICTED BY IDOCK:   -1.95 KCAL/MOL
REMARK 927      BINDING AFFINITY PREDICTED BY RF-SCORE:    0.00 PKD
ROOT
HETATM    1 CA   UNL     1     -10.469  11.022  70.206  1.00  0.00    -0.371 Ca 
HETATM    2  O   UNL     2      -5.445   8.711  71.739  1.00  0.00    -0.036 OA 
HETATM    3  O   UNL     3     -13.218  13.480  65.111  1.00  0.00    -0.720 OA 
HETATM    4  H   UNL     2      -5.042   9.428  72.214  1.00  0.00     0.000 HD 
HETATM    5  C   UNL     2      -6.701   9.150  71.221  1.00  0.00    -0.072 C  
HETATM    6  C   UNL     3     -12.511  13.859  66.289  1.00  0.00    -0.409 C  
HETATM    7  H   UNL     3     -14.035  13.960  65.050  1.00  0.00     0.000 HD 
ENDROOT
BRANCH   5   8
HETATM    8  C   UNL     2      -7.356   7.985  70.448  1.00  0.00    -0.063 C  
HETATM    9  O   UNL     2      -7.495   6.885  71.341  1.00  0.00    -0.080 OA 
HETATM   10  H   UNL     2      -7.898   6.168  70.865  1.00  0.00     0.000 HD 
BRANCH   8  11
HETATM   11  C   UNL     2      -8.757   8.369  69.944  1.00  0.00    -0.136 C  
HETATM   12  H   UNL     2      -9.749   8.488  68.201  1.00  0.00     0.000 HD 
HETATM   13  O   UNL     2      -8.884   8.251  68.513  1.00  0.00    -0.136 OA 
BRANCH  11  14
HETATM   14  C   UNL     2     -10.007   7.743  70.609  1.00  0.00    -0.186 C  
HETATM   15  O   UNL     2     -10.859   7.189  69.619  1.00  0.00    -0.237 OA 
HETATM   16  H   UNL     2     -11.626   6.805  70.028  1.00  0.00     0.000 HD 
BRANCH  14  17
HETATM   17  C   UNL     2     -10.724   8.553  71.706  1.00  0.00    -0.303 C  
HETATM   18  H   UNL     2     -12.142   9.896  71.732  1.00  0.00     0.000 HD 
HETATM   19  O   UNL     2     -11.700   9.396  71.055  1.00  0.00    -0.284 OA 
BRANCH  17  20
HETATM   20  C   UNL     2     -11.345   7.740  72.841  1.00  0.00    -0.349 C  
HETATM   21  O   UNL     2     -12.207   6.697  72.335  1.00  0.00    -0.498 OA 
HETATM   22  C   UNL     2     -10.180   7.104  73.652  1.00  0.00    -0.359 C  
HETATM   23  H   UNL     2     -12.593   6.192  73.041  1.00  0.00     0.000 HD 
HETATM   24  O   UNL     2      -9.190   7.865  73.816  1.00  0.00    -0.281 OA 
HETATM   25  O   UNL     2     -10.403   5.913  73.998  1.00  0.00    -0.247 OA 
ENDBRANCH  17  20
ENDBRANCH  14  17
ENDBRANCH  11  14
ENDBRANCH   8  11
ENDBRANCH   5   8
BRANCH   6  26
HETATM   26  C   UNL     3     -11.190  13.083  66.388  1.00  0.00    -0.300 C  
HETATM   27  H   UNL     3     -10.635  11.302  65.940  1.00  0.00     0.000 HD 
HETATM   28  O   UNL     3     -11.452  11.782  65.879  1.00  0.00    -0.314 OA 
BRANCH  26  29
HETATM   29  C   UNL     3     -10.028  13.805  65.656  1.00  0.00    -0.255 C  
HETATM   30  O   UNL     3     -10.251  13.714  64.180  1.00  0.00    -0.718 OA 
HETATM   31  H   UNL     3      -9.539  14.156  63.733  1.00  0.00     0.000 HD 
BRANCH  29  32
HETATM   32  C   UNL     3      -9.980  15.330  65.891  1.00  0.00    -0.340 C  
HETATM   33  H   UNL     3     -10.141  16.917  64.735  1.00  0.00     0.000 HD 
HETATM   34  O   UNL     3     -10.169  15.978  64.590  1.00  0.00    -0.301 OA 
BRANCH  32  35
HETATM   35  C   UNL     3      -8.999  16.049  66.830  1.00  0.00    -0.246 C  
HETATM   36  H   UNL     3      -7.678  17.445  66.609  1.00  0.00     0.000 HD 
HETATM   37  O   UNL     3      -8.285  17.000  66.028  1.00  0.00    -0.463 OA 
BRANCH  35  38
HETATM   38  C   UNL     3      -9.589  16.679  68.086  1.00  0.00    -0.228 C  
HETATM   39  C   UNL     3      -9.566  15.672  69.266  1.00  0.00    -0.268 C  
HETATM   40  O   UNL     3     -10.952  17.094  67.863  1.00  0.00    -0.343 OA 
HETATM   41  O   UNL     3      -9.003  14.555  69.035  1.00  0.00    -0.147 OA 
HETATM   42  O   UNL     3     -10.313  16.000  70.228  1.00  0.00    -0.200 OA 
HETATM   43  H   UNL     3     -11.320  17.486  68.646  1.00  0.00     0.000 HD 
ENDBRANCH  35  38
ENDBRANCH  32  35
ENDBRANCH  29  32
ENDBRANCH  26  29
ENDBRANCH   6  26
TORSDOF 10
ENDMDL
MODEL      231
REMARK 921   NORMALIZED FREE ENERGY PREDICTED BY IDOCK:   -5.27 KCAL/MOL
REMARK 922        TOTAL FREE ENERGY PREDICTED BY IDOCK:  -10.84 KCAL/MOL
REMARK 923 INTER-LIGAND FREE ENERGY PREDICTED BY IDOCK:   -8.28 KCAL/MOL
REMARK 924 INTRA-LIGAND FREE ENERGY PREDICTED BY IDOCK:   -2.56 KCAL/MOL
REMARK 927      BINDING AFFINITY PREDICTED BY RF-SCORE:    0.00 PKD
ROOT
HETATM    1 CA   UNL     1     -11.499  10.970  68.690  1.00  0.00    -0.182 Ca 
HETATM    2  O   UNL     2     -12.676  13.099  63.493  1.00  0.00    -0.711 OA 
HETATM    3  O   UNL     3      -9.042   5.783  71.261  1.00  0.00    -0.139 OA 
HETATM    4  H   UNL     2     -13.617  12.969  63.442  1.00  0.00     0.000 HD 
HETATM    5  C   UNL     2     -12.202  12.552  64.723  1.00  0.00    -0.465 C  
HETATM    6  C   UNL     3     -10.294   6.375  70.926  1.00  0.00    -0.204 C  
HETATM    7  H   UNL     3      -9.040   5.515  72.173  1.00  0.00     0.000 HD 
ENDROOT
BRANCH   5   8
HETATM    8  C   UNL     2     -10.676  12.762  64.807  1.00  0.00    -0.316 C  
HETATM    9  O   UNL     2     -10.144  12.672  63.489  1.00  0.00    -0.563 OA 
HETATM   10  H   UNL     2      -9.204  12.802  63.541  1.00  0.00     0.000 HD 
BRANCH   8  11
HETATM   11  C   UNL     2     -10.333  14.152  65.366  1.00  0.00    -0.365 C  
HETATM   12  H   UNL     2     -11.278  15.865  65.825  1.00  0.00     0.000 HD 
HETATM   13  O   UNL     2     -11.489  15.006  65.480  1.00  0.00    -0.336 OA 
BRANCH  11  14
HETATM   14  C   UNL     2      -9.495  14.270  66.662  1.00  0.00    -0.286 C  
HETATM   15  O   UNL     2      -8.518  13.243  66.705  1.00  0.00    -0.421 OA 
HETATM   16  H   UNL     2      -8.004  13.315  67.500  1.00  0.00     0.000 HD 
BRANCH  14  17
HETATM   17  C   UNL     2     -10.243  14.512  67.987  1.00  0.00    -0.233 C  
HETATM   18  H   UNL     2     -10.996  13.370  69.381  1.00  0.00     0.000 HD 
HETATM   19  O   UNL     2     -10.534  13.220  68.564  1.00  0.00    -0.247 OA 
BRANCH  17  20
HETATM   20  C   UNL     2      -9.551  15.437  68.988  1.00  0.00    -0.236 C  
HETATM   21  O   UNL     2      -8.127  15.199  69.030  1.00  0.00    -0.163 OA 
HETATM   22  C   UNL     2      -9.821  16.900  68.536  1.00  0.00    -0.267 C  
HETATM   23  H   UNL     2      -7.696  15.774  69.652  1.00  0.00     0.000 HD 
HETATM   24  O   UNL     2     -10.989  17.103  68.111  1.00  0.00    -0.361 OA 
HETATM   25  O   UNL     2      -8.814  17.651  68.644  1.00  0.00    -0.287 OA 
ENDBRANCH  17  20
ENDBRANCH  14  17
ENDBRANCH  11  14
ENDBRANCH   8  11
ENDBRANCH   5   8
BRANCH   6  26
HETATM   26  C   UNL     3     -10.298   6.808  69.453  1.00  0.00    -0.199 C  
HETATM   27  H   UNL     3     -11.369   6.374  67.921  1.00  0.00     0.000 HD 
HETATM   28  O   UNL     3     -11.367   6.106  68.832  1.00  0.00    -0.367 OA 
BRANCH  26  29
HETATM   29  C   UNL     3     -10.399   8.348  69.293  1.00  0.00    -0.214 C  
HETATM   30  O   UNL     3     -11.630   8.829  69.993  1.00  0.00    -0.456 OA 
HETATM   31  H   UNL     3     -11.692   9.772  69.894  1.00  0.00     0.000 HD 
BRANCH  29  32
HETATM   32  C   UNL     3      -9.281   9.136  70.009  1.00  0.00    -0.192 C  
HETATM   33  H   UNL     3      -9.151  10.124  71.708  1.00  0.00     0.000 HD 
HETATM   34  O   UNL     3      -9.839   9.640  71.267  1.00  0.00    -0.153 OA 
BRANCH  32  35
HETATM   35  C   UNL     3      -8.290  10.086  69.320  1.00  0.00    -0.154 C  
HETATM   36  H   UNL     3      -6.761  11.116  69.905  1.00  0.00     0.000 HD 
HETATM   37  O   UNL     3      -7.375  10.528  70.331  1.00  0.00    -0.205 OA 
BRANCH  35  38
HETATM   38  C   UNL     3      -7.573   9.551  68.085  1.00  0.00    -0.079 C  
HETATM   39  C   UNL     3      -8.409   9.824  66.807  1.00  0.00    -0.124 C  
HETATM   40  O   UNL     3      -7.350   8.131  68.194  1.00  0.00    -0.091 OA 
HETATM   41  O   UNL     3      -9.474  10.498  66.970  1.00  0.00    -0.160 OA 
HETATM   42  O   UNL     3      -8.046   9.143  65.809  1.00  0.00    -0.107 OA 
HETATM   43  H   UNL     3      -6.904   7.797  67.424  1.00  0.00     0.000 HD 
ENDBRANCH  35  38
ENDBRANCH  32  35
ENDBRANCH  29  32
ENDBRANCH  26  29
ENDBRANCH   6  26
TORSDOF 10
ENDMDL
MODEL      232
REMARK 921   NORMALIZED FREE ENERGY PREDICTED BY IDOCK:   -5.26 KCAL/MOL
REMARK 922        TOTAL FREE ENERGY PREDICTED BY IDOCK:  -10.83 KCAL/MOL
REMARK 923 INTER-LIGAND FREE ENERGY PREDICTED BY IDOCK:   -8.19 KCAL/MOL
REMARK 924 INTRA-LIGAND FREE ENERGY PREDICTED BY IDOCK:   -2.64 KCAL/MOL
REMARK 927      BINDING AFFINITY PREDICTED BY RF-SCORE:    0.00 PKD
ROOT
HETATM    1 CA   UNL     1      -7.499   9.034  69.761  1.00  0.00    -0.050 Ca 
HETATM    2  O   UNL     2      -6.382  14.202  67.534  1.00  0.00    -0.289 OA 
HETATM    3  O   UNL     3     -12.111   6.082  72.855  1.00  0.00    -0.503 OA 
HETATM    4  H   UNL     2      -5.796  14.569  68.185  1.00  0.00     0.000 HD 
HETATM    5  C   UNL     2      -6.817  12.917  67.975  1.00  0.00    -0.108 C  
HETATM    6  C   UNL     3     -10.888   6.780  73.077  1.00  0.00    -0.283 C  
HETATM    7  H   UNL     3     -12.090   5.237  73.289  1.00  0.00     0.000 HD 
ENDROOT
BRANCH   5   8
HETATM    8  C   UNL     2      -7.769  12.321  66.917  1.00  0.00    -0.015 C  
HETATM    9  O   UNL     2      -7.850  10.917  67.137  1.00  0.00    -0.118 OA 
HETATM   10  H   UNL     2      -8.437  10.549  66.486  1.00  0.00     0.000 HD 
BRANCH   8  11
HETATM   11  C   UNL     2      -9.184  12.906  67.046  1.00  0.00    -0.226 C  
HETATM   12  H   UNL     2     -11.038  12.530  66.368  1.00  0.00     0.000 HD 
HETATM   13  O   UNL     2     -10.163  12.168  66.289  1.00  0.00    -0.216 OA 
BRANCH  11  14
HETATM   14  C   UNL     2      -9.763  13.206  68.451  1.00  0.00    -0.196 C  
HETATM   15  O   UNL     2     -10.411  12.055  68.966  1.00  0.00    -0.393 OA 
HETATM   16  H   UNL     2     -10.766  12.239  69.828  1.00  0.00     0.000 HD 
BRANCH  14  17
HETATM   17  C   UNL     2     -10.528  14.528  68.650  1.00  0.00    -0.247 C  
HETATM   18  H   UNL     2     -12.281  15.021  69.357  1.00  0.00     0.000 HD 
HETATM   19  O   UNL     2     -11.809  14.205  69.234  1.00  0.00    -0.295 OA 
BRANCH  17  20
HETATM   20  C   UNL     2      -9.799  15.610  69.447  1.00  0.00    -0.284 C  
HETATM   21  O   UNL     2      -8.455  15.202  69.787  1.00  0.00    -0.415 OA 
HETATM   22  C   UNL     2      -9.746  16.887  68.562  1.00  0.00    -0.264 C  
HETATM   23  H   UNL     2      -8.002  15.874  70.282  1.00  0.00     0.000 HD 
HETATM   24  O   UNL     2     -10.803  17.109  67.913  1.00  0.00    -0.363 OA 
HETATM   25  O   UNL     2      -8.640  17.488  68.616  1.00  0.00    -0.279 OA 
ENDBRANCH  17  20
ENDBRANCH  14  17
ENDBRANCH  11  14
ENDBRANCH   8  11
ENDBRANCH   5   8
BRANCH   6  26
HETATM   26  C   UNL     3     -10.923   8.145  72.376  1.00  0.00    -0.345 C  
HETATM   27  H   UNL     3      -9.628   9.520  72.034  1.00  0.00     0.000 HD 
HETATM   28  O   UNL     3      -9.607   8.676  72.468  1.00  0.00    -0.278 OA 
BRANCH  26  29
HETATM   29  C   UNL     3     -11.442   8.044  70.917  1.00  0.00    -0.276 C  
HETATM   30  O   UNL     3     -12.262   9.255  70.608  1.00  0.00    -0.465 OA 
HETATM   31  H   UNL     3     -12.580   9.193  69.715  1.00  0.00     0.000 HD 
BRANCH  29  32
HETATM   32  C   UNL     3     -10.335   8.110  69.843  1.00  0.00    -0.214 C  
HETATM   33  H   UNL     3      -9.226   9.549  69.082  1.00  0.00     0.000 HD 
HETATM   34  O   UNL     3      -9.908   9.508  69.742  1.00  0.00    -0.188 OA 
BRANCH  32  35
HETATM   35  C   UNL     3     -10.349   7.346  68.510  1.00  0.00    -0.198 C  
HETATM   36  H   UNL     3     -11.274   5.781  67.849  1.00  0.00     0.000 HD 
HETATM   37  O   UNL     3     -11.265   6.254  68.673  1.00  0.00    -0.356 OA 
BRANCH  35  38
HETATM   38  C   UNL     3     -10.639   8.162  67.255  1.00  0.00    -0.273 C  
HETATM   39  C   UNL     3      -9.344   8.366  66.426  1.00  0.00    -0.214 C  
HETATM   40  O   UNL     3     -11.176   9.455  67.594  1.00  0.00    -0.464 OA 
HETATM   41  O   UNL     3      -8.305   7.774  66.858  1.00  0.00    -0.120 OA 
HETATM   42  O   UNL     3      -9.434   9.282  65.562  1.00  0.00    -0.252 OA 
HETATM   43  H   UNL     3     -11.357   9.964  66.812  1.00  0.00     0.000 HD 
ENDBRANCH  35  38
ENDBRANCH  32  35
ENDBRANCH  29  32
ENDBRANCH  26  29
ENDBRANCH   6  26
TORSDOF 10
ENDMDL
MODEL      233
REMARK 921   NORMALIZED FREE ENERGY PREDICTED BY IDOCK:   -5.24 KCAL/MOL
REMARK 922        TOTAL FREE ENERGY PREDICTED BY IDOCK:  -10.80 KCAL/MOL
REMARK 923 INTER-LIGAND FREE ENERGY PREDICTED BY IDOCK:   -7.88 KCAL/MOL
REMARK 924 INTRA-LIGAND FREE ENERGY PREDICTED BY IDOCK:   -2.93 KCAL/MOL
REMARK 927      BINDING AFFINITY PREDICTED BY RF-SCORE:    0.00 PKD
ROOT
HETATM    1 CA   UNL     1     -11.482   9.922  67.781  1.00  0.00    -0.295 Ca 
HETATM    2  O   UNL     2     -11.983   7.119  72.763  1.00  0.00    -0.520 OA 
HETATM    3  O   UNL     3      -9.522  15.500  65.638  1.00  0.00    -0.320 OA 
HETATM    4  H   UNL     2     -12.915   7.194  72.932  1.00  0.00     0.000 HD 
HETATM    5  C   UNL     2     -11.672   7.835  71.569  1.00  0.00    -0.280 C  
HETATM    6  C   UNL     3     -10.705  14.810  66.029  1.00  0.00    -0.312 C  
HETATM    7  H   UNL     3      -9.633  15.877  64.773  1.00  0.00     0.000 HD 
ENDROOT
BRANCH   5   8
HETATM    8  C   UNL     2     -10.158   7.713  71.293  1.00  0.00    -0.186 C  
HETATM    9  O   UNL     2      -9.630   6.713  72.159  1.00  0.00    -0.149 OA 
HETATM   10  H   UNL     2      -8.698   6.638  71.990  1.00  0.00     0.000 HD 
BRANCH   8  11
HETATM   11  C   UNL     2      -9.887   7.279  69.844  1.00  0.00    -0.178 C  
HETATM   12  H   UNL     2     -10.660   7.576  68.013  1.00  0.00     0.000 HD 
HETATM   13  O   UNL     2     -10.828   7.844  68.909  1.00  0.00    -0.122 OA 
BRANCH  11  14
HETATM   14  C   UNL     2      -8.459   7.414  69.259  1.00  0.00    -0.136 C  
HETATM   15  O   UNL     2      -7.561   6.580  69.972  1.00  0.00    -0.095 OA 
HETATM   16  H   UNL     2      -6.685   6.663  69.613  1.00  0.00     0.000 HD 
BRANCH  14  17
HETATM   17  C   UNL     2      -7.933   8.830  68.958  1.00  0.00    -0.111 C  
HETATM   18  H   UNL     2      -6.845  10.137  69.919  1.00  0.00     0.000 HD 
HETATM   19  O   UNL     2      -7.170   9.263  70.105  1.00  0.00    -0.061 OA 
BRANCH  17  20
HETATM   20  C   UNL     2      -7.143   8.989  67.659  1.00  0.00    -0.076 C  
HETATM   21  O   UNL     2      -6.243   7.878  67.448  1.00  0.00    -0.051 OA 
HETATM   22  C   UNL     2      -8.169   9.055  66.493  1.00  0.00    -0.114 C  
HETATM   23  H   UNL     2      -5.752   7.977  66.641  1.00  0.00     0.000 HD 
HETATM   24  O   UNL     2      -9.203   9.727  66.752  1.00  0.00    -0.144 OA 
HETATM   25  O   UNL     2      -7.813   8.402  65.475  1.00  0.00    -0.098 OA 
ENDBRANCH  17  20
ENDBRANCH  14  17
ENDBRANCH  11  14
ENDBRANCH   8  11
ENDBRANCH   5   8
BRANCH   6  26
HETATM   26  C   UNL     3     -10.526  14.201  67.427  1.00  0.00    -0.271 C  
HETATM   27  H   UNL     3      -9.938  14.871  69.126  1.00  0.00     0.000 HD 
HETATM   28  O   UNL     3     -10.049  15.248  68.261  1.00  0.00    -0.221 OA 
BRANCH  26  29
HETATM   29  C   UNL     3     -11.828  13.541  67.953  1.00  0.00    -0.362 C  
HETATM   30  O   UNL     3     -12.073  12.276  67.194  1.00  0.00    -0.560 OA 
HETATM   31  H   UNL     3     -12.871  11.873  67.517  1.00  0.00     0.000 HD 
BRANCH  29  32
HETATM   32  C   UNL     3     -11.742  13.042  69.411  1.00  0.00    -0.326 C  
HETATM   33  H   UNL     3     -11.618  11.271  70.265  1.00  0.00     0.000 HD 
HETATM   34  O   UNL     3     -11.672  11.579  69.368  1.00  0.00    -0.286 OA 
BRANCH  32  35
HETATM   35  C   UNL     3     -12.546  13.612  70.589  1.00  0.00    -0.296 C  
HETATM   36  H   UNL     3     -13.625  12.844  71.999  1.00  0.00     0.000 HD 
HETATM   37  O   UNL     3     -13.128  12.492  71.270  1.00  0.00    -0.272 OA 
BRANCH  35  38
HETATM   38  C   UNL     3     -11.803  14.544  71.540  1.00  0.00    -0.212 C  
HETATM   39  C   UNL     3     -12.654  15.805  71.844  1.00  0.00    -0.457 C  
HETATM   40  O   UNL     3     -10.546  14.963  70.972  1.00  0.00    -0.512 OA 
HETATM   41  O   UNL     3     -13.822  15.824  71.344  1.00  0.00    -0.522 OA 
HETATM   42  O   UNL     3     -11.992  16.753  72.352  1.00  0.00    -0.334 OA 
HETATM   43  H   UNL     3     -10.083  15.545  71.564  1.00  0.00     0.000 HD 
ENDBRANCH  35  38
ENDBRANCH  32  35
ENDBRANCH  29  32
ENDBRANCH  26  29
ENDBRANCH   6  26
TORSDOF 10
ENDMDL
MODEL      234
REMARK 921   NORMALIZED FREE ENERGY PREDICTED BY IDOCK:   -5.24 KCAL/MOL
REMARK 922        TOTAL FREE ENERGY PREDICTED BY IDOCK:  -10.80 KCAL/MOL
REMARK 923 INTER-LIGAND FREE ENERGY PREDICTED BY IDOCK:   -7.64 KCAL/MOL
REMARK 924 INTRA-LIGAND FREE ENERGY PREDICTED BY IDOCK:   -3.16 KCAL/MOL
REMARK 927      BINDING AFFINITY PREDICTED BY RF-SCORE:    0.00 PKD
ROOT
HETATM    1 CA   UNL     1      -7.417   8.485  68.787  1.00  0.00    -0.074 Ca 
HETATM    2  O   UNL     2      -9.419  12.966  65.814  1.00  0.00    -0.450 OA 
HETATM    3  O   UNL     3      -8.481   5.534  74.238  1.00  0.00    -0.110 OA 
HETATM    4  H   UNL     2      -8.745  13.618  65.974  1.00  0.00     0.000 HD 
HETATM    5  C   UNL     2      -9.102  11.787  66.552  1.00  0.00    -0.203 C  
HETATM    6  C   UNL     3      -7.637   6.521  73.651  1.00  0.00    -0.087 C  
HETATM    7  H   UNL     3      -7.957   4.867  74.665  1.00  0.00     0.000 HD 
ENDROOT
BRANCH   5   8
HETATM    8  C   UNL     2     -10.195  10.728  66.293  1.00  0.00    -0.245 C  
HETATM    9  O   UNL     2     -10.146  10.369  64.917  1.00  0.00    -0.322 OA 
HETATM   10  H   UNL     2     -10.819   9.717  64.758  1.00  0.00     0.000 HD 
BRANCH   8  11
HETATM   11  C   UNL     2      -9.951   9.459  67.126  1.00  0.00    -0.204 C  
HETATM   12  H   UNL     2     -10.521   8.681  68.889  1.00  0.00     0.000 HD 
HETATM   13  O   UNL     2     -10.672   9.466  68.375  1.00  0.00    -0.219 OA 
BRANCH  11  14
HETATM   14  C   UNL     2     -10.112   8.068  66.465  1.00  0.00    -0.200 C  
HETATM   15  O   UNL     2     -11.154   7.345  67.099  1.00  0.00    -0.557 OA 
HETATM   16  H   UNL     2     -11.253   6.492  66.693  1.00  0.00     0.000 HD 
BRANCH  14  17
HETATM   17  C   UNL     2      -8.836   7.254  66.176  1.00  0.00    -0.158 C  
HETATM   18  H   UNL     2      -6.952   7.685  65.896  1.00  0.00     0.000 HD 
HETATM   19  O   UNL     2      -7.739   8.187  66.074  1.00  0.00    -0.086 OA 
BRANCH  17  20
HETATM   20  C   UNL     2      -8.529   6.122  67.156  1.00  0.00    -0.104 C  
HETATM   21  O   UNL     2      -9.321   6.234  68.359  1.00  0.00    -0.115 OA 
HETATM   22  C   UNL     2      -8.857   4.781  66.440  1.00  0.00    -0.113 C  
HETATM   23  H   UNL     2      -9.129   5.530  68.968  1.00  0.00     0.000 HD 
HETATM   24  O   UNL     2      -8.520   4.747  65.227  1.00  0.00    -0.122 OA 
HETATM   25  O   UNL     2      -9.435   3.945  67.185  1.00  0.00    -0.179 OA 
ENDBRANCH  17  20
ENDBRANCH  14  17
ENDBRANCH  11  14
ENDBRANCH   8  11
ENDBRANCH   5   8
BRANCH   6  26
HETATM   26  C   UNL     3      -8.484   7.600  72.962  1.00  0.00    -0.144 C  
HETATM   27  H   UNL     3      -8.149   9.383  72.335  1.00  0.00     0.000 HD 
HETATM   28  O   UNL     3      -7.625   8.716  72.762  1.00  0.00    -0.338 OA 
BRANCH  26  29
HETATM   29  C   UNL     3      -9.137   7.087  71.652  1.00  0.00    -0.138 C  
HETATM   30  O   UNL     3      -8.532   5.768  71.290  1.00  0.00    -0.125 OA 
HETATM   31  H   UNL     3      -8.932   5.454  70.488  1.00  0.00     0.000 HD 
BRANCH  29  32
HETATM   32  C   UNL     3     -10.636   6.738  71.784  1.00  0.00    -0.213 C  
HETATM   33  H   UNL     3     -11.644   5.129  72.308  1.00  0.00     0.000 HD 
HETATM   34  O   UNL     3     -10.722   5.343  72.226  1.00  0.00    -0.218 OA 
BRANCH  32  35
HETATM   35  C   UNL     3     -11.734   7.169  70.800  1.00  0.00    -0.323 C  
HETATM   36  H   UNL     3     -12.363   6.517  69.091  1.00  0.00     0.000 HD 
HETATM   37  O   UNL     3     -11.684   6.250  69.700  1.00  0.00    -0.382 OA 
BRANCH  35  38
HETATM   38  C   UNL     3     -13.141   7.319  71.366  1.00  0.00    -0.361 C  
HETATM   39  C   UNL     3     -13.354   8.747  71.932  1.00  0.00    -0.389 C  
HETATM   40  O   UNL     3     -13.376   6.367  72.422  1.00  0.00    -0.489 OA 
HETATM   41  O   UNL     3     -12.393   9.563  71.765  1.00  0.00    -0.359 OA 
HETATM   42  O   UNL     3     -14.358   8.849  72.690  1.00  0.00    -0.613 OA 
HETATM   43  H   UNL     3     -14.253   6.460  72.775  1.00  0.00     0.000 HD 
ENDBRANCH  35  38
ENDBRANCH  32  35
ENDBRANCH  29  32
ENDBRANCH  26  29
ENDBRANCH   6  26
TORSDOF 10
ENDMDL
MODEL      235
REMARK 921   NORMALIZED FREE ENERGY PREDICTED BY IDOCK:   -5.24 KCAL/MOL
REMARK 922        TOTAL FREE ENERGY PREDICTED BY IDOCK:  -10.80 KCAL/MOL
REMARK 923 INTER-LIGAND FREE ENERGY PREDICTED BY IDOCK:   -8.71 KCAL/MOL
REMARK 924 INTRA-LIGAND FREE ENERGY PREDICTED BY IDOCK:   -2.08 KCAL/MOL
REMARK 927      BINDING AFFINITY PREDICTED BY RF-SCORE:    0.00 PKD
ROOT
HETATM    1 CA   UNL     1      -8.422  12.504  69.522  1.00  0.00    -0.324 Ca 
HETATM    2  O   UNL     2     -11.863  16.500  71.785  1.00  0.00    -0.664 OA 
HETATM    3  O   UNL     3      -7.778   6.248  69.482  1.00  0.00    -0.095 OA 
HETATM    4  H   UNL     2     -11.328  16.833  72.496  1.00  0.00     0.000 HD 
HETATM    5  C   UNL     2     -11.167  15.430  71.147  1.00  0.00    -0.361 C  
HETATM    6  C   UNL     3      -7.292   7.415  70.141  1.00  0.00    -0.078 C  
HETATM    7  H   UNL     3      -7.052   5.727  69.160  1.00  0.00     0.000 HD 
ENDROOT
BRANCH   5   8
HETATM    8  C   UNL     2     -12.036  14.888  69.992  1.00  0.00    -0.329 C  
HETATM    9  O   UNL     2     -13.026  15.865  69.688  1.00  0.00    -0.484 OA 
HETATM   10  H   UNL     2     -13.561  15.531  68.977  1.00  0.00     0.000 HD 
BRANCH   8  11
HETATM   11  C   UNL     2     -11.197  14.650  68.726  1.00  0.00    -0.267 C  
HETATM   12  H   UNL     2     -10.176  13.155  67.854  1.00  0.00     0.000 HD 
HETATM   13  O   UNL     2     -10.695  13.302  68.637  1.00  0.00    -0.254 OA 
BRANCH  11  14
HETATM   14  C   UNL     2     -11.762  15.065  67.345  1.00  0.00    -0.239 C  
HETATM   15  O   UNL     2     -12.811  14.188  66.966  1.00  0.00    -0.350 OA 
HETATM   16  H   UNL     2     -13.158  14.442  66.119  1.00  0.00     0.000 HD 
BRANCH  14  17
HETATM   17  C   UNL     2     -10.760  15.403  66.226  1.00  0.00    -0.312 C  
HETATM   18  H   UNL     2      -8.836  15.732  66.143  1.00  0.00     0.000 HD 
HETATM   19  O   UNL     2      -9.454  15.523  66.834  1.00  0.00    -0.214 OA 
BRANCH  17  20
HETATM   20  C   UNL     2     -10.743  14.450  65.031  1.00  0.00    -0.423 C  
HETATM   21  O   UNL     2     -10.800  13.070  65.455  1.00  0.00    -0.277 OA 
HETATM   22  C   UNL     2     -11.984  14.777  64.154  1.00  0.00    -0.259 C  
HETATM   23  H   UNL     2     -10.790  12.477  64.712  1.00  0.00     0.000 HD 
HETATM   24  O   UNL     2     -12.230  16.008  64.045  1.00  0.00    -0.792 OA 
HETATM   25  O   UNL     2     -12.567  13.752  63.709  1.00  0.00    -0.712 OA 
ENDBRANCH  17  20
ENDBRANCH  14  17
ENDBRANCH  11  14
ENDBRANCH   8  11
ENDBRANCH   5   8
BRANCH   6  26
HETATM   26  C   UNL     3      -8.465   8.256  70.663  1.00  0.00    -0.130 C  
HETATM   27  H   UNL     3     -10.159   8.802  69.944  1.00  0.00     0.000 HD 
HETATM   28  O   UNL     3      -9.433   8.281  69.622  1.00  0.00    -0.162 OA 
BRANCH  26  29
HETATM   29  C   UNL     3      -9.024   7.719  72.007  1.00  0.00    -0.134 C  
HETATM   30  O   UNL     3      -9.086   8.842  72.991  1.00  0.00    -0.184 OA 
HETATM   31  H   UNL     3      -9.427   8.513  73.814  1.00  0.00     0.000 HD 
BRANCH  29  32
HETATM   32  C   UNL     3     -10.494   7.253  71.942  1.00  0.00    -0.200 C  
HETATM   33  H   UNL     3     -12.192   7.913  72.693  1.00  0.00     0.000 HD 
HETATM   34  O   UNL     3     -11.287   8.199  72.733  1.00  0.00    -0.397 OA 
BRANCH  32  35
HETATM   35  C   UNL     3     -10.963   5.793  72.028  1.00  0.00    -0.260 C  
HETATM   36  H   UNL     3     -12.575   4.914  72.638  1.00  0.00     0.000 HD 
HETATM   37  O   UNL     3     -12.284   5.817  72.584  1.00  0.00    -0.163 OA 
BRANCH  35  38
HETATM   38  C   UNL     3     -10.891   4.973  70.744  1.00  0.00     0.158 C  
HETATM   39  C   UNL     3      -9.571   4.160  70.688  1.00  0.00    -0.194 C  
HETATM   40  O   UNL     3     -10.956   5.826  69.584  1.00  0.00    -0.354 OA 
HETATM   41  O   UNL     3      -8.827   4.234  71.715  1.00  0.00    -0.111 OA 
HETATM   42  O   UNL     3      -9.296   3.719  69.538  1.00  0.00    -0.148 OA 
HETATM   43  H   UNL     3     -10.911   5.315  68.784  1.00  0.00     0.000 HD 
ENDBRANCH  35  38
ENDBRANCH  32  35
ENDBRANCH  29  32
ENDBRANCH  26  29
ENDBRANCH   6  26
TORSDOF 10
ENDMDL
MODEL      236
REMARK 921   NORMALIZED FREE ENERGY PREDICTED BY IDOCK:   -5.23 KCAL/MOL
REMARK 922        TOTAL FREE ENERGY PREDICTED BY IDOCK:  -10.79 KCAL/MOL
REMARK 923 INTER-LIGAND FREE ENERGY PREDICTED BY IDOCK:   -8.83 KCAL/MOL
REMARK 924 INTRA-LIGAND FREE ENERGY PREDICTED BY IDOCK:   -1.96 KCAL/MOL
REMARK 927      BINDING AFFINITY PREDICTED BY RF-SCORE:    0.00 PKD
ROOT
HETATM    1 CA   UNL     1      -7.920   8.293  69.613  1.00  0.00    -0.089 Ca 
HETATM    2  O   UNL     2      -7.476  13.424  67.084  1.00  0.00    -0.355 OA 
HETATM    3  O   UNL     3     -12.007   5.063  73.137  1.00  0.00    -0.485 OA 
HETATM    4  H   UNL     2      -6.892  13.880  67.678  1.00  0.00     0.000 HD 
HETATM    5  C   UNL     2      -7.749  12.127  67.612  1.00  0.00    -0.148 C  
HETATM    6  C   UNL     3     -10.852   5.889  73.246  1.00  0.00    -0.261 C  
HETATM    7  H   UNL     3     -11.874   4.248  73.607  1.00  0.00     0.000 HD 
ENDROOT
BRANCH   5   8
HETATM    8  C   UNL     2      -8.699  11.385  66.647  1.00  0.00    -0.178 C  
HETATM    9  O   UNL     2      -9.186  10.225  67.312  1.00  0.00    -0.141 OA 
HETATM   10  H   UNL     2      -9.771   9.768  66.719  1.00  0.00     0.000 HD 
BRANCH   8  11
HETATM   11  C   UNL     2      -9.905  12.259  66.268  1.00  0.00    -0.241 C  
HETATM   12  H   UNL     2     -11.373  12.289  64.896  1.00  0.00     0.000 HD 
HETATM   13  O   UNL     2     -10.627  11.748  65.131  1.00  0.00    -0.264 OA 
BRANCH  11  14
HETATM   14  C   UNL     2     -10.922  12.674  67.360  1.00  0.00    -0.254 C  
HETATM   15  O   UNL     2     -12.030  11.789  67.354  1.00  0.00    -0.617 OA 
HETATM   16  H   UNL     2     -12.654  12.043  68.024  1.00  0.00     0.000 HD 
BRANCH  14  17
HETATM   17  C   UNL     2     -11.282  14.167  67.483  1.00  0.00    -0.306 C  
HETATM   18  H   UNL     2     -12.483  15.384  66.539  1.00  0.00     0.000 HD 
HETATM   19  O   UNL     2     -12.261  14.463  66.463  1.00  0.00    -0.424 OA 
BRANCH  17  20
HETATM   20  C   UNL     2     -11.742  14.633  68.864  1.00  0.00    -0.309 C  
HETATM   21  O   UNL     2     -11.323  13.716  69.899  1.00  0.00    -0.449 OA 
HETATM   22  C   UNL     2     -11.111  16.030  69.120  1.00  0.00    -0.317 C  
HETATM   23  H   UNL     2     -11.610  14.006  70.757  1.00  0.00     0.000 HD 
HETATM   24  O   UNL     2     -11.098  16.785  68.111  1.00  0.00    -0.363 OA 
HETATM   25  O   UNL     2     -10.686  16.179  70.298  1.00  0.00    -0.301 OA 
ENDBRANCH  17  20
ENDBRANCH  14  17
ENDBRANCH  11  14
ENDBRANCH   8  11
ENDBRANCH   5   8
BRANCH   6  26
HETATM   26  C   UNL     3     -11.068   7.206  72.487  1.00  0.00    -0.280 C  
HETATM   27  H   UNL     3      -9.987   8.750  72.126  1.00  0.00     0.000 HD 
HETATM   28  O   UNL     3      -9.853   7.935  72.596  1.00  0.00    -0.204 OA 
BRANCH  26  29
HETATM   29  C   UNL     3     -11.514   6.972  71.019  1.00  0.00    -0.303 C  
HETATM   30  O   UNL     3     -12.413   8.091  70.600  1.00  0.00    -0.495 OA 
HETATM   31  H   UNL     3     -12.685   7.948  69.701  1.00  0.00     0.000 HD 
BRANCH  29  32
HETATM   32  C   UNL     3     -10.369   7.063  69.987  1.00  0.00    -0.202 C  
HETATM   33  H   UNL     3      -9.757   8.433  68.710  1.00  0.00     0.000 HD 
HETATM   34  O   UNL     3     -10.462   8.377  69.345  1.00  0.00    -0.217 OA 
BRANCH  32  35
HETATM   35  C   UNL     3      -9.928   5.923  69.055  1.00  0.00    -0.165 C  
HETATM   36  H   UNL     3      -9.298   4.114  69.320  1.00  0.00     0.000 HD 
HETATM   37  O   UNL     3      -9.571   4.819  69.896  1.00  0.00    -0.144 OA 
BRANCH  35  38
HETATM   38  C   UNL     3     -10.904   5.521  67.955  1.00  0.00     0.018 C  
HETATM   39  C   UNL     3     -10.150   4.859  66.771  1.00  0.00    -0.238 C  
HETATM   40  O   UNL     3     -11.621   6.668  67.458  1.00  0.00    -0.693 OA 
HETATM   41  O   UNL     3      -8.902   4.683  66.932  1.00  0.00    -0.110 OA 
HETATM   42  O   UNL     3     -10.830   4.793  65.710  1.00  0.00    -0.295 OA 
HETATM   43  H   UNL     3     -12.230   6.417  66.772  1.00  0.00     0.000 HD 
ENDBRANCH  35  38
ENDBRANCH  32  35
ENDBRANCH  29  32
ENDBRANCH  26  29
ENDBRANCH   6  26
TORSDOF 10
ENDMDL
MODEL      237
REMARK 921   NORMALIZED FREE ENERGY PREDICTED BY IDOCK:   -5.23 KCAL/MOL
REMARK 922        TOTAL FREE ENERGY PREDICTED BY IDOCK:  -10.79 KCAL/MOL
REMARK 923 INTER-LIGAND FREE ENERGY PREDICTED BY IDOCK:   -7.65 KCAL/MOL
REMARK 924 INTRA-LIGAND FREE ENERGY PREDICTED BY IDOCK:   -3.14 KCAL/MOL
REMARK 927      BINDING AFFINITY PREDICTED BY RF-SCORE:    0.00 PKD
ROOT
HETATM    1 CA   UNL     1      -9.462  10.283  71.175  1.00  0.00    -0.238 Ca 
HETATM    2  O   UNL     2     -14.266  13.055  72.644  1.00  0.00    -0.699 OA 
HETATM    3  O   UNL     3      -7.527   6.010  66.986  1.00  0.00    -0.082 OA 
HETATM    4  H   UNL     2     -14.528  12.584  73.427  1.00  0.00     0.000 HD 
HETATM    5  C   UNL     2     -13.100  12.438  72.102  1.00  0.00    -0.314 C  
HETATM    6  C   UNL     3      -7.981   6.125  68.331  1.00  0.00    -0.108 C  
HETATM    7  H   UNL     3      -6.704   5.536  66.956  1.00  0.00     0.000 HD 
ENDROOT
BRANCH   5   8
HETATM    8  C   UNL     2     -12.675  13.203  70.831  1.00  0.00    -0.233 C  
HETATM    9  O   UNL     2     -11.842  14.288  71.226  1.00  0.00    -0.450 OA 
HETATM   10  H   UNL     2     -11.580  14.759  70.443  1.00  0.00     0.000 HD 
BRANCH   8  11
HETATM   11  C   UNL     2     -11.867  12.304  69.881  1.00  0.00    -0.311 C  
HETATM   12  H   UNL     2     -11.733  10.357  69.402  1.00  0.00     0.000 HD 
HETATM   13  O   UNL     2     -12.232  10.913  69.988  1.00  0.00    -0.315 OA 
BRANCH  11  14
HETATM   14  C   UNL     2     -11.758  12.677  68.382  1.00  0.00    -0.333 C  
HETATM   15  O   UNL     2     -12.020  11.539  67.578  1.00  0.00    -0.629 OA 
HETATM   16  H   UNL     2     -11.953  11.768  66.658  1.00  0.00     0.000 HD 
BRANCH  14  17
HETATM   17  C   UNL     2     -10.554  13.528  67.936  1.00  0.00    -0.248 C  
HETATM   18  H   UNL     2      -9.393  13.568  66.366  1.00  0.00     0.000 HD 
HETATM   19  O   UNL     2     -10.136  13.042  66.641  1.00  0.00    -0.241 OA 
BRANCH  17  20
HETATM   20  C   UNL     2     -10.769  15.041  67.931  1.00  0.00    -0.268 C  
HETATM   21  O   UNL     2     -12.130  15.384  68.277  1.00  0.00    -0.512 OA 
HETATM   22  C   UNL     2      -9.796  15.655  68.977  1.00  0.00    -0.236 C  
HETATM   23  H   UNL     2     -12.263  16.324  68.274  1.00  0.00     0.000 HD 
HETATM   24  O   UNL     2      -8.653  15.126  68.992  1.00  0.00    -0.193 OA 
HETATM   25  O   UNL     2     -10.316  16.574  69.665  1.00  0.00    -0.277 OA 
ENDBRANCH  17  20
ENDBRANCH  14  17
ENDBRANCH  11  14
ENDBRANCH   8  11
ENDBRANCH   5   8
BRANCH   6  26
HETATM   26  C   UNL     3      -9.311   6.891  68.378  1.00  0.00    -0.129 C  
HETATM   27  H   UNL     3     -10.006   8.324  69.449  1.00  0.00     0.000 HD 
HETATM   28  O   UNL     3      -9.184   7.850  69.420  1.00  0.00    -0.146 OA 
BRANCH  26  29
HETATM   29  C   UNL     3      -9.676   7.519  67.008  1.00  0.00    -0.198 C  
HETATM   30  O   UNL     3     -11.161   7.473  66.832  1.00  0.00    -0.501 OA 
HETATM   31  H   UNL     3     -11.384   7.858  65.993  1.00  0.00     0.000 HD 
BRANCH  29  32
HETATM   32  C   UNL     3      -9.377   9.030  66.902  1.00  0.00    -0.158 C  
HETATM   33  H   UNL     3     -10.205  10.545  65.953  1.00  0.00     0.000 HD 
HETATM   34  O   UNL     3     -10.388   9.615  66.018  1.00  0.00    -0.218 OA 
BRANCH  32  35
HETATM   35  C   UNL     3      -7.975   9.646  66.770  1.00  0.00    -0.105 C  
HETATM   36  H   UNL     3      -7.116  10.813  65.489  1.00  0.00     0.000 HD 
HETATM   37  O   UNL     3      -7.983  10.431  65.570  1.00  0.00    -0.147 OA 
BRANCH  35  38
HETATM   38  C   UNL     3      -7.455  10.428  67.971  1.00  0.00    -0.090 C  
HETATM   39  C   UNL     3      -6.313   9.651  68.676  1.00  0.00    -0.047 C  
HETATM   40  O   UNL     3      -8.507  10.666  68.926  1.00  0.00    -0.139 OA 
HETATM   41  O   UNL     3      -5.945   8.570  68.117  1.00  0.00    -0.044 OA 
HETATM   42  O   UNL     3      -6.055  10.071  69.838  1.00  0.00    -0.042 OA 
HETATM   43  H   UNL     3      -8.183  11.153  69.675  1.00  0.00     0.000 HD 
ENDBRANCH  35  38
ENDBRANCH  32  35
ENDBRANCH  29  32
ENDBRANCH  26  29
ENDBRANCH   6  26
TORSDOF 10
ENDMDL
MODEL      238
REMARK 921   NORMALIZED FREE ENERGY PREDICTED BY IDOCK:   -5.23 KCAL/MOL
REMARK 922        TOTAL FREE ENERGY PREDICTED BY IDOCK:  -10.79 KCAL/MOL
REMARK 923 INTER-LIGAND FREE ENERGY PREDICTED BY IDOCK:   -9.18 KCAL/MOL
REMARK 924 INTRA-LIGAND FREE ENERGY PREDICTED BY IDOCK:   -1.61 KCAL/MOL
REMARK 927      BINDING AFFINITY PREDICTED BY RF-SCORE:    0.00 PKD
ROOT
HETATM    1 CA   UNL     1      -7.988  12.983  69.421  1.00  0.00    -0.302 Ca 
HETATM    2  O   UNL     2     -13.138  15.325  70.373  1.00  0.00    -0.636 OA 
HETATM    3  O   UNL     3      -5.481   7.358  68.144  1.00  0.00    -0.024 OA 
HETATM    4  H   UNL     2     -13.130  15.429  71.318  1.00  0.00     0.000 HD 
HETATM    5  C   UNL     2     -11.931  14.681  69.969  1.00  0.00    -0.320 C  
HETATM    6  C   UNL     3      -5.749   8.238  69.233  1.00  0.00    -0.031 C  
HETATM    7  H   UNL     3      -4.567   7.100  68.149  1.00  0.00     0.000 HD 
ENDROOT
BRANCH   5   8
HETATM    8  C   UNL     2     -11.945  14.511  68.435  1.00  0.00    -0.274 C  
HETATM    9  O   UNL     2     -12.112  15.798  67.850  1.00  0.00    -0.192 OA 
HETATM   10  H   UNL     2     -12.121  15.694  66.905  1.00  0.00     0.000 HD 
BRANCH   8  11
HETATM   11  C   UNL     2     -10.618  13.925  67.926  1.00  0.00    -0.245 C  
HETATM   12  H   UNL     2      -9.343  12.447  68.403  1.00  0.00     0.000 HD 
HETATM   13  O   UNL     2     -10.163  12.810  68.718  1.00  0.00    -0.187 OA 
BRANCH  11  14
HETATM   14  C   UNL     2     -10.464  13.570  66.427  1.00  0.00    -0.287 C  
HETATM   15  O   UNL     2     -10.497  14.751  65.642  1.00  0.00    -0.306 OA 
HETATM   16  H   UNL     2     -10.402  14.532  64.722  1.00  0.00     0.000 HD 
BRANCH  14  17
HETATM   17  C   UNL     2     -11.295  12.397  65.874  1.00  0.00    -0.356 C  
HETATM   18  H   UNL     2     -12.187  10.843  66.652  1.00  0.00     0.000 HD 
HETATM   19  O   UNL     2     -11.674  11.567  66.994  1.00  0.00    -0.556 OA 
BRANCH  17  20
HETATM   20  C   UNL     2     -12.501  12.777  65.016  1.00  0.00    -0.506 C  
HETATM   21  O   UNL     2     -13.048  14.055  65.408  1.00  0.00    -0.763 OA 
HETATM   22  C   UNL     2     -12.021  12.847  63.539  1.00  0.00    -0.556 C  
HETATM   23  H   UNL     2     -13.798  14.291  64.875  1.00  0.00     0.000 HD 
HETATM   24  O   UNL     2     -11.209  11.940  63.216  1.00  0.00    -0.364 OA 
HETATM   25  O   UNL     2     -12.504  13.821  62.901  1.00  0.00    -0.601 OA 
ENDBRANCH  17  20
ENDBRANCH  14  17
ENDBRANCH  11  14
ENDBRANCH   8  11
ENDBRANCH   5   8
BRANCH   6  26
HETATM   26  C   UNL     3      -7.227   8.656  69.225  1.00  0.00    -0.063 C  
HETATM   27  H   UNL     3      -8.685   8.435  67.998  1.00  0.00     0.000 HD 
HETATM   28  O   UNL     3      -7.771   8.176  68.002  1.00  0.00    -0.109 OA 
BRANCH  26  29
HETATM   29  C   UNL     3      -7.988   8.147  70.477  1.00  0.00    -0.095 C  
HETATM   30  O   UNL     3      -7.747   9.092  71.610  1.00  0.00    -0.310 OA 
HETATM   31  H   UNL     3      -8.214   8.780  72.377  1.00  0.00     0.000 HD 
BRANCH  29  32
HETATM   32  C   UNL     3      -9.526   8.178  70.341  1.00  0.00    -0.163 C  
HETATM   33  H   UNL     3     -10.985   9.095  71.295  1.00  0.00     0.000 HD 
HETATM   34  O   UNL     3     -10.038   9.076  71.379  1.00  0.00    -0.279 OA 
BRANCH  32  35
HETATM   35  C   UNL     3     -10.413   6.957  70.053  1.00  0.00    -0.207 C  
HETATM   36  H   UNL     3     -11.998   6.203  70.866  1.00  0.00     0.000 HD 
HETATM   37  O   UNL     3     -11.449   6.958  71.044  1.00  0.00    -0.279 OA 
BRANCH  35  38
HETATM   38  C   UNL     3     -10.966   6.829  68.638  1.00  0.00    -0.199 C  
HETATM   39  C   UNL     3     -10.232   5.703  67.864  1.00  0.00    -0.187 C  
HETATM   40  O   UNL     3     -10.808   8.064  67.910  1.00  0.00    -0.456 OA 
HETATM   41  O   UNL     3      -9.381   5.032  68.528  1.00  0.00    -0.115 OA 
HETATM   42  O   UNL     3     -10.405   5.750  66.614  1.00  0.00    -0.212 OA 
HETATM   43  H   UNL     3     -11.153   7.984  67.028  1.00  0.00     0.000 HD 
ENDBRANCH  35  38
ENDBRANCH  32  35
ENDBRANCH  29  32
ENDBRANCH  26  29
ENDBRANCH   6  26
TORSDOF 10
ENDMDL
MODEL      239
REMARK 921   NORMALIZED FREE ENERGY PREDICTED BY IDOCK:   -5.23 KCAL/MOL
REMARK 922        TOTAL FREE ENERGY PREDICTED BY IDOCK:  -10.79 KCAL/MOL
REMARK 923 INTER-LIGAND FREE ENERGY PREDICTED BY IDOCK:   -8.44 KCAL/MOL
REMARK 924 INTRA-LIGAND FREE ENERGY PREDICTED BY IDOCK:   -2.35 KCAL/MOL
REMARK 927      BINDING AFFINITY PREDICTED BY RF-SCORE:    0.00 PKD
ROOT
HETATM    1 CA   UNL     1      -6.825  13.552  66.759  1.00  0.00    -0.304 Ca 
HETATM    2  O   UNL     2      -6.574   9.485  62.719  1.00  0.00    -0.098 OA 
HETATM    3  O   UNL     3     -11.121  17.091  69.687  1.00  0.00    -0.332 OA 
HETATM    4  H   UNL     2      -6.266   9.980  61.968  1.00  0.00     0.000 HD 
HETATM    5  C   UNL     2      -6.758  10.379  63.816  1.00  0.00    -0.003 C  
HETATM    6  C   UNL     3     -10.201  17.126  68.600  1.00  0.00    -0.336 C  
HETATM    7  H   UNL     3     -10.987  17.840  70.256  1.00  0.00     0.000 HD 
ENDROOT
BRANCH   5   8
HETATM    8  C   UNL     2      -7.258   9.576  65.036  1.00  0.00    -0.110 C  
HETATM    9  O   UNL     2      -7.600  10.500  66.063  1.00  0.00    -0.131 OA 
HETATM   10  H   UNL     2      -7.908  10.006  66.814  1.00  0.00     0.000 HD 
BRANCH   8  11
HETATM   11  C   UNL     2      -8.514   8.760  64.690  1.00  0.00    -0.151 C  
HETATM   12  H   UNL     2      -8.984   7.026  63.790  1.00  0.00     0.000 HD 
HETATM   13  O   UNL     2      -8.207   7.530  64.004  1.00  0.00    -0.081 OA 
BRANCH  11  14
HETATM   14  C   UNL     2      -9.564   8.469  65.791  1.00  0.00     0.002 C  
HETATM   15  O   UNL     2     -10.241   9.664  66.144  1.00  0.00    -0.266 OA 
HETATM   16  H   UNL     2     -10.885   9.485  66.820  1.00  0.00     0.000 HD 
BRANCH  14  17
HETATM   17  C   UNL     2      -9.139   7.585  66.979  1.00  0.00    -0.135 C  
HETATM   18  H   UNL     2      -8.638   7.912  68.839  1.00  0.00     0.000 HD 
HETATM   19  O   UNL     2      -8.901   8.458  68.106  1.00  0.00    -0.141 OA 
BRANCH  17  20
HETATM   20  C   UNL     2     -10.089   6.443  67.337  1.00  0.00    -0.158 C  
HETATM   21  O   UNL     2     -11.447   6.742  66.945  1.00  0.00    -0.752 OA 
HETATM   22  C   UNL     2      -9.598   5.173  66.586  1.00  0.00    -0.154 C  
HETATM   23  H   UNL     2     -12.038   6.032  67.167  1.00  0.00     0.000 HD 
HETATM   24  O   UNL     2      -8.346   5.040  66.561  1.00  0.00    -0.108 OA 
HETATM   25  O   UNL     2     -10.535   4.487  66.098  1.00  0.00    -0.272 OA 
ENDBRANCH  17  20
ENDBRANCH  14  17
ENDBRANCH  11  14
ENDBRANCH   8  11
ENDBRANCH   5   8
BRANCH   6  26
HETATM   26  C   UNL     3     -10.418  15.915  67.682  1.00  0.00    -0.289 C  
HETATM   27  H   UNL     3     -11.932  14.838  67.204  1.00  0.00     0.000 HD 
HETATM   28  O   UNL     3     -11.798  15.587  67.772  1.00  0.00    -0.200 OA 
BRANCH  26  29
HETATM   29  C   UNL     3      -9.945  16.186  66.229  1.00  0.00    -0.317 C  
HETATM   30  O   UNL     3      -8.456  16.058  66.170  1.00  0.00    -0.323 OA 
HETATM   31  H   UNL     3      -8.167  16.224  65.281  1.00  0.00     0.000 HD 
BRANCH  29  32
HETATM   32  C   UNL     3     -10.409  15.130  65.204  1.00  0.00    -0.385 C  
HETATM   33  H   UNL     3     -11.929  14.978  63.960  1.00  0.00     0.000 HD 
HETATM   34  O   UNL     3     -11.644  15.628  64.592  1.00  0.00    -0.363 OA 
BRANCH  32  35
HETATM   35  C   UNL     3     -10.369  13.609  65.422  1.00  0.00    -0.332 C  
HETATM   36  H   UNL     3      -9.507  12.440  66.698  1.00  0.00     0.000 HD 
HETATM   37  O   UNL     3      -9.532  13.380  66.563  1.00  0.00    -0.258 OA 
BRANCH  35  38
HETATM   38  C   UNL     3     -11.712  12.897  65.537  1.00  0.00    -0.383 C  
HETATM   39  C   UNL     3     -12.150  12.331  64.161  1.00  0.00    -0.436 C  
HETATM   40  O   UNL     3     -12.733  13.798  66.010  1.00  0.00    -0.444 OA 
HETATM   41  O   UNL     3     -11.317  12.467  63.210  1.00  0.00    -0.456 OA 
HETATM   42  O   UNL     3     -13.372  12.018  64.107  1.00  0.00    -0.725 OA 
HETATM   43  H   UNL     3     -13.571  13.354  66.082  1.00  0.00     0.000 HD 
ENDBRANCH  35  38
ENDBRANCH  32  35
ENDBRANCH  29  32
ENDBRANCH  26  29
ENDBRANCH   6  26
TORSDOF 10
ENDMDL
MODEL      240
REMARK 921   NORMALIZED FREE ENERGY PREDICTED BY IDOCK:   -5.23 KCAL/MOL
REMARK 922        TOTAL FREE ENERGY PREDICTED BY IDOCK:  -10.78 KCAL/MOL
REMARK 923 INTER-LIGAND FREE ENERGY PREDICTED BY IDOCK:   -7.65 KCAL/MOL
REMARK 924 INTRA-LIGAND FREE ENERGY PREDICTED BY IDOCK:   -3.14 KCAL/MOL
REMARK 927      BINDING AFFINITY PREDICTED BY RF-SCORE:    0.00 PKD
ROOT
HETATM    1 CA   UNL     1      -7.331  11.534  67.269  1.00  0.00    -0.085 Ca 
HETATM    2  O   UNL     2      -6.178   7.137  70.770  1.00  0.00    -0.035 OA 
HETATM    3  O   UNL     3     -11.979  13.561  63.549  1.00  0.00    -0.696 OA 
HETATM    4  H   UNL     2      -5.595   6.611  70.233  1.00  0.00     0.000 HD 
HETATM    5  C   UNL     2      -6.620   8.259  70.009  1.00  0.00    -0.039 C  
HETATM    6  C   UNL     3     -10.756  12.830  63.507  1.00  0.00    -0.190 C  
HETATM    7  H   UNL     3     -11.964  14.261  62.907  1.00  0.00     0.000 HD 
ENDROOT
BRANCH   5   8
HETATM    8  C   UNL     2      -7.566   9.112  70.881  1.00  0.00    -0.124 C  
HETATM    9  O   UNL     2      -6.858  10.278  71.290  1.00  0.00    -0.210 OA 
HETATM   10  H   UNL     2      -7.440  10.803  71.828  1.00  0.00     0.000 HD 
BRANCH   8  11
HETATM   11  C   UNL     2      -8.804   9.561  70.089  1.00  0.00    -0.235 C  
HETATM   12  H   UNL     2      -9.374   9.764  68.172  1.00  0.00     0.000 HD 
HETATM   13  O   UNL     2      -8.609   9.486  68.662  1.00  0.00    -0.117 OA 
BRANCH  11  14
HETATM   14  C   UNL     2     -10.191   8.964  70.434  1.00  0.00    -0.200 C  
HETATM   15  O   UNL     2     -10.900   9.845  71.290  1.00  0.00    -0.289 OA 
HETATM   16  H   UNL     2     -11.751   9.478  71.502  1.00  0.00     0.000 HD 
BRANCH  14  17
HETATM   17  C   UNL     2     -10.259   7.476  70.830  1.00  0.00    -0.192 C  
HETATM   18  H   UNL     2     -11.096   6.465  72.276  1.00  0.00     0.000 HD 
HETATM   19  O   UNL     2     -11.055   7.383  72.032  1.00  0.00    -0.230 OA 
BRANCH  17  20
HETATM   20  C   UNL     2     -10.753   6.517  69.747  1.00  0.00    -0.269 C  
HETATM   21  O   UNL     2     -11.401   7.227  68.668  1.00  0.00    -0.440 OA 
HETATM   22  C   UNL     2      -9.515   5.754  69.199  1.00  0.00    -0.128 C  
HETATM   23  H   UNL     2     -11.708   6.630  67.995  1.00  0.00     0.000 HD 
HETATM   24  O   UNL     2      -8.681   5.419  70.082  1.00  0.00    -0.122 OA 
HETATM   25  O   UNL     2      -9.529   5.611  67.947  1.00  0.00    -0.110 OA 
ENDBRANCH  17  20
ENDBRANCH  14  17
ENDBRANCH  11  14
ENDBRANCH   8  11
ENDBRANCH   5   8
BRANCH   6  26
HETATM   26  C   UNL     3     -10.780  11.698  64.544  1.00  0.00    -0.322 C  
HETATM   27  H   UNL     3     -10.373   9.823  64.505  1.00  0.00     0.000 HD 
HETATM   28  O   UNL     3     -10.358  10.524  63.864  1.00  0.00    -0.262 OA 
BRANCH  26  29
HETATM   29  C   UNL     3      -9.919  12.026  65.793  1.00  0.00    -0.241 C  
HETATM   30  O   UNL     3      -9.271  13.360  65.600  1.00  0.00    -0.430 OA 
HETATM   31  H   UNL     3      -8.744  13.561  66.365  1.00  0.00     0.000 HD 
BRANCH  29  32
HETATM   32  C   UNL     3     -10.734  12.238  67.087  1.00  0.00    -0.233 C  
HETATM   33  H   UNL     3     -12.605  12.704  67.488  1.00  0.00     0.000 HD 
HETATM   34  O   UNL     3     -12.104  12.575  66.691  1.00  0.00    -0.562 OA 
BRANCH  32  35
HETATM   35  C   UNL     3     -10.228  12.971  68.339  1.00  0.00    -0.245 C  
HETATM   36  H   UNL     3      -8.486  13.310  69.108  1.00  0.00     0.000 HD 
HETATM   37  O   UNL     3      -8.799  12.856  68.334  1.00  0.00    -0.182 OA 
BRANCH  35  38
HETATM   38  C   UNL     3     -10.692  14.412  68.524  1.00  0.00    -0.253 C  
HETATM   39  C   UNL     3     -11.892  14.478  69.504  1.00  0.00    -0.329 C  
HETATM   40  O   UNL     3     -11.094  14.988  67.265  1.00  0.00    -0.318 OA 
HETATM   41  O   UNL     3     -12.233  13.380  70.045  1.00  0.00    -0.327 OA 
HETATM   42  O   UNL     3     -12.524  15.570  69.459  1.00  0.00    -0.232 OA 
HETATM   43  H   UNL     3     -11.383  15.886  67.380  1.00  0.00     0.000 HD 
ENDBRANCH  35  38
ENDBRANCH  32  35
ENDBRANCH  29  32
ENDBRANCH  26  29
ENDBRANCH   6  26
TORSDOF 10
ENDMDL
MODEL      241
REMARK 921   NORMALIZED FREE ENERGY PREDICTED BY IDOCK:   -5.21 KCAL/MOL
REMARK 922        TOTAL FREE ENERGY PREDICTED BY IDOCK:  -10.75 KCAL/MOL
REMARK 923 INTER-LIGAND FREE ENERGY PREDICTED BY IDOCK:   -9.04 KCAL/MOL
REMARK 924 INTRA-LIGAND FREE ENERGY PREDICTED BY IDOCK:   -1.72 KCAL/MOL
REMARK 927      BINDING AFFINITY PREDICTED BY RF-SCORE:    0.00 PKD
ROOT
HETATM    1 CA   UNL     1      -7.328  14.291  69.226  1.00  0.00    -0.103 Ca 
HETATM    2  O   UNL     2     -10.290  19.187  68.807  1.00  0.00    -0.489 OA 
HETATM    3  O   UNL     3      -8.202   8.117  68.407  1.00  0.00    -0.126 OA 
HETATM    4  H   UNL     2     -10.474  19.379  69.720  1.00  0.00     0.000 HD 
HETATM    5  C   UNL     2      -9.602  17.940  68.727  1.00  0.00    -0.286 C  
HETATM    6  C   UNL     3      -8.202   9.118  69.421  1.00  0.00    -0.118 C  
HETATM    7  H   UNL     3      -7.633   7.398  68.656  1.00  0.00     0.000 HD 
ENDROOT
BRANCH   5   8
HETATM    8  C   UNL     2      -9.304  17.629  67.245  1.00  0.00    -0.249 C  
HETATM    9  O   UNL     2      -8.126  16.832  67.190  1.00  0.00    -0.166 OA 
HETATM   10  H   UNL     2      -7.942  16.640  66.277  1.00  0.00     0.000 HD 
BRANCH   8  11
HETATM   11  C   UNL     2     -10.450  16.831  66.601  1.00  0.00    -0.258 C  
HETATM   12  H   UNL     2     -11.310  16.621  64.797  1.00  0.00     0.000 HD 
HETATM   13  O   UNL     2     -10.602  17.114  65.196  1.00  0.00    -0.695 OA 
BRANCH  11  14
HETATM   14  C   UNL     2     -10.530  15.300  66.814  1.00  0.00    -0.293 C  
HETATM   15  O   UNL     2     -10.424  14.629  65.568  1.00  0.00    -0.310 OA 
HETATM   16  H   UNL     2     -10.473  13.689  65.699  1.00  0.00     0.000 HD 
BRANCH  14  17
HETATM   17  C   UNL     2     -11.622  14.757  67.755  1.00  0.00    -0.357 C  
HETATM   18  H   UNL     2     -13.042  13.424  67.605  1.00  0.00     0.000 HD 
HETATM   19  O   UNL     2     -12.368  13.759  67.024  1.00  0.00    -0.378 OA 
BRANCH  17  20
HETATM   20  C   UNL     2     -11.140  14.228  69.105  1.00  0.00    -0.262 C  
HETATM   21  O   UNL     2      -9.699  14.128  69.151  1.00  0.00    -0.415 OA 
HETATM   22  C   UNL     2     -11.627  15.222  70.198  1.00  0.00    -0.299 C  
HETATM   23  H   UNL     2      -9.400  13.799  69.990  1.00  0.00     0.000 HD 
HETATM   24  O   UNL     2     -12.792  15.664  70.011  1.00  0.00    -0.212 OA 
HETATM   25  O   UNL     2     -10.765  15.448  71.089  1.00  0.00    -0.243 OA 
ENDBRANCH  17  20
ENDBRANCH  14  17
ENDBRANCH  11  14
ENDBRANCH   8  11
ENDBRANCH   5   8
BRANCH   6  26
HETATM   26  C   UNL     3      -9.121  10.280  69.018  1.00  0.00    -0.183 C  
HETATM   27  H   UNL     3      -9.302  11.378  67.455  1.00  0.00     0.000 HD 
HETATM   28  O   UNL     3      -8.734  10.659  67.704  1.00  0.00    -0.121 OA 
BRANCH  26  29
HETATM   29  C   UNL     3     -10.623   9.909  69.132  1.00  0.00    -0.220 C  
HETATM   30  O   UNL     3     -11.029   9.145  67.912  1.00  0.00    -0.483 OA 
HETATM   31  H   UNL     3     -11.949   8.919  67.981  1.00  0.00     0.000 HD 
BRANCH  29  32
HETATM   32  C   UNL     3     -10.947   8.915  70.268  1.00  0.00    -0.241 C  
HETATM   33  H   UNL     3     -11.563   7.045  70.341  1.00  0.00     0.000 HD 
HETATM   34  O   UNL     3     -11.364   7.657  69.642  1.00  0.00    -0.054 OA 
BRANCH  32  35
HETATM   35  C   UNL     3     -11.696   9.266  71.563  1.00  0.00    -0.380 C  
HETATM   36  H   UNL     3     -13.411  10.063  71.970  1.00  0.00     0.000 HD 
HETATM   37  O   UNL     3     -12.947   9.846  71.170  1.00  0.00    -0.351 OA 
BRANCH  35  38
HETATM   38  C   UNL     3     -11.872   8.143  72.579  1.00  0.00    -0.376 C  
HETATM   39  C   UNL     3     -10.496   7.675  73.120  1.00  0.00    -0.374 C  
HETATM   40  O   UNL     3     -12.542   7.013  71.986  1.00  0.00    -0.450 OA 
HETATM   41  O   UNL     3      -9.485   8.330  72.715  1.00  0.00    -0.260 OA 
HETATM   42  O   UNL     3     -10.535   6.558  73.708  1.00  0.00    -0.285 OA 
HETATM   43  H   UNL     3     -12.651   6.313  72.619  1.00  0.00     0.000 HD 
ENDBRANCH  35  38
ENDBRANCH  32  35
ENDBRANCH  29  32
ENDBRANCH  26  29
ENDBRANCH   6  26
TORSDOF 10
ENDMDL
MODEL      242
REMARK 921   NORMALIZED FREE ENERGY PREDICTED BY IDOCK:   -5.20 KCAL/MOL
REMARK 922        TOTAL FREE ENERGY PREDICTED BY IDOCK:  -10.74 KCAL/MOL
REMARK 923 INTER-LIGAND FREE ENERGY PREDICTED BY IDOCK:   -9.56 KCAL/MOL
REMARK 924 INTRA-LIGAND FREE ENERGY PREDICTED BY IDOCK:   -1.17 KCAL/MOL
REMARK 927      BINDING AFFINITY PREDICTED BY RF-SCORE:    0.00 PKD
ROOT
HETATM    1 CA   UNL     1      -8.193  13.323  67.323  1.00  0.00    -0.127 Ca 
HETATM    2  O   UNL     2      -9.690   8.049  65.630  1.00  0.00    -0.385 OA 
HETATM    3  O   UNL     3     -10.457  19.189  67.175  1.00  0.00    -0.391 OA 
HETATM    4  H   UNL     2      -9.151   7.936  64.856  1.00  0.00     0.000 HD 
HETATM    5  C   UNL     2      -9.485   9.363  66.147  1.00  0.00    -0.226 C  
HETATM    6  C   UNL     3      -9.577  18.316  66.473  1.00  0.00    -0.320 C  
HETATM    7  H   UNL     3     -10.014  20.003  67.384  1.00  0.00     0.000 HD 
ENDROOT
BRANCH   5   8
HETATM    8  C   UNL     2     -10.361   9.547  67.405  1.00  0.00    -0.258 C  
HETATM    9  O   UNL     2     -11.244   8.434  67.494  1.00  0.00    -0.363 OA 
HETATM   10  H   UNL     2     -11.783   8.547  68.269  1.00  0.00     0.000 HD 
BRANCH   8  11
HETATM   11  C   UNL     2      -9.505   9.581  68.681  1.00  0.00    -0.142 C  
HETATM   12  H   UNL     2      -8.813  10.935  69.995  1.00  0.00     0.000 HD 
HETATM   13  O   UNL     2      -9.341  10.913  69.206  1.00  0.00    -0.133 OA 
BRANCH  11  14
HETATM   14  C   UNL     2      -9.838   8.622  69.851  1.00  0.00    -0.183 C  
HETATM   15  O   UNL     2      -9.672   7.275  69.437  1.00  0.00    -0.160 OA 
HETATM   16  H   UNL     2      -9.876   6.686  70.154  1.00  0.00     0.000 HD 
BRANCH  14  17
HETATM   17  C   UNL     2     -11.111   8.898  70.672  1.00  0.00    -0.262 C  
HETATM   18  H   UNL     2     -12.677  10.047  70.456  1.00  0.00     0.000 HD 
HETATM   19  O   UNL     2     -11.891   9.876  69.949  1.00  0.00    -0.146 OA 
BRANCH  17  20
HETATM   20  C   UNL     2     -11.945   7.674  71.048  1.00  0.00    -0.273 C  
HETATM   21  O   UNL     2     -12.145   6.802  69.914  1.00  0.00    -0.656 OA 
HETATM   22  C   UNL     2     -11.177   6.909  72.163  1.00  0.00    -0.258 C  
HETATM   23  H   UNL     2     -12.663   6.041  70.147  1.00  0.00     0.000 HD 
HETATM   24  O   UNL     2     -10.631   7.655  73.019  1.00  0.00    -0.314 OA 
HETATM   25  O   UNL     2     -11.202   5.658  72.019  1.00  0.00    -0.257 OA 
ENDBRANCH  17  20
ENDBRANCH  14  17
ENDBRANCH  11  14
ENDBRANCH   8  11
ENDBRANCH   5   8
BRANCH   6  26
HETATM   26  C   UNL     3     -10.294  17.001  66.135  1.00  0.00    -0.319 C  
HETATM   27  H   UNL     3     -11.206  16.318  64.591  1.00  0.00     0.000 HD 
HETATM   28  O   UNL     3     -10.762  17.132  64.799  1.00  0.00    -0.727 OA 
BRANCH  26  29
HETATM   29  C   UNL     3      -9.382  15.763  66.346  1.00  0.00    -0.301 C  
HETATM   30  O   UNL     3      -9.209  15.532  67.814  1.00  0.00    -0.179 OA 
HETATM   31  H   UNL     3      -8.650  14.774  67.943  1.00  0.00     0.000 HD 
BRANCH  29  32
HETATM   32  C   UNL     3     -10.002  14.431  65.872  1.00  0.00    -0.328 C  
HETATM   33  H   UNL     3     -10.005  13.429  64.176  1.00  0.00     0.000 HD 
HETATM   34  O   UNL     3      -9.624  14.249  64.468  1.00  0.00     0.297 OA 
BRANCH  32  35
HETATM   35  C   UNL     3     -11.412  13.937  66.227  1.00  0.00    -0.339 C  
HETATM   36  H   UNL     3     -12.722  14.407  67.570  1.00  0.00     0.000 HD 
HETATM   37  O   UNL     3     -11.849  14.713  67.351  1.00  0.00    -0.385 OA 
BRANCH  35  38
HETATM   38  C   UNL     3     -12.438  13.924  65.099  1.00  0.00    -0.453 C  
HETATM   39  C   UNL     3     -12.439  12.552  64.376  1.00  0.00    -0.446 C  
HETATM   40  O   UNL     3     -12.152  14.953  64.131  1.00  0.00    -0.725 OA 
HETATM   41  O   UNL     3     -11.678  11.660  64.870  1.00  0.00    -0.170 OA 
HETATM   42  O   UNL     3     -13.015  12.569  63.253  1.00  0.00    -0.634 OA 
HETATM   43  H   UNL     3     -12.791  14.945  63.428  1.00  0.00     0.000 HD 
ENDBRANCH  35  38
ENDBRANCH  32  35
ENDBRANCH  29  32
ENDBRANCH  26  29
ENDBRANCH   6  26
TORSDOF 10
ENDMDL
MODEL      243
REMARK 921   NORMALIZED FREE ENERGY PREDICTED BY IDOCK:   -5.19 KCAL/MOL
REMARK 922        TOTAL FREE ENERGY PREDICTED BY IDOCK:  -10.72 KCAL/MOL
REMARK 923 INTER-LIGAND FREE ENERGY PREDICTED BY IDOCK:   -8.83 KCAL/MOL
REMARK 924 INTRA-LIGAND FREE ENERGY PREDICTED BY IDOCK:   -1.89 KCAL/MOL
REMARK 927      BINDING AFFINITY PREDICTED BY RF-SCORE:    0.00 PKD
ROOT
HETATM    1 CA   UNL     1     -11.637   9.128  67.603  1.00  0.00    -0.518 Ca 
HETATM    2  O   UNL     2     -11.937  12.307  62.836  1.00  0.00    -0.626 OA 
HETATM    3  O   UNL     3      -7.598   5.282  70.510  1.00  0.00    -0.068 OA 
HETATM    4  H   UNL     2     -12.489  11.768  62.281  1.00  0.00     0.000 HD 
HETATM    5  C   UNL     2     -11.704  11.617  64.063  1.00  0.00    -0.246 C  
HETATM    6  C   UNL     3      -8.718   5.263  69.629  1.00  0.00    -0.101 C  
HETATM    7  H   UNL     3      -7.753   4.706  71.250  1.00  0.00     0.000 HD 
ENDROOT
BRANCH   5   8
HETATM    8  C   UNL     2     -10.807  12.492  64.965  1.00  0.00    -0.290 C  
HETATM    9  O   UNL     2      -9.680  12.906  64.199  1.00  0.00    -0.638 OA 
HETATM   10  H   UNL     2      -9.128  13.444  64.755  1.00  0.00     0.000 HD 
BRANCH   8  11
HETATM   11  C   UNL     2     -11.551  13.751  65.438  1.00  0.00    -0.320 C  
HETATM   12  H   UNL     2     -13.432  14.453  65.506  1.00  0.00     0.000 HD 
HETATM   13  O   UNL     2     -12.972  13.675  65.214  1.00  0.00    -0.719 OA 
BRANCH  11  14
HETATM   14  C   UNL     2     -11.298  14.297  66.865  1.00  0.00    -0.343 C  
HETATM   15  O   UNL     2     -12.448  14.099  67.671  1.00  0.00    -0.540 OA 
HETATM   16  H   UNL     2     -12.293  14.434  68.547  1.00  0.00     0.000 HD 
BRANCH  14  17
HETATM   17  C   UNL     2     -10.638  15.682  67.002  1.00  0.00    -0.311 C  
HETATM   18  H   UNL     2     -11.137  17.379  67.831  1.00  0.00     0.000 HD 
HETATM   19  O   UNL     2     -11.545  16.524  67.747  1.00  0.00     0.010 OA 
BRANCH  17  20
HETATM   20  C   UNL     2      -9.231  15.696  67.601  1.00  0.00    -0.193 C  
HETATM   21  O   UNL     2      -8.757  14.358  67.870  1.00  0.00    -0.154 OA 
HETATM   22  C   UNL     2      -8.291  16.384  66.570  1.00  0.00    -0.302 C  
HETATM   23  H   UNL     2      -7.883  14.367  68.242  1.00  0.00     0.000 HD 
HETATM   24  O   UNL     2      -8.800  17.380  65.992  1.00  0.00    -0.498 OA 
HETATM   25  O   UNL     2      -7.172  15.816  66.458  1.00  0.00    -0.112 OA 
ENDBRANCH  17  20
ENDBRANCH  14  17
ENDBRANCH  11  14
ENDBRANCH   8  11
ENDBRANCH   5   8
BRANCH   6  26
HETATM   26  C   UNL     3      -8.467   6.194  68.434  1.00  0.00    -0.114 C  
HETATM   27  H   UNL     3      -9.500   6.747  66.914  1.00  0.00     0.000 HD 
HETATM   28  O   UNL     3      -9.655   6.171  67.653  1.00  0.00    -0.112 OA 
BRANCH  26  29
HETATM   29  C   UNL     3      -8.052   7.621  68.878  1.00  0.00    -0.127 C  
HETATM   30  O   UNL     3      -7.047   8.158  67.909  1.00  0.00    -0.079 OA 
HETATM   31  H   UNL     3      -6.792   9.032  68.181  1.00  0.00     0.000 HD 
BRANCH  29  32
HETATM   32  C   UNL     3      -9.184   8.667  68.793  1.00  0.00    -0.142 C  
HETATM   33  H   UNL     3      -9.724  10.023  67.470  1.00  0.00     0.000 HD 
HETATM   34  O   UNL     3      -9.027   9.380  67.522  1.00  0.00    -0.122 OA 
BRANCH  32  35
HETATM   35  C   UNL     3      -9.672   9.537  69.961  1.00  0.00    -0.236 C  
HETATM   36  H   UNL     3     -10.106  11.410  70.175  1.00  0.00     0.000 HD 
HETATM   37  O   UNL     3      -9.804  10.872  69.453  1.00  0.00    -0.154 OA 
BRANCH  35  38
HETATM   38  C   UNL     3     -10.928   9.068  70.687  1.00  0.00    -0.257 C  
HETATM   39  C   UNL     3     -10.583   8.586  72.121  1.00  0.00    -0.349 C  
HETATM   40  O   UNL     3     -11.559   7.984  69.977  1.00  0.00    -0.473 OA 
HETATM   41  O   UNL     3      -9.373   8.731  72.482  1.00  0.00    -0.326 OA 
HETATM   42  O   UNL     3     -11.495   7.898  72.658  1.00  0.00    -0.367 OA 
HETATM   43  H   UNL     3     -12.342   7.692  70.430  1.00  0.00     0.000 HD 
ENDBRANCH  35  38
ENDBRANCH  32  35
ENDBRANCH  29  32
ENDBRANCH  26  29
ENDBRANCH   6  26
TORSDOF 10
ENDMDL
MODEL      244
REMARK 921   NORMALIZED FREE ENERGY PREDICTED BY IDOCK:   -5.18 KCAL/MOL
REMARK 922        TOTAL FREE ENERGY PREDICTED BY IDOCK:  -10.71 KCAL/MOL
REMARK 923 INTER-LIGAND FREE ENERGY PREDICTED BY IDOCK:   -9.35 KCAL/MOL
REMARK 924 INTRA-LIGAND FREE ENERGY PREDICTED BY IDOCK:   -1.36 KCAL/MOL
REMARK 927      BINDING AFFINITY PREDICTED BY RF-SCORE:    0.00 PKD
ROOT
HETATM    1 CA   UNL     1      -8.084  13.243  65.993  1.00  0.00    -0.353 Ca 
HETATM    2  O   UNL     2     -10.212   7.928  66.366  1.00  0.00    -0.470 OA 
HETATM    3  O   UNL     3      -9.463  19.067  67.926  1.00  0.00    -0.295 OA 
HETATM    4  H   UNL     2     -10.602   7.817  65.507  1.00  0.00     0.000 HD 
HETATM    5  C   UNL     2      -9.685   9.250  66.466  1.00  0.00    -0.240 C  
HETATM    6  C   UNL     3      -9.605  18.203  66.802  1.00  0.00    -0.301 C  
HETATM    7  H   UNL     3      -9.072  19.890  67.659  1.00  0.00     0.000 HD 
ENDROOT
BRANCH   5   8
HETATM    8  C   UNL     2      -9.051   9.431  67.862  1.00  0.00    -0.129 C  
HETATM    9  O   UNL     2      -8.948  10.826  68.123  1.00  0.00    -0.132 OA 
HETATM   10  H   UNL     2      -8.558  10.938  68.982  1.00  0.00     0.000 HD 
BRANCH   8  11
HETATM   11  C   UNL     2      -9.928   8.805  68.958  1.00  0.00    -0.191 C  
HETATM   12  H   UNL     2     -10.460   6.977  69.601  1.00  0.00     0.000 HD 
HETATM   13  O   UNL     2      -9.918   7.364  68.924  1.00  0.00    -0.161 OA 
BRANCH  11  14
HETATM   14  C   UNL     2      -9.765   9.270  70.426  1.00  0.00    -0.244 C  
HETATM   15  O   UNL     2      -8.453   9.767  70.636  1.00  0.00    -0.326 OA 
HETATM   16  H   UNL     2      -8.354  10.052  71.537  1.00  0.00     0.000 HD 
BRANCH  14  17
HETATM   17  C   UNL     2     -10.299   8.349  71.540  1.00  0.00    -0.230 C  
HETATM   18  H   UNL     2      -9.692   7.839  73.325  1.00  0.00     0.000 HD 
HETATM   19  O   UNL     2      -9.362   8.408  72.638  1.00  0.00    -0.262 OA 
BRANCH  17  20
HETATM   20  C   UNL     2     -11.731   8.616  72.001  1.00  0.00    -0.369 C  
HETATM   21  O   UNL     2     -12.307   9.747  71.311  1.00  0.00    -0.321 OA 
HETATM   22  C   UNL     2     -12.567   7.341  71.697  1.00  0.00    -0.368 C  
HETATM   23  H   UNL     2     -13.197   9.914  71.598  1.00  0.00     0.000 HD 
HETATM   24  O   UNL     2     -11.962   6.260  71.929  1.00  0.00    -0.328 OA 
HETATM   25  O   UNL     2     -13.714   7.591  71.239  1.00  0.00    -0.339 OA 
ENDBRANCH  17  20
ENDBRANCH  14  17
ENDBRANCH  11  14
ENDBRANCH   8  11
ENDBRANCH   5   8
BRANCH   6  26
HETATM   26  C   UNL     3     -10.238  16.872  67.234  1.00  0.00    -0.297 C  
HETATM   27  H   UNL     3     -11.533  16.359  68.553  1.00  0.00     0.000 HD 
HETATM   28  O   UNL     3     -11.142  17.182  68.286  1.00  0.00    -0.310 OA 
BRANCH  26  29
HETATM   29  C   UNL     3     -10.908  16.128  66.049  1.00  0.00    -0.154 C  
HETATM   30  O   UNL     3     -10.329  16.634  64.767  1.00  0.00    -0.423 OA 
HETATM   31  H   UNL     3     -10.740  16.178  64.041  1.00  0.00     0.000 HD 
BRANCH  29  32
HETATM   32  C   UNL     3     -10.586  14.619  65.984  1.00  0.00    -0.309 C  
HETATM   33  H   UNL     3     -10.185  13.347  64.534  1.00  0.00     0.000 HD 
HETATM   34  O   UNL     3     -10.384  14.275  64.574  1.00  0.00    -0.357 OA 
BRANCH  32  35
HETATM   35  C   UNL     3     -11.282  13.531  66.817  1.00  0.00    -0.310 C  
HETATM   36  H   UNL     3     -11.070  11.618  67.006  1.00  0.00     0.000 HD 
HETATM   37  O   UNL     3     -10.640  12.291  66.491  1.00  0.00    -0.227 OA 
BRANCH  35  38
HETATM   38  C   UNL     3     -11.360  13.764  68.321  1.00  0.00    -0.285 C  
HETATM   39  C   UNL     3     -11.697  12.444  69.063  1.00  0.00    -0.323 C  
HETATM   40  O   UNL     3     -12.372  14.740  68.639  1.00  0.00    -0.583 OA 
HETATM   41  O   UNL     3     -11.767  11.400  68.340  1.00  0.00    -0.362 OA 
HETATM   42  O   UNL     3     -12.088  12.614  70.250  1.00  0.00    -0.349 OA 
HETATM   43  H   UNL     3     -12.421  14.886  69.577  1.00  0.00     0.000 HD 
ENDBRANCH  35  38
ENDBRANCH  32  35
ENDBRANCH  29  32
ENDBRANCH  26  29
ENDBRANCH   6  26
TORSDOF 10
ENDMDL
MODEL      245
REMARK 921   NORMALIZED FREE ENERGY PREDICTED BY IDOCK:   -5.18 KCAL/MOL
REMARK 922        TOTAL FREE ENERGY PREDICTED BY IDOCK:  -10.71 KCAL/MOL
REMARK 923 INTER-LIGAND FREE ENERGY PREDICTED BY IDOCK:   -8.36 KCAL/MOL
REMARK 924 INTRA-LIGAND FREE ENERGY PREDICTED BY IDOCK:   -2.35 KCAL/MOL
REMARK 927      BINDING AFFINITY PREDICTED BY RF-SCORE:    0.00 PKD
ROOT
HETATM    1 CA   UNL     1      -8.051  13.910  66.188  1.00  0.00    -0.366 Ca 
HETATM    2  O   UNL     2      -9.123   8.464  64.734  1.00  0.00    -0.397 OA 
HETATM    3  O   UNL     3     -11.127  19.359  66.825  1.00  0.00    -0.349 OA 
HETATM    4  H   UNL     2      -8.786   8.433  63.846  1.00  0.00     0.000 HD 
HETATM    5  C   UNL     2      -8.992   9.795  65.231  1.00  0.00    -0.193 C  
HETATM    6  C   UNL     3     -10.333  18.629  65.893  1.00  0.00    -0.323 C  
HETATM    7  H   UNL     3     -10.772  20.231  66.946  1.00  0.00     0.000 HD 
ENDROOT
BRANCH   5   8
HETATM    8  C   UNL     2      -9.539   9.846  66.673  1.00  0.00    -0.184 C  
HETATM    9  O   UNL     2     -10.910  10.223  66.612  1.00  0.00    -0.159 OA 
HETATM   10  H   UNL     2     -11.247  10.255  67.500  1.00  0.00     0.000 HD 
BRANCH   8  11
HETATM   11  C   UNL     2      -9.453   8.469  67.352  1.00  0.00    -0.150 C  
HETATM   12  H   UNL     2      -8.065   7.076  67.761  1.00  0.00     0.000 HD 
HETATM   13  O   UNL     2      -8.118   7.927  67.342  1.00  0.00    -0.119 OA 
BRANCH  11  14
HETATM   14  C   UNL     2     -10.061   8.273  68.762  1.00  0.00    -0.200 C  
HETATM   15  O   UNL     2     -11.262   7.523  68.673  1.00  0.00    -0.423 OA 
HETATM   16  H   UNL     2     -11.635   7.402  69.539  1.00  0.00     0.000 HD 
BRANCH  14  17
HETATM   17  C   UNL     2     -10.124   9.494  69.698  1.00  0.00    -0.212 C  
HETATM   18  H   UNL     2     -11.409  10.930  70.017  1.00  0.00     0.000 HD 
HETATM   19  O   UNL     2     -11.371  10.176  69.439  1.00  0.00    -0.226 OA 
BRANCH  17  20
HETATM   20  C   UNL     2      -9.934   9.206  71.188  1.00  0.00    -0.307 C  
HETATM   21  O   UNL     2     -10.921   8.271  71.676  1.00  0.00    -0.240 OA 
HETATM   22  C   UNL     2      -8.512   8.605  71.370  1.00  0.00    -0.188 C  
HETATM   23  H   UNL     2     -10.803   8.092  72.601  1.00  0.00     0.000 HD 
HETATM   24  O   UNL     2      -7.626   9.149  70.659  1.00  0.00    -0.103 OA 
HETATM   25  O   UNL     2      -8.476   7.646  72.187  1.00  0.00    -0.106 OA 
ENDBRANCH  17  20
ENDBRANCH  14  17
ENDBRANCH  11  14
ENDBRANCH   8  11
ENDBRANCH   5   8
BRANCH   6  26
HETATM   26  C   UNL     3     -10.907  17.219  65.698  1.00  0.00    -0.029 C  
HETATM   27  H   UNL     3     -11.600  16.238  64.201  1.00  0.00     0.000 HD 
HETATM   28  O   UNL     3     -11.245  17.111  64.321  1.00  0.00    -1.126 OA 
BRANCH  26  29
HETATM   29  C   UNL     3      -9.930  16.114  66.178  1.00  0.00    -0.335 C  
HETATM   30  O   UNL     3      -8.537  16.495  65.790  1.00  0.00    -0.442 OA 
HETATM   31  H   UNL     3      -7.938  15.818  66.084  1.00  0.00     0.000 HD 
BRANCH  29  32
HETATM   32  C   UNL     3      -9.822  15.985  67.713  1.00  0.00    -0.231 C  
HETATM   33  H   UNL     3      -8.596  16.695  69.082  1.00  0.00     0.000 HD 
HETATM   34  O   UNL     3      -8.662  16.774  68.137  1.00  0.00    -0.207 OA 
BRANCH  32  35
HETATM   35  C   UNL     3     -10.042  14.689  68.508  1.00  0.00    -0.238 C  
HETATM   36  H   UNL     3      -8.912  13.216  69.051  1.00  0.00     0.000 HD 
HETATM   37  O   UNL     3      -8.776  14.018  68.559  1.00  0.00    -0.181 OA 
BRANCH  35  38
HETATM   38  C   UNL     3     -10.677  14.830  69.887  1.00  0.00    -0.113 C  
HETATM   39  C   UNL     3     -12.008  14.036  69.960  1.00  0.00    -0.339 C  
HETATM   40  O   UNL     3     -10.951  16.213  70.189  1.00  0.00    -0.337 OA 
HETATM   41  O   UNL     3     -12.305  13.350  68.932  1.00  0.00    -0.212 OA 
HETATM   42  O   UNL     3     -12.738  14.358  70.937  1.00  0.00    -0.321 OA 
HETATM   43  H   UNL     3     -11.347  16.301  71.048  1.00  0.00     0.000 HD 
ENDBRANCH  35  38
ENDBRANCH  32  35
ENDBRANCH  29  32
ENDBRANCH  26  29
ENDBRANCH   6  26
TORSDOF 10
ENDMDL
MODEL      246
REMARK 921   NORMALIZED FREE ENERGY PREDICTED BY IDOCK:   -5.18 KCAL/MOL
REMARK 922        TOTAL FREE ENERGY PREDICTED BY IDOCK:  -10.71 KCAL/MOL
REMARK 923 INTER-LIGAND FREE ENERGY PREDICTED BY IDOCK:   -9.48 KCAL/MOL
REMARK 924 INTRA-LIGAND FREE ENERGY PREDICTED BY IDOCK:   -1.23 KCAL/MOL
REMARK 927      BINDING AFFINITY PREDICTED BY RF-SCORE:    0.00 PKD
ROOT
HETATM    1 CA   UNL     1      -8.703  11.104  68.372  1.00  0.00    -0.113 Ca 
HETATM    2  O   UNL     2      -5.308   7.311  71.018  1.00  0.00    -0.026 OA 
HETATM    3  O   UNL     3     -12.256  11.512  63.198  1.00  0.00    -0.932 OA 
HETATM    4  H   UNL     2      -4.444   7.637  70.793  1.00  0.00     0.000 HD 
HETATM    5  C   UNL     2      -6.289   8.119  70.371  1.00  0.00    -0.036 C  
HETATM    6  C   UNL     3     -10.957  11.834  63.686  1.00  0.00    -0.439 C  
HETATM    7  H   UNL     3     -12.663  12.280  62.815  1.00  0.00     0.000 HD 
ENDROOT
BRANCH   5   8
HETATM    8  C   UNL     2      -7.692   7.590  70.736  1.00  0.00    -0.083 C  
HETATM    9  O   UNL     2      -7.835   7.655  72.151  1.00  0.00    -0.095 OA 
HETATM   10  H   UNL     2      -8.698   7.329  72.376  1.00  0.00     0.000 HD 
BRANCH   8  11
HETATM   11  C   UNL     2      -8.797   8.453  70.106  1.00  0.00    -0.141 C  
HETATM   12  H   UNL     2      -9.161   9.404  68.374  1.00  0.00     0.000 HD 
HETATM   13  O   UNL     2      -8.478   8.871  68.763  1.00  0.00    -0.128 OA 
BRANCH  11  14
HETATM   14  C   UNL     2     -10.265   7.961  70.140  1.00  0.00    -0.202 C  
HETATM   15  O   UNL     2     -10.811   7.969  68.831  1.00  0.00    -0.405 OA 
HETATM   16  H   UNL     2     -11.712   7.668  68.852  1.00  0.00     0.000 HD 
BRANCH  14  17
HETATM   17  C   UNL     2     -11.190   8.525  71.235  1.00  0.00    -0.265 C  
HETATM   18  H   UNL     2     -11.348   8.295  73.169  1.00  0.00     0.000 HD 
HETATM   19  O   UNL     2     -10.777   7.947  72.493  1.00  0.00    -0.273 OA 
BRANCH  17  20
HETATM   20  C   UNL     2     -11.282  10.049  71.315  1.00  0.00    -0.200 C  
HETATM   21  O   UNL     2     -10.764  10.673  70.120  1.00  0.00    -0.437 OA 
HETATM   22  C   UNL     2     -12.782  10.418  71.487  1.00  0.00    -0.459 C  
HETATM   23  H   UNL     2     -10.821  11.620  70.169  1.00  0.00     0.000 HD 
HETATM   24  O   UNL     2     -13.418   9.652  72.259  1.00  0.00    -0.441 OA 
HETATM   25  O   UNL     2     -13.133  11.417  70.803  1.00  0.00    -0.126 OA 
ENDBRANCH  17  20
ENDBRANCH  14  17
ENDBRANCH  11  14
ENDBRANCH   8  11
ENDBRANCH   5   8
BRANCH   6  26
HETATM   26  C   UNL     3     -10.300  10.593  64.305  1.00  0.00    -0.255 C  
HETATM   27  H   UNL     3      -8.793   9.495  63.850  1.00  0.00     0.000 HD 
HETATM   28  O   UNL     3      -9.200  10.263  63.467  1.00  0.00    -0.242 OA 
BRANCH  26  29
HETATM   29  C   UNL     3      -9.897  10.817  65.787  1.00  0.00    -0.240 C  
HETATM   30  O   UNL     3      -8.506  11.364  65.834  1.00  0.00    -0.321 OA 
HETATM   31  H   UNL     3      -8.259  11.501  66.742  1.00  0.00     0.000 HD 
BRANCH  29  32
HETATM   32  C   UNL     3     -10.709  11.915  66.506  1.00  0.00    -0.258 C  
HETATM   33  H   UNL     3     -12.288  11.925  67.685  1.00  0.00     0.000 HD 
HETATM   34  O   UNL     3     -11.788  11.250  67.241  1.00  0.00    -0.562 OA 
BRANCH  32  35
HETATM   35  C   UNL     3     -11.090  13.274  65.898  1.00  0.00    -0.285 C  
HETATM   36  H   UNL     3     -12.725  14.300  65.774  1.00  0.00     0.000 HD 
HETATM   37  O   UNL     3     -12.489  13.460  66.150  1.00  0.00    -0.398 OA 
BRANCH  35  38
HETATM   38  C   UNL     3     -10.259  14.476  66.332  1.00  0.00    -0.287 C  
HETATM   39  C   UNL     3     -10.555  15.701  65.428  1.00  0.00    -0.415 C  
HETATM   40  O   UNL     3      -8.850  14.182  66.260  1.00  0.00    -0.473 OA 
HETATM   41  O   UNL     3     -11.468  15.544  64.557  1.00  0.00    -0.408 OA 
HETATM   42  O   UNL     3      -9.692  16.618  65.516  1.00  0.00    -0.538 OA 
HETATM   43  H   UNL     3      -8.332  14.931  66.531  1.00  0.00     0.000 HD 
ENDBRANCH  35  38
ENDBRANCH  32  35
ENDBRANCH  29  32
ENDBRANCH  26  29
ENDBRANCH   6  26
TORSDOF 10
ENDMDL
MODEL      247
REMARK 921   NORMALIZED FREE ENERGY PREDICTED BY IDOCK:   -5.14 KCAL/MOL
REMARK 922        TOTAL FREE ENERGY PREDICTED BY IDOCK:  -10.65 KCAL/MOL
REMARK 923 INTER-LIGAND FREE ENERGY PREDICTED BY IDOCK:   -8.71 KCAL/MOL
REMARK 924 INTRA-LIGAND FREE ENERGY PREDICTED BY IDOCK:   -1.93 KCAL/MOL
REMARK 927      BINDING AFFINITY PREDICTED BY RF-SCORE:    0.00 PKD
ROOT
HETATM    1 CA   UNL     1      -7.434   8.800  68.864  1.00  0.00    -0.069 Ca 
HETATM    2  O   UNL     2      -9.073  14.298  68.909  1.00  0.00    -0.330 OA 
HETATM    3  O   UNL     3      -9.580   3.211  66.938  1.00  0.00    -0.382 OA 
HETATM    4  H   UNL     2      -9.348  14.409  69.812  1.00  0.00     0.000 HD 
HETATM    5  C   UNL     2      -8.690  12.939  68.707  1.00  0.00     0.178 C  
HETATM    6  C   UNL     3      -9.507   4.038  68.096  1.00  0.00    -0.158 C  
HETATM    7  H   UNL     3      -9.240   2.345  67.131  1.00  0.00     0.000 HD 
ENDROOT
BRANCH   5   8
HETATM    8  C   UNL     2      -8.245  12.758  67.240  1.00  0.00    -0.181 C  
HETATM    9  O   UNL     2      -7.265  11.726  67.200  1.00  0.00    -0.132 OA 
HETATM   10  H   UNL     2      -6.991  11.615  66.297  1.00  0.00     0.000 HD 
BRANCH   8  11
HETATM   11  C   UNL     2      -9.421  12.334  66.347  1.00  0.00    -0.237 C  
HETATM   12  H   UNL     2     -10.253  10.641  65.654  1.00  0.00     0.000 HD 
HETATM   13  O   UNL     2      -9.525  10.903  66.206  1.00  0.00    -0.183 OA 
BRANCH  11  14
HETATM   14  C   UNL     2     -10.833  12.913  66.615  1.00  0.00    -0.267 C  
HETATM   15  O   UNL     2     -11.706  11.883  67.048  1.00  0.00    -0.538 OA 
HETATM   16  H   UNL     2     -12.572  12.238  67.213  1.00  0.00     0.000 HD 
BRANCH  14  17
HETATM   17  C   UNL     2     -11.428  13.877  65.571  1.00  0.00    -0.316 C  
HETATM   18  H   UNL     2     -11.296  15.794  65.223  1.00  0.00     0.000 HD 
HETATM   19  O   UNL     2     -10.928  15.200  65.867  1.00  0.00    -0.333 OA 
BRANCH  17  20
HETATM   20  C   UNL     2     -11.204  13.500  64.107  1.00  0.00    -0.316 C  
HETATM   21  O   UNL     2      -9.825  13.152  63.856  1.00  0.00    -0.735 OA 
HETATM   22  C   UNL     2     -12.114  12.278  63.794  1.00  0.00    -0.532 C  
HETATM   23  H   UNL     2      -9.686  12.918  62.945  1.00  0.00     0.000 HD 
HETATM   24  O   UNL     2     -13.258  12.338  64.320  1.00  0.00    -0.785 OA 
HETATM   25  O   UNL     2     -11.551  11.405  63.082  1.00  0.00    -0.137 OA 
ENDBRANCH  17  20
ENDBRANCH  14  17
ENDBRANCH  11  14
ENDBRANCH   8  11
ENDBRANCH   5   8
BRANCH   6  26
HETATM   26  C   UNL     3     -10.055   5.437  67.783  1.00  0.00    -0.171 C  
HETATM   27  H   UNL     3     -11.146   6.179  66.389  1.00  0.00     0.000 HD 
HETATM   28  O   UNL     3     -10.806   5.313  66.582  1.00  0.00    -0.258 OA 
BRANCH  26  29
HETATM   29  C   UNL     3     -10.876   6.024  68.962  1.00  0.00    -0.342 C  
HETATM   30  O   UNL     3     -10.331   5.489  70.248  1.00  0.00    -0.234 OA 
HETATM   31  H   UNL     3     -10.833   5.849  70.969  1.00  0.00     0.000 HD 
BRANCH  29  32
HETATM   32  C   UNL     3     -10.721   7.549  69.145  1.00  0.00    -0.151 C  
HETATM   33  H   UNL     3      -9.872   8.992  68.107  1.00  0.00     0.000 HD 
HETATM   34  O   UNL     3      -9.967   8.053  67.994  1.00  0.00    -0.165 OA 
BRANCH  32  35
HETATM   35  C   UNL     3     -10.408   8.252  70.475  1.00  0.00    -0.202 C  
HETATM   36  H   UNL     3      -8.844   8.396  71.604  1.00  0.00     0.000 HD 
HETATM   37  O   UNL     3      -9.038   7.962  70.781  1.00  0.00    -0.149 OA 
BRANCH  35  38
HETATM   38  C   UNL     3     -10.715   9.743  70.551  1.00  0.00    -0.317 C  
HETATM   39  C   UNL     3     -12.113   9.983  71.178  1.00  0.00    -0.380 C  
HETATM   40  O   UNL     3     -10.691  10.342  69.240  1.00  0.00    -0.205 OA 
HETATM   41  O   UNL     3     -12.724   8.948  71.593  1.00  0.00    -0.319 OA 
HETATM   42  O   UNL     3     -12.564  11.146  70.983  1.00  0.00    -0.365 OA 
HETATM   43  H   UNL     3     -10.882  11.271  69.287  1.00  0.00     0.000 HD 
ENDBRANCH  35  38
ENDBRANCH  32  35
ENDBRANCH  29  32
ENDBRANCH  26  29
ENDBRANCH   6  26
TORSDOF 10
ENDMDL
MODEL      248
REMARK 921   NORMALIZED FREE ENERGY PREDICTED BY IDOCK:   -5.14 KCAL/MOL
REMARK 922        TOTAL FREE ENERGY PREDICTED BY IDOCK:  -10.64 KCAL/MOL
REMARK 923 INTER-LIGAND FREE ENERGY PREDICTED BY IDOCK:   -9.25 KCAL/MOL
REMARK 924 INTRA-LIGAND FREE ENERGY PREDICTED BY IDOCK:   -1.39 KCAL/MOL
REMARK 927      BINDING AFFINITY PREDICTED BY RF-SCORE:    0.00 PKD
ROOT
HETATM    1 CA   UNL     1      -9.704   9.952  71.247  1.00  0.00    -0.234 Ca 
HETATM    2  O   UNL     2     -13.234  14.306  70.022  1.00  0.00    -0.344 OA 
HETATM    3  O   UNL     3      -8.082   4.341  68.915  1.00  0.00    -0.072 OA 
HETATM    4  H   UNL     2     -13.940  14.161  70.641  1.00  0.00     0.000 HD 
HETATM    5  C   UNL     2     -12.283  13.251  70.151  1.00  0.00    -0.306 C  
HETATM    6  C   UNL     3      -8.945   4.941  69.877  1.00  0.00    -0.099 C  
HETATM    7  H   UNL     3      -7.564   3.656  69.321  1.00  0.00     0.000 HD 
ENDROOT
BRANCH   5   8
HETATM    8  C   UNL     2     -11.136  13.488  69.146  1.00  0.00    -0.225 C  
HETATM    9  O   UNL     2     -10.783  12.232  68.574  1.00  0.00    -0.223 OA 
HETATM   10  H   UNL     2     -10.076  12.378  67.955  1.00  0.00     0.000 HD 
BRANCH   8  11
HETATM   11  C   UNL     2     -11.574  14.423  68.007  1.00  0.00    -0.327 C  
HETATM   12  H   UNL     2     -11.679  16.395  67.633  1.00  0.00     0.000 HD 
HETATM   13  O   UNL     2     -11.408  15.816  68.337  1.00  0.00    -0.344 OA 
BRANCH  11  14
HETATM   14  C   UNL     2     -11.044  14.182  66.572  1.00  0.00    -0.318 C  
HETATM   15  O   UNL     2     -10.316  15.315  66.127  1.00  0.00    -0.274 OA 
HETATM   16  H   UNL     2      -9.990  15.167  65.246  1.00  0.00     0.000 HD 
BRANCH  14  17
HETATM   17  C   UNL     2     -12.012  13.581  65.536  1.00  0.00    -0.390 C  
HETATM   18  H   UNL     2     -13.826  13.988  64.936  1.00  0.00     0.000 HD 
HETATM   19  O   UNL     2     -13.229  14.359  65.576  1.00  0.00    -0.557 OA 
BRANCH  17  20
HETATM   20  C   UNL     2     -11.471  13.449  64.112  1.00  0.00    -0.383 C  
HETATM   21  O   UNL     2     -10.026  13.449  64.094  1.00  0.00    -0.757 OA 
HETATM   22  C   UNL     2     -11.999  12.106  63.534  1.00  0.00    -0.524 C  
HETATM   23  H   UNL     2      -9.690  13.366  63.209  1.00  0.00     0.000 HD 
HETATM   24  O   UNL     2     -13.193  11.846  63.840  1.00  0.00    -0.626 OA 
HETATM   25  O   UNL     2     -11.136  11.475  62.868  1.00  0.00    -0.033 OA 
ENDBRANCH  17  20
ENDBRANCH  14  17
ENDBRANCH  11  14
ENDBRANCH   8  11
ENDBRANCH   5   8
BRANCH   6  26
HETATM   26  C   UNL     3      -9.781   6.049  69.222  1.00  0.00    -0.142 C  
HETATM   27  H   UNL     3      -9.442   7.862  68.691  1.00  0.00     0.000 HD 
HETATM   28  O   UNL     3      -8.925   7.177  69.097  1.00  0.00    -0.138 OA 
BRANCH  26  29
HETATM   29  C   UNL     3     -10.401   5.597  67.873  1.00  0.00    -0.205 C  
HETATM   30  O   UNL     3     -11.654   6.376  67.629  1.00  0.00    -0.640 OA 
HETATM   31  H   UNL     3     -12.033   6.099  66.803  1.00  0.00     0.000 HD 
BRANCH  29  32
HETATM   32  C   UNL     3      -9.547   5.947  66.634  1.00  0.00    -0.153 C  
HETATM   33  H   UNL     3      -9.511   7.442  65.352  1.00  0.00     0.000 HD 
HETATM   34  O   UNL     3     -10.036   7.227  66.114  1.00  0.00     0.057 OA 
BRANCH  32  35
HETATM   35  C   UNL     3      -9.100   4.945  65.558  1.00  0.00    -0.153 C  
HETATM   36  H   UNL     3      -7.704   3.613  65.435  1.00  0.00     0.000 HD 
HETATM   37  O   UNL     3      -7.980   4.233  66.100  1.00  0.00    -0.097 OA 
BRANCH  35  38
HETATM   38  C   UNL     3     -10.170   4.009  65.006  1.00  0.00    -0.181 C  
HETATM   39  C   UNL     3      -9.921   3.721  63.503  1.00  0.00    -0.177 C  
HETATM   40  O   UNL     3     -11.483   4.585  65.152  1.00  0.00    -1.105 OA 
HETATM   41  O   UNL     3      -8.861   4.218  63.007  1.00  0.00    -0.107 OA 
HETATM   42  O   UNL     3     -10.919   3.227  62.908  1.00  0.00    -0.174 OA 
HETATM   43  H   UNL     3     -12.150   4.002  64.808  1.00  0.00     0.000 HD 
ENDBRANCH  35  38
ENDBRANCH  32  35
ENDBRANCH  29  32
ENDBRANCH  26  29
ENDBRANCH   6  26
TORSDOF 10
ENDMDL
MODEL      249
REMARK 921   NORMALIZED FREE ENERGY PREDICTED BY IDOCK:   -5.13 KCAL/MOL
REMARK 922        TOTAL FREE ENERGY PREDICTED BY IDOCK:  -10.62 KCAL/MOL
REMARK 923 INTER-LIGAND FREE ENERGY PREDICTED BY IDOCK:   -9.79 KCAL/MOL
REMARK 924 INTRA-LIGAND FREE ENERGY PREDICTED BY IDOCK:   -0.83 KCAL/MOL
REMARK 927      BINDING AFFINITY PREDICTED BY RF-SCORE:    0.00 PKD
ROOT
HETATM    1 CA   UNL     1      -8.042  15.232  65.763  1.00  0.00    -0.330 Ca 
HETATM    2  O   UNL     2     -11.733  11.922  62.875  1.00  0.00    -0.636 OA 
HETATM    3  O   UNL     3      -7.177  21.306  67.148  1.00  0.00    -0.697 OA 
HETATM    4  H   UNL     2     -11.247  11.742  62.078  1.00  0.00     0.000 HD 
HETATM    5  C   UNL     2     -10.968  12.806  63.693  1.00  0.00    -0.358 C  
HETATM    6  C   UNL     3      -6.766  20.304  66.220  1.00  0.00    -0.233 C  
HETATM    7  H   UNL     3      -6.417  21.725  67.535  1.00  0.00     0.000 HD 
ENDROOT
BRANCH   5   8
HETATM    8  C   UNL     2     -11.758  13.097  64.987  1.00  0.00    -0.337 C  
HETATM    9  O   UNL     2     -13.106  12.689  64.784  1.00  0.00    -0.852 OA 
HETATM   10  H   UNL     2     -13.592  12.869  65.580  1.00  0.00     0.000 HD 
BRANCH   8  11
HETATM   11  C   UNL     2     -11.194  12.302  66.176  1.00  0.00    -0.328 C  
HETATM   12  H   UNL     2      -9.494  12.188  67.241  1.00  0.00     0.000 HD 
HETATM   13  O   UNL     2      -9.842  12.679  66.507  1.00  0.00    -0.243 OA 
BRANCH  11  14
HETATM   14  C   UNL     2     -12.017  12.195  67.484  1.00  0.00    -0.105 C  
HETATM   15  O   UNL     2     -12.027  13.444  68.155  1.00  0.00    -0.349 OA 
HETATM   16  H   UNL     2     -12.532  13.378  68.957  1.00  0.00     0.000 HD 
BRANCH  14  17
HETATM   17  C   UNL     2     -11.779  10.971  68.388  1.00  0.00    -0.259 C  
HETATM   18  H   UNL     2     -10.692   9.352  68.271  1.00  0.00     0.000 HD 
HETATM   19  O   UNL     2     -10.838  10.107  67.713  1.00  0.00    -0.259 OA 
BRANCH  17  20
HETATM   20  C   UNL     2     -11.343  11.273  69.822  1.00  0.00    -0.271 C  
HETATM   21  O   UNL     2     -12.202  12.257  70.440  1.00  0.00    -0.342 OA 
HETATM   22  C   UNL     2     -11.416   9.942  70.623  1.00  0.00    -0.334 C  
HETATM   23  H   UNL     2     -11.931  12.444  71.331  1.00  0.00     0.000 HD 
HETATM   24  O   UNL     2     -11.018   8.932  69.984  1.00  0.00    -0.236 OA 
HETATM   25  O   UNL     2     -11.888  10.082  71.783  1.00  0.00    -0.323 OA 
ENDBRANCH  17  20
ENDBRANCH  14  17
ENDBRANCH  11  14
ENDBRANCH   8  11
ENDBRANCH   5   8
BRANCH   6  26
HETATM   26  C   UNL     3      -7.994  19.627  65.594  1.00  0.00     0.004 C  
HETATM   27  H   UNL     3      -8.405  17.842  65.022  1.00  0.00     0.000 HD 
HETATM   28  O   UNL     3      -7.646  18.261  65.409  1.00  0.00    -0.434 OA 
BRANCH  26  29
HETATM   29  C   UNL     3      -9.274  19.823  66.449  1.00  0.00    -0.389 C  
HETATM   30  O   UNL     3     -10.410  20.184  65.547  1.00  0.00    -0.397 OA 
HETATM   31  H   UNL     3     -11.194  20.305  66.071  1.00  0.00     0.000 HD 
BRANCH  29  32
HETATM   32  C   UNL     3      -9.786  18.535  67.129  1.00  0.00    -0.319 C  
HETATM   33  H   UNL     3     -11.410  17.432  66.963  1.00  0.00     0.000 HD 
HETATM   34  O   UNL     3     -11.094  18.225  66.546  1.00  0.00     0.089 OA 
BRANCH  32  35
HETATM   35  C   UNL     3      -9.659  18.215  68.626  1.00  0.00    -0.331 C  
HETATM   36  H   UNL     3     -10.032  19.179  70.261  1.00  0.00     0.000 HD 
HETATM   37  O   UNL     3     -10.111  19.377  69.335  1.00  0.00    -0.327 OA 
BRANCH  35  38
HETATM   38  C   UNL     3     -10.336  16.939  69.115  1.00  0.00    -0.319 C  
HETATM   39  C   UNL     3      -9.336  15.753  69.108  1.00  0.00    -0.258 C  
HETATM   40  O   UNL     3     -11.458  16.599  68.277  1.00  0.00    -0.236 OA 
HETATM   41  O   UNL     3      -8.137  16.035  68.792  1.00  0.00    -0.184 OA 
HETATM   42  O   UNL     3      -9.890  14.622  69.188  1.00  0.00    -0.202 OA 
HETATM   43  H   UNL     3     -11.880  15.804  68.581  1.00  0.00     0.000 HD 
ENDBRANCH  35  38
ENDBRANCH  32  35
ENDBRANCH  29  32
ENDBRANCH  26  29
ENDBRANCH   6  26
TORSDOF 10
ENDMDL
MODEL      250
REMARK 921   NORMALIZED FREE ENERGY PREDICTED BY IDOCK:   -5.12 KCAL/MOL
REMARK 922        TOTAL FREE ENERGY PREDICTED BY IDOCK:  -10.61 KCAL/MOL
REMARK 923 INTER-LIGAND FREE ENERGY PREDICTED BY IDOCK:   -7.70 KCAL/MOL
REMARK 924 INTRA-LIGAND FREE ENERGY PREDICTED BY IDOCK:   -2.92 KCAL/MOL
REMARK 927      BINDING AFFINITY PREDICTED BY RF-SCORE:    0.00 PKD
ROOT
HETATM    1 CA   UNL     1      -7.111   6.027  66.398  1.00  0.00    -0.054 Ca 
HETATM    2  O   UNL     2      -6.712  10.910  63.411  1.00  0.00    -0.342 OA 
HETATM    3  O   UNL     3      -8.742   4.091  72.155  1.00  0.00    -0.102 OA 
HETATM    4  H   UNL     2      -5.774  11.065  63.421  1.00  0.00     0.000 HD 
HETATM    5  C   UNL     2      -6.995   9.744  64.184  1.00  0.00    -0.123 C  
HETATM    6  C   UNL     3      -7.600   4.440  71.379  1.00  0.00    -0.072 C  
HETATM    7  H   UNL     3      -8.621   3.237  72.552  1.00  0.00     0.000 HD 
ENDROOT
BRANCH   5   8
HETATM    8  C   UNL     2      -8.518   9.493  64.167  1.00  0.00    -0.186 C  
HETATM    9  O   UNL     2      -8.751   8.165  64.624  1.00  0.00    -0.395 OA 
HETATM   10  H   UNL     2      -9.689   8.010  64.614  1.00  0.00     0.000 HD 
BRANCH   8  11
HETATM   11  C   UNL     2      -9.253  10.458  65.111  1.00  0.00    -0.208 C  
HETATM   12  H   UNL     2      -8.906  11.442  66.828  1.00  0.00     0.000 HD 
HETATM   13  O   UNL     2      -8.452  10.846  66.245  1.00  0.00    -0.156 OA 
BRANCH  11  14
HETATM   14  C   UNL     2      -9.942  11.718  64.532  1.00  0.00    -0.242 C  
HETATM   15  O   UNL     2      -9.343  12.074  63.296  1.00  0.00    -0.651 OA 
HETATM   16  H   UNL     2      -9.766  12.848  62.941  1.00  0.00     0.000 HD 
BRANCH  14  17
HETATM   17  C   UNL     2     -10.216  12.895  65.487  1.00  0.00    -0.287 C  
HETATM   18  H   UNL     2     -10.211  14.842  65.322  1.00  0.00     0.000 HD 
HETATM   19  O   UNL     2     -10.042  14.115  64.733  1.00  0.00    -0.374 OA 
BRANCH  17  20
HETATM   20  C   UNL     2     -11.559  12.866  66.217  1.00  0.00    -0.372 C  
HETATM   21  O   UNL     2     -12.539  12.093  65.491  1.00  0.00    -0.444 OA 
HETATM   22  C   UNL     2     -11.319  12.224  67.612  1.00  0.00    -0.311 C  
HETATM   23  H   UNL     2     -13.374  12.075  65.944  1.00  0.00     0.000 HD 
HETATM   24  O   UNL     2     -10.245  12.580  68.167  1.00  0.00    -0.217 OA 
HETATM   25  O   UNL     2     -12.230  11.426  67.959  1.00  0.00    -0.607 OA 
ENDBRANCH  17  20
ENDBRANCH  14  17
ENDBRANCH  11  14
ENDBRANCH   8  11
ENDBRANCH   5   8
BRANCH   6  26
HETATM   26  C   UNL     3      -7.796   5.821  70.738  1.00  0.00    -0.101 C  
HETATM   27  H   UNL     3      -8.110   6.449  68.952  1.00  0.00     0.000 HD 
HETATM   28  O   UNL     3      -7.989   5.594  69.348  1.00  0.00    -0.096 OA 
BRANCH  26  29
HETATM   29  C   UNL     3      -8.954   6.616  71.396  1.00  0.00    -0.139 C  
HETATM   30  O   UNL     3      -8.588   6.928  72.812  1.00  0.00    -0.120 OA 
HETATM   31  H   UNL     3      -9.297   7.414  73.215  1.00  0.00     0.000 HD 
BRANCH  29  32
HETATM   32  C   UNL     3      -9.182   8.020  70.796  1.00  0.00    -0.157 C  
HETATM   33  H   UNL     3      -8.850   9.862  71.411  1.00  0.00     0.000 HD 
HETATM   34  O   UNL     3      -8.710   8.998  71.781  1.00  0.00    -0.350 OA 
BRANCH  32  35
HETATM   35  C   UNL     3     -10.428   8.453  70.008  1.00  0.00    -0.224 C  
HETATM   36  H   UNL     3     -11.625   9.970  70.079  1.00  0.00     0.000 HD 
HETATM   37  O   UNL     3     -10.854   9.703  70.567  1.00  0.00    -0.260 OA 
BRANCH  35  38
HETATM   38  C   UNL     3     -10.292   8.514  68.491  1.00  0.00    -0.198 C  
HETATM   39  C   UNL     3     -10.717   7.167  67.850  1.00  0.00    -0.192 C  
HETATM   40  O   UNL     3      -8.932   8.797  68.106  1.00  0.00    -0.140 OA 
HETATM   41  O   UNL     3     -11.175   6.289  68.647  1.00  0.00    -0.356 OA 
HETATM   42  O   UNL     3     -10.336   7.031  66.654  1.00  0.00    -0.218 OA 
HETATM   43  H   UNL     3      -8.848   8.835  67.160  1.00  0.00     0.000 HD 
ENDBRANCH  35  38
ENDBRANCH  32  35
ENDBRANCH  29  32
ENDBRANCH  26  29
ENDBRANCH   6  26
TORSDOF 10
ENDMDL
MODEL      251
REMARK 921   NORMALIZED FREE ENERGY PREDICTED BY IDOCK:   -5.12 KCAL/MOL
REMARK 922        TOTAL FREE ENERGY PREDICTED BY IDOCK:  -10.61 KCAL/MOL
REMARK 923 INTER-LIGAND FREE ENERGY PREDICTED BY IDOCK:   -7.61 KCAL/MOL
REMARK 924 INTRA-LIGAND FREE ENERGY PREDICTED BY IDOCK:   -3.01 KCAL/MOL
REMARK 927      BINDING AFFINITY PREDICTED BY RF-SCORE:    0.00 PKD
ROOT
HETATM    1 CA   UNL     1      -7.773  12.444  66.019  1.00  0.00    -0.357 Ca 
HETATM    2  O   UNL     2      -9.213   6.952  66.847  1.00  0.00    -0.134 OA 
HETATM    3  O   UNL     3      -8.129  17.961  69.018  1.00  0.00    -0.184 OA 
HETATM    4  H   UNL     2      -9.991   6.874  66.307  1.00  0.00     0.000 HD 
HETATM    5  C   UNL     2      -8.756   8.303  66.806  1.00  0.00    -0.133 C  
HETATM    6  C   UNL     3      -8.810  17.177  68.042  1.00  0.00    -0.229 C  
HETATM    7  H   UNL     3      -7.963  18.833  68.680  1.00  0.00     0.000 HD 
ENDROOT
BRANCH   5   8
HETATM    8  C   UNL     2      -7.492   8.429  67.683  1.00  0.00    -0.094 C  
HETATM    9  O   UNL     2      -7.005   9.762  67.566  1.00  0.00    -0.081 OA 
HETATM   10  H   UNL     2      -6.227   9.840  68.106  1.00  0.00     0.000 HD 
BRANCH   8  11
HETATM   11  C   UNL     2      -7.811   8.166  69.163  1.00  0.00    -0.107 C  
HETATM   12  H   UNL     2      -6.823   7.838  70.882  1.00  0.00     0.000 HD 
HETATM   13  O   UNL     2      -6.626   8.000  69.967  1.00  0.00    -0.039 OA 
BRANCH  11  14
HETATM   14  C   UNL     2      -8.795   9.100  69.911  1.00  0.00    -0.169 C  
HETATM   15  O   UNL     2      -8.081  10.148  70.547  1.00  0.00    -0.416 OA 
HETATM   16  H   UNL     2      -8.685  10.721  71.006  1.00  0.00     0.000 HD 
BRANCH  14  17
HETATM   17  C   UNL     2      -9.898   8.450  70.767  1.00  0.00    -0.182 C  
HETATM   18  H   UNL     2     -10.840   8.929  72.410  1.00  0.00     0.000 HD 
HETATM   19  O   UNL     2     -10.159   9.331  71.882  1.00  0.00    -0.250 OA 
BRANCH  17  20
HETATM   20  C   UNL     2     -11.183   8.074  70.029  1.00  0.00    -0.090 C  
HETATM   21  O   UNL     2     -11.233   8.672  68.715  1.00  0.00    -0.394 OA 
HETATM   22  C   UNL     2     -11.212   6.525  69.898  1.00  0.00    -0.395 C  
HETATM   23  H   UNL     2     -12.031   8.438  68.257  1.00  0.00     0.000 HD 
HETATM   24  O   UNL     2     -10.804   5.913  70.921  1.00  0.00    -0.265 OA 
HETATM   25  O   UNL     2     -11.616   6.126  68.774  1.00  0.00    -0.110 OA 
ENDBRANCH  17  20
ENDBRANCH  14  17
ENDBRANCH  11  14
ENDBRANCH   8  11
ENDBRANCH   5   8
BRANCH   6  26
HETATM   26  C   UNL     3      -9.078  15.767  68.588  1.00  0.00    -0.204 C  
HETATM   27  H   UNL     3     -10.500  14.956  69.591  1.00  0.00     0.000 HD 
HETATM   28  O   UNL     3     -10.334  15.828  69.253  1.00  0.00    -0.212 OA 
BRANCH  26  29
HETATM   29  C   UNL     3      -9.025  14.686  67.477  1.00  0.00    -0.190 C  
HETATM   30  O   UNL     3      -7.595  14.363  67.181  1.00  0.00    -0.311 OA 
HETATM   31  H   UNL     3      -7.562  13.701  66.500  1.00  0.00     0.000 HD 
BRANCH  29  32
HETATM   32  C   UNL     3      -9.593  13.314  67.899  1.00  0.00    -0.217 C  
HETATM   33  H   UNL     3      -8.848  11.712  68.771  1.00  0.00     0.000 HD 
HETATM   34  O   UNL     3      -8.498  12.556  68.510  1.00  0.00    -0.146 OA 
BRANCH  32  35
HETATM   35  C   UNL     3     -10.572  12.469  67.068  1.00  0.00    -0.232 C  
HETATM   36  H   UNL     3     -11.036  10.593  67.003  1.00  0.00     0.000 HD 
HETATM   37  O   UNL     3     -10.430  11.115  67.517  1.00  0.00    -0.188 OA 
BRANCH  35  38
HETATM   38  C   UNL     3     -12.027  12.925  67.052  1.00  0.00    -0.325 C  
HETATM   39  C   UNL     3     -12.459  13.324  65.617  1.00  0.00    -0.451 C  
HETATM   40  O   UNL     3     -12.222  14.057  67.922  1.00  0.00    -0.502 OA 
HETATM   41  O   UNL     3     -11.597  13.136  64.702  1.00  0.00    -0.320 OA 
HETATM   42  O   UNL     3     -13.524  14.001  65.577  1.00  0.00    -0.677 OA 
HETATM   43  H   UNL     3     -13.129  14.341  67.913  1.00  0.00     0.000 HD 
ENDBRANCH  35  38
ENDBRANCH  32  35
ENDBRANCH  29  32
ENDBRANCH  26  29
ENDBRANCH   6  26
TORSDOF 10
ENDMDL
MODEL      252
REMARK 921   NORMALIZED FREE ENERGY PREDICTED BY IDOCK:   -5.12 KCAL/MOL
REMARK 922        TOTAL FREE ENERGY PREDICTED BY IDOCK:  -10.61 KCAL/MOL
REMARK 923 INTER-LIGAND FREE ENERGY PREDICTED BY IDOCK:   -7.79 KCAL/MOL
REMARK 924 INTRA-LIGAND FREE ENERGY PREDICTED BY IDOCK:   -2.82 KCAL/MOL
REMARK 927      BINDING AFFINITY PREDICTED BY RF-SCORE:    0.00 PKD
ROOT
HETATM    1 CA   UNL     1      -8.149  13.323  66.082  1.00  0.00    -0.382 Ca 
HETATM    2  O   UNL     2     -11.160   8.765  67.836  1.00  0.00    -0.487 OA 
HETATM    3  O   UNL     3      -6.556  19.050  68.135  1.00  0.00    -0.222 OA 
HETATM    4  H   UNL     2     -11.961   8.858  67.333  1.00  0.00     0.000 HD 
HETATM    5  C   UNL     2     -10.310   9.877  67.563  1.00  0.00    -0.236 C  
HETATM    6  C   UNL     3      -7.515  18.386  67.317  1.00  0.00    -0.217 C  
HETATM    7  H   UNL     3      -6.152  19.762  67.655  1.00  0.00     0.000 HD 
ENDROOT
BRANCH   5   8
HETATM    8  C   UNL     2      -9.009   9.725  68.380  1.00  0.00    -0.123 C  
HETATM    9  O   UNL     2      -8.308  10.963  68.329  1.00  0.00    -0.117 OA 
HETATM   10  H   UNL     2      -7.507  10.869  68.832  1.00  0.00     0.000 HD 
BRANCH   8  11
HETATM   11  C   UNL     2      -9.310   9.407  69.853  1.00  0.00    -0.214 C  
HETATM   12  H   UNL     2     -10.762   9.741  71.201  1.00  0.00     0.000 HD 
HETATM   13  O   UNL     2     -10.577   9.937  70.290  1.00  0.00    -0.265 OA 
BRANCH  11  14
HETATM   14  C   UNL     2      -9.175   7.951  70.364  1.00  0.00    -0.158 C  
HETATM   15  O   UNL     2     -10.229   7.155  69.846  1.00  0.00    -0.198 OA 
HETATM   16  H   UNL     2     -10.146   6.262  70.160  1.00  0.00     0.000 HD 
BRANCH  14  17
HETATM   17  C   UNL     2      -8.869   7.735  71.858  1.00  0.00    -0.121 C  
HETATM   18  H   UNL     2      -7.939   8.752  73.242  1.00  0.00     0.000 HD 
HETATM   19  O   UNL     2      -8.128   8.886  72.320  1.00  0.00    -0.376 OA 
BRANCH  17  20
HETATM   20  C   UNL     2     -10.074   7.440  72.752  1.00  0.00    -0.224 C  
HETATM   21  O   UNL     2     -11.263   8.107  72.274  1.00  0.00    -0.305 OA 
HETATM   22  C   UNL     2     -10.299   5.902  72.742  1.00  0.00    -0.196 C  
HETATM   23  H   UNL     2     -12.011   7.924  72.830  1.00  0.00     0.000 HD 
HETATM   24  O   UNL     2      -9.237   5.224  72.777  1.00  0.00    -0.133 OA 
HETATM   25  O   UNL     2     -11.514   5.575  72.674  1.00  0.00    -0.296 OA 
ENDBRANCH  17  20
ENDBRANCH  14  17
ENDBRANCH  11  14
ENDBRANCH   8  11
ENDBRANCH   5   8
BRANCH   6  26
HETATM   26  C   UNL     3      -8.168  17.234  68.094  1.00  0.00    -0.231 C  
HETATM   27  H   UNL     3      -9.154  17.101  69.734  1.00  0.00     0.000 HD 
HETATM   28  O   UNL     3      -8.750  17.813  69.254  1.00  0.00     0.060 OA 
BRANCH  26  29
HETATM   29  C   UNL     3      -9.182  16.441  67.228  1.00  0.00    -0.215 C  
HETATM   30  O   UNL     3      -8.444  15.741  66.133  1.00  0.00    -0.340 OA 
HETATM   31  H   UNL     3      -9.066  15.255  65.603  1.00  0.00     0.000 HD 
BRANCH  29  32
HETATM   32  C   UNL     3      -9.868  15.271  67.967  1.00  0.00    -0.216 C  
HETATM   33  H   UNL     3      -9.292  13.490  68.579  1.00  0.00     0.000 HD 
HETATM   34  O   UNL     3      -8.871  14.210  68.124  1.00  0.00    -0.168 OA 
BRANCH  32  35
HETATM   35  C   UNL     3     -11.298  14.775  67.699  1.00  0.00    -0.339 C  
HETATM   36  H   UNL     3     -12.188  13.927  66.206  1.00  0.00     0.000 HD 
HETATM   37  O   UNL     3     -11.304  14.234  66.372  1.00  0.00    -0.325 OA 
BRANCH  35  38
HETATM   38  C   UNL     3     -11.889  13.809  68.720  1.00  0.00    -0.363 C  
HETATM   39  C   UNL     3     -12.344  14.570  69.993  1.00  0.00    -0.323 C  
HETATM   40  O   UNL     3     -10.925  12.809  69.103  1.00  0.00    -0.359 OA 
HETATM   41  O   UNL     3     -12.237  15.836  69.955  1.00  0.00    -0.352 OA 
HETATM   42  O   UNL     3     -12.542  13.820  70.989  1.00  0.00    -0.341 OA 
HETATM   43  H   UNL     3     -11.293  12.207  69.739  1.00  0.00     0.000 HD 
ENDBRANCH  35  38
ENDBRANCH  32  35
ENDBRANCH  29  32
ENDBRANCH  26  29
ENDBRANCH   6  26
TORSDOF 10
ENDMDL
MODEL      253
REMARK 921   NORMALIZED FREE ENERGY PREDICTED BY IDOCK:   -5.11 KCAL/MOL
REMARK 922        TOTAL FREE ENERGY PREDICTED BY IDOCK:  -10.60 KCAL/MOL
REMARK 923 INTER-LIGAND FREE ENERGY PREDICTED BY IDOCK:   -9.10 KCAL/MOL
REMARK 924 INTRA-LIGAND FREE ENERGY PREDICTED BY IDOCK:   -1.50 KCAL/MOL
REMARK 927      BINDING AFFINITY PREDICTED BY RF-SCORE:    0.00 PKD
ROOT
HETATM    1 CA   UNL     1     -12.021   9.651  67.461  1.00  0.00    -0.444 Ca 
HETATM    2  O   UNL     2     -12.793   8.248  72.971  1.00  0.00    -0.654 OA 
HETATM    3  O   UNL     3     -11.811  14.793  63.846  1.00  0.00    -0.765 OA 
HETATM    4  H   UNL     2     -13.690   7.936  72.965  1.00  0.00     0.000 HD 
HETATM    5  C   UNL     2     -12.456   8.708  71.663  1.00  0.00    -0.335 C  
HETATM    6  C   UNL     3     -12.702  13.766  64.272  1.00  0.00     0.026 C  
HETATM    7  H   UNL     3     -11.810  14.854  62.898  1.00  0.00     0.000 HD 
ENDROOT
BRANCH   5   8
HETATM    8  C   UNL     2     -10.998   9.214  71.672  1.00  0.00    -0.374 C  
HETATM    9  O   UNL     2     -10.310   8.560  72.733  1.00  0.00    -0.252 OA 
HETATM   10  H   UNL     2      -9.412   8.872  72.738  1.00  0.00     0.000 HD 
BRANCH   8  11
HETATM   11  C   UNL     2     -10.280   8.873  70.356  1.00  0.00    -0.200 C  
HETATM   12  H   UNL     2      -8.838   9.638  69.185  1.00  0.00     0.000 HD 
HETATM   13  O   UNL     2      -9.282   9.848  69.998  1.00  0.00    -0.226 OA 
BRANCH  11  14
HETATM   14  C   UNL     2      -9.690   7.456  70.152  1.00  0.00    -0.175 C  
HETATM   15  O   UNL     2      -8.711   7.480  69.126  1.00  0.00    -0.135 OA 
HETATM   16  H   UNL     2      -8.349   6.610  69.001  1.00  0.00     0.000 HD 
BRANCH  14  17
HETATM   17  C   UNL     2     -10.668   6.267  70.093  1.00  0.00    -0.286 C  
HETATM   18  H   UNL     2     -11.652   5.354  68.674  1.00  0.00     0.000 HD 
HETATM   19  O   UNL     2     -11.048   6.087  68.710  1.00  0.00    -0.336 OA 
BRANCH  17  20
HETATM   20  C   UNL     2     -10.175   4.963  70.719  1.00  0.00    -0.206 C  
HETATM   21  O   UNL     2      -8.769   4.751  70.464  1.00  0.00    -0.099 OA 
HETATM   22  C   UNL     2     -10.417   5.060  72.252  1.00  0.00    -0.214 C  
HETATM   23  H   UNL     2      -8.463   3.940  70.854  1.00  0.00     0.000 HD 
HETATM   24  O   UNL     2     -11.508   5.603  72.569  1.00  0.00    -0.294 OA 
HETATM   25  O   UNL     2      -9.466   4.599  72.939  1.00  0.00    -0.129 OA 
ENDBRANCH  17  20
ENDBRANCH  14  17
ENDBRANCH  11  14
ENDBRANCH   8  11
ENDBRANCH   5   8
BRANCH   6  26
HETATM   26  C   UNL     3     -12.703  13.668  65.804  1.00  0.00    -0.416 C  
HETATM   27  H   UNL     3     -12.407  12.254  67.067  1.00  0.00     0.000 HD 
HETATM   28  O   UNL     3     -12.406  12.314  66.119  1.00  0.00    -0.588 OA 
BRANCH  26  29
HETATM   29  C   UNL     3     -11.725  14.679  66.459  1.00  0.00    -0.325 C  
HETATM   30  O   UNL     3     -12.172  14.949  67.860  1.00  0.00    -0.559 OA 
HETATM   31  H   UNL     3     -11.573  15.568  68.261  1.00  0.00     0.000 HD 
BRANCH  29  32
HETATM   32  C   UNL     3     -10.295  14.135  66.666  1.00  0.00    -0.277 C  
HETATM   33  H   UNL     3      -9.083  12.988  65.620  1.00  0.00     0.000 HD 
HETATM   34  O   UNL     3      -9.963  13.322  65.493  1.00  0.00    -0.273 OA 
BRANCH  32  35
HETATM   35  C   UNL     3      -9.737  13.603  67.995  1.00  0.00    -0.226 C  
HETATM   36  H   UNL     3      -9.416  11.843  68.730  1.00  0.00     0.000 HD 
HETATM   37  O   UNL     3      -9.762  12.172  67.909  1.00  0.00    -0.188 OA 
BRANCH  35  38
HETATM   38  C   UNL     3      -8.373  14.132  68.426  1.00  0.00    -0.161 C  
HETATM   39  C   UNL     3      -8.524  15.478  69.183  1.00  0.00    -0.248 C  
HETATM   40  O   UNL     3      -7.517  14.340  67.285  1.00  0.00    -0.268 OA 
HETATM   41  O   UNL     3      -9.714  15.870  69.393  1.00  0.00    -0.248 OA 
HETATM   42  O   UNL     3      -7.445  16.125  69.286  1.00  0.00    -0.220 OA 
HETATM   43  H   UNL     3      -6.667  14.670  67.554  1.00  0.00     0.000 HD 
ENDBRANCH  35  38
ENDBRANCH  32  35
ENDBRANCH  29  32
ENDBRANCH  26  29
ENDBRANCH   6  26
TORSDOF 10
ENDMDL
MODEL      254
REMARK 921   NORMALIZED FREE ENERGY PREDICTED BY IDOCK:   -5.10 KCAL/MOL
REMARK 922        TOTAL FREE ENERGY PREDICTED BY IDOCK:  -10.58 KCAL/MOL
REMARK 923 INTER-LIGAND FREE ENERGY PREDICTED BY IDOCK:   -7.07 KCAL/MOL
REMARK 924 INTRA-LIGAND FREE ENERGY PREDICTED BY IDOCK:   -3.51 KCAL/MOL
REMARK 927      BINDING AFFINITY PREDICTED BY RF-SCORE:    0.00 PKD
ROOT
HETATM    1 CA   UNL     1     -12.233  12.068  68.322  1.00  0.00    -0.289 Ca 
HETATM    2  O   UNL     2     -12.508  13.108  62.686  1.00  0.00    -0.434 OA 
HETATM    3  O   UNL     3      -8.679   8.862  72.401  1.00  0.00    -0.400 OA 
HETATM    4  H   UNL     2     -13.217  12.535  62.420  1.00  0.00     0.000 HD 
HETATM    5  C   UNL     2     -12.260  12.919  64.078  1.00  0.00    -0.426 C  
HETATM    6  C   UNL     3      -9.881   8.752  71.645  1.00  0.00    -0.308 C  
HETATM    7  H   UNL     3      -8.848   8.672  73.316  1.00  0.00     0.000 HD 
ENDROOT
BRANCH   5   8
HETATM    8  C   UNL     2     -11.108  13.850  64.511  1.00  0.00    -0.366 C  
HETATM    9  O   UNL     2     -11.611  14.749  65.494  1.00  0.00    -0.342 OA 
HETATM   10  H   UNL     2     -10.901  15.322  65.761  1.00  0.00     0.000 HD 
BRANCH   8  11
HETATM   11  C   UNL     2      -9.953  13.054  65.140  1.00  0.00    -0.152 C  
HETATM   12  H   UNL     2      -8.720  13.182  66.721  1.00  0.00     0.000 HD 
HETATM   13  O   UNL     2      -9.434  13.674  66.333  1.00  0.00    -0.273 OA 
BRANCH  11  14
HETATM   14  C   UNL     2     -10.122  11.537  65.399  1.00  0.00    -0.260 C  
HETATM   15  O   UNL     2     -10.177  11.285  66.794  1.00  0.00    -0.212 OA 
HETATM   16  H   UNL     2     -10.281  10.354  66.953  1.00  0.00     0.000 HD 
BRANCH  14  17
HETATM   17  C   UNL     2      -9.239  10.563  64.596  1.00  0.00    -0.235 C  
HETATM   18  H   UNL     2      -8.801  10.327  62.707  1.00  0.00     0.000 HD 
HETATM   19  O   UNL     2      -9.347  10.928  63.202  1.00  0.00    -0.255 OA 
BRANCH  17  20
HETATM   20  C   UNL     2      -7.781  10.458  65.043  1.00  0.00    -0.095 C  
HETATM   21  O   UNL     2      -7.448  11.481  66.007  1.00  0.00    -0.367 OA 
HETATM   22  C   UNL     2      -7.589   9.055  65.686  1.00  0.00    -0.086 C  
HETATM   23  H   UNL     2      -6.542  11.415  66.285  1.00  0.00     0.000 HD 
HETATM   24  O   UNL     2      -8.190   8.125  65.085  1.00  0.00    -0.141 OA 
HETATM   25  O   UNL     2      -6.878   9.074  66.726  1.00  0.00    -0.078 OA 
ENDBRANCH  17  20
ENDBRANCH  14  17
ENDBRANCH  11  14
ENDBRANCH   8  11
ENDBRANCH   5   8
BRANCH   6  26
HETATM   26  C   UNL     3      -9.607   9.059  70.166  1.00  0.00    -0.193 C  
HETATM   27  H   UNL     3      -8.157   8.705  68.960  1.00  0.00     0.000 HD 
HETATM   28  O   UNL     3      -8.326   8.516  69.875  1.00  0.00    -0.117 OA 
BRANCH  26  29
HETATM   29  C   UNL     3     -10.727   8.522  69.236  1.00  0.00    -0.133 C  
HETATM   30  O   UNL     3     -11.414   9.678  68.583  1.00  0.00    -0.481 OA 
HETATM   31  H   UNL     3     -12.100   9.349  68.014  1.00  0.00     0.000 HD 
BRANCH  29  32
HETATM   32  C   UNL     3     -10.212   7.715  68.024  1.00  0.00    -0.202 C  
HETATM   33  H   UNL     3     -10.379   7.891  66.069  1.00  0.00     0.000 HD 
HETATM   34  O   UNL     3     -10.696   8.387  66.815  1.00  0.00    -0.249 OA 
BRANCH  32  35
HETATM   35  C   UNL     3     -10.175   6.182  67.935  1.00  0.00    -0.175 C  
HETATM   36  H   UNL     3     -10.778   4.878  66.639  1.00  0.00     0.000 HD 
HETATM   37  O   UNL     3     -10.801   5.827  66.695  1.00  0.00    -0.297 OA 
BRANCH  35  38
HETATM   38  C   UNL     3      -8.813   5.518  68.106  1.00  0.00    -0.105 C  
HETATM   39  C   UNL     3      -8.563   5.160  69.595  1.00  0.00    -0.092 C  
HETATM   40  O   UNL     3      -7.755   6.390  67.660  1.00  0.00    -0.099 OA 
HETATM   41  O   UNL     3      -9.526   5.387  70.393  1.00  0.00    -0.153 OA 
HETATM   42  O   UNL     3      -7.355   4.909  69.860  1.00  0.00    -0.053 OA 
HETATM   43  H   UNL     3      -6.907   5.977  67.767  1.00  0.00     0.000 HD 
ENDBRANCH  35  38
ENDBRANCH  32  35
ENDBRANCH  29  32
ENDBRANCH  26  29
ENDBRANCH   6  26
TORSDOF 10
ENDMDL
MODEL      255
REMARK 921   NORMALIZED FREE ENERGY PREDICTED BY IDOCK:   -5.09 KCAL/MOL
REMARK 922        TOTAL FREE ENERGY PREDICTED BY IDOCK:  -10.57 KCAL/MOL
REMARK 923 INTER-LIGAND FREE ENERGY PREDICTED BY IDOCK:   -8.15 KCAL/MOL
REMARK 924 INTRA-LIGAND FREE ENERGY PREDICTED BY IDOCK:   -2.42 KCAL/MOL
REMARK 927      BINDING AFFINITY PREDICTED BY RF-SCORE:    0.00 PKD
ROOT
HETATM    1 CA   UNL     1     -11.366  10.739  64.118  1.00  0.00    -0.344 Ca 
HETATM    2  O   UNL     2     -11.648  16.459  63.761  1.00  0.00    -1.605 OA 
HETATM    3  O   UNL     3      -7.366   6.283  66.044  1.00  0.00    -0.077 OA 
HETATM    4  H   UNL     2     -11.486  16.601  62.836  1.00  0.00     0.000 HD 
HETATM    5  C   UNL     2     -11.544  15.063  64.038  1.00  0.00     0.135 C  
HETATM    6  C   UNL     3      -7.786   6.972  64.869  1.00  0.00    -0.114 C  
HETATM    7  H   UNL     3      -7.411   5.345  65.907  1.00  0.00     0.000 HD 
ENDROOT
BRANCH   5   8
HETATM    8  C   UNL     2     -11.807  14.831  65.541  1.00  0.00    -0.231 C  
HETATM    9  O   UNL     2     -12.047  13.442  65.739  1.00  0.00    -0.386 OA 
HETATM   10  H   UNL     2     -12.208  13.299  66.664  1.00  0.00     0.000 HD 
BRANCH   8  11
HETATM   11  C   UNL     2     -10.588  15.230  66.389  1.00  0.00    -0.308 C  
HETATM   12  H   UNL     2      -8.853  16.217  66.161  1.00  0.00     0.000 HD 
HETATM   13  O   UNL     2      -9.606  15.971  65.637  1.00  0.00    -0.384 OA 
BRANCH  11  14
HETATM   14  C   UNL     2     -10.801  15.926  67.755  1.00  0.00    -0.324 C  
HETATM   15  O   UNL     2     -10.796  17.335  67.588  1.00  0.00    -0.335 OA 
HETATM   16  H   UNL     2     -10.927  17.763  68.427  1.00  0.00     0.000 HD 
BRANCH  14  17
HETATM   17  C   UNL     2      -9.997  15.410  68.963  1.00  0.00    -0.229 C  
HETATM   18  H   UNL     2      -8.212  15.745  69.682  1.00  0.00     0.000 HD 
HETATM   19  O   UNL     2      -8.708  16.063  68.937  1.00  0.00    -0.208 OA 
BRANCH  17  20
HETATM   20  C   UNL     2     -10.674  15.547  70.326  1.00  0.00    -0.333 C  
HETATM   21  O   UNL     2     -11.160  16.890  70.543  1.00  0.00    -0.388 OA 
HETATM   22  C   UNL     2     -11.867  14.550  70.358  1.00  0.00    -0.311 C  
HETATM   23  H   UNL     2     -11.581  16.975  71.390  1.00  0.00     0.000 HD 
HETATM   24  O   UNL     2     -11.623  13.436  69.823  1.00  0.00    -0.278 OA 
HETATM   25  O   UNL     2     -12.902  15.026  70.896  1.00  0.00    -0.339 OA 
ENDBRANCH  17  20
ENDBRANCH  14  17
ENDBRANCH  11  14
ENDBRANCH   8  11
ENDBRANCH   5   8
BRANCH   6  26
HETATM   26  C   UNL     3      -7.713   8.490  65.090  1.00  0.00    -0.102 C  
HETATM   27  H   UNL     3      -8.862   9.971  64.680  1.00  0.00     0.000 HD 
HETATM   28  O   UNL     3      -8.908   9.032  64.543  1.00  0.00    -0.172 OA 
BRANCH  26  29
HETATM   29  C   UNL     3      -7.499   8.857  66.582  1.00  0.00    -0.086 C  
HETATM   30  O   UNL     3      -6.172   9.529  66.733  1.00  0.00    -0.063 OA 
HETATM   31  H   UNL     3      -6.042   9.754  67.647  1.00  0.00     0.000 HD 
BRANCH  29  32
HETATM   32  C   UNL     3      -8.475   9.927  67.118  1.00  0.00    -0.121 C  
HETATM   33  H   UNL     3     -10.401   9.966  67.530  1.00  0.00     0.000 HD 
HETATM   34  O   UNL     3      -9.801   9.308  67.200  1.00  0.00    -0.170 OA 
BRANCH  32  35
HETATM   35  C   UNL     3      -8.482  11.405  66.699  1.00  0.00    -0.171 C  
HETATM   36  H   UNL     3      -9.748  12.561  65.802  1.00  0.00     0.000 HD 
HETATM   37  O   UNL     3      -9.744  11.646  66.062  1.00  0.00    -0.219 OA 
BRANCH  35  38
HETATM   38  C   UNL     3      -8.179  12.428  67.788  1.00  0.00    -0.163 C  
HETATM   39  C   UNL     3      -6.685  12.844  67.747  1.00  0.00    -0.141 C  
HETATM   40  O   UNL     3      -8.471  11.892  69.094  1.00  0.00    -0.353 OA 
HETATM   41  O   UNL     3      -5.995  12.354  66.799  1.00  0.00    -0.245 OA 
HETATM   42  O   UNL     3      -6.292  13.428  68.795  1.00  0.00    -0.082 OA 
HETATM   43  H   UNL     3      -8.283  12.530  69.773  1.00  0.00     0.000 HD 
ENDBRANCH  35  38
ENDBRANCH  32  35
ENDBRANCH  29  32
ENDBRANCH  26  29
ENDBRANCH   6  26
TORSDOF 10
ENDMDL
MODEL      256
REMARK 921   NORMALIZED FREE ENERGY PREDICTED BY IDOCK:   -5.09 KCAL/MOL
REMARK 922        TOTAL FREE ENERGY PREDICTED BY IDOCK:  -10.56 KCAL/MOL
REMARK 923 INTER-LIGAND FREE ENERGY PREDICTED BY IDOCK:   -8.59 KCAL/MOL
REMARK 924 INTRA-LIGAND FREE ENERGY PREDICTED BY IDOCK:   -1.97 KCAL/MOL
REMARK 927      BINDING AFFINITY PREDICTED BY RF-SCORE:    0.00 PKD
ROOT
HETATM    1 CA   UNL     1      -8.673  11.573  68.455  1.00  0.00    -0.118 Ca 
HETATM    2  O   UNL     2      -5.626   6.770  69.214  1.00  0.00    -0.014 OA 
HETATM    3  O   UNL     3     -12.484  14.163  64.175  1.00  0.00    -0.668 OA 
HETATM    4  H   UNL     2      -4.745   7.071  69.025  1.00  0.00     0.000 HD 
HETATM    5  C   UNL     2      -6.536   7.849  69.003  1.00  0.00    -0.044 C  
HETATM    6  C   UNL     3     -11.124  14.161  64.600  1.00  0.00    -0.371 C  
HETATM    7  H   UNL     3     -12.813  15.053  64.132  1.00  0.00     0.000 HD 
ENDROOT
BRANCH   5   8
HETATM    8  C   UNL     2      -7.968   7.361  69.310  1.00  0.00    -0.118 C  
HETATM    9  O   UNL     2      -7.886   6.348  70.307  1.00  0.00    -0.099 OA 
HETATM   10  H   UNL     2      -8.767   6.047  70.496  1.00  0.00     0.000 HD 
BRANCH   8  11
HETATM   11  C   UNL     2      -8.840   8.501  69.861  1.00  0.00    -0.137 C  
HETATM   12  H   UNL     2      -8.760  10.500  70.056  1.00  0.00     0.000 HD 
HETATM   13  O   UNL     2      -8.222   9.795  69.716  1.00  0.00    -0.139 OA 
BRANCH  11  14
HETATM   14  C   UNL     2     -10.324   8.606  69.430  1.00  0.00    -0.218 C  
HETATM   15  O   UNL     2     -10.636   9.945  69.082  1.00  0.00    -0.201 OA 
HETATM   16  H   UNL     2     -11.546  10.009  68.818  1.00  0.00     0.000 HD 
BRANCH  14  17
HETATM   17  C   UNL     2     -11.380   7.895  70.298  1.00  0.00    -0.150 C  
HETATM   18  H   UNL     2     -11.609   6.086  70.996  1.00  0.00     0.000 HD 
HETATM   19  O   UNL     2     -10.957   6.524  70.461  1.00  0.00    -0.253 OA 
BRANCH  17  20
HETATM   20  C   UNL     2     -11.697   8.554  71.640  1.00  0.00    -0.306 C  
HETATM   21  O   UNL     2     -11.447   9.977  71.603  1.00  0.00    -0.282 OA 
HETATM   22  C   UNL     2     -13.200   8.298  71.944  1.00  0.00    -0.344 C  
HETATM   23  H   UNL     2     -11.644  10.386  72.438  1.00  0.00     0.000 HD 
HETATM   24  O   UNL     2     -13.599   7.143  71.636  1.00  0.00    -0.377 OA 
HETATM   25  O   UNL     2     -13.790   9.299  72.430  1.00  0.00    -0.470 OA 
ENDBRANCH  17  20
ENDBRANCH  14  17
ENDBRANCH  11  14
ENDBRANCH   8  11
ENDBRANCH   5   8
BRANCH   6  26
HETATM   26  C   UNL     3     -10.592  12.722  64.668  1.00  0.00    -0.349 C  
HETATM   27  H   UNL     3      -9.354  11.690  63.627  1.00  0.00     0.000 HD 
HETATM   28  O   UNL     3      -9.683  12.580  63.584  1.00  0.00    -0.260 OA 
BRANCH  26  29
HETATM   29  C   UNL     3      -9.960  12.393  66.046  1.00  0.00    -0.255 C  
HETATM   30  O   UNL     3      -8.887  13.391  66.340  1.00  0.00    -0.447 OA 
HETATM   31  H   UNL     3      -8.500  13.189  67.184  1.00  0.00     0.000 HD 
BRANCH  29  32
HETATM   32  C   UNL     3     -10.918  12.575  67.243  1.00  0.00    -0.261 C  
HETATM   33  H   UNL     3     -12.850  12.313  67.526  1.00  0.00     0.000 HD 
HETATM   34  O   UNL     3     -12.261  12.201  66.789  1.00  0.00    -0.553 OA 
BRANCH  32  35
HETATM   35  C   UNL     3     -10.880  13.748  68.235  1.00  0.00    -0.250 C  
HETATM   36  H   UNL     3     -10.993  15.672  68.074  1.00  0.00     0.000 HD 
HETATM   37  O   UNL     3     -11.017  14.946  67.461  1.00  0.00    -0.285 OA 
BRANCH  35  38
HETATM   38  C   UNL     3     -11.864  13.694  69.398  1.00  0.00    -0.339 C  
HETATM   39  C   UNL     3     -11.490  14.742  70.479  1.00  0.00    -0.249 C  
HETATM   40  O   UNL     3     -11.871  12.388  70.008  1.00  0.00    -0.387 OA 
HETATM   41  O   UNL     3     -10.515  15.508  70.201  1.00  0.00    -0.302 OA 
HETATM   42  O   UNL     3     -12.051  14.545  71.593  1.00  0.00    -0.342 OA 
HETATM   43  H   UNL     3     -12.484  12.355  70.733  1.00  0.00     0.000 HD 
ENDBRANCH  35  38
ENDBRANCH  32  35
ENDBRANCH  29  32
ENDBRANCH  26  29
ENDBRANCH   6  26
TORSDOF 10
ENDMDL
MODEL      257
REMARK 921   NORMALIZED FREE ENERGY PREDICTED BY IDOCK:   -5.08 KCAL/MOL
REMARK 922        TOTAL FREE ENERGY PREDICTED BY IDOCK:  -10.55 KCAL/MOL
REMARK 923 INTER-LIGAND FREE ENERGY PREDICTED BY IDOCK:   -8.17 KCAL/MOL
REMARK 924 INTRA-LIGAND FREE ENERGY PREDICTED BY IDOCK:   -2.38 KCAL/MOL
REMARK 927      BINDING AFFINITY PREDICTED BY RF-SCORE:    0.00 PKD
ROOT
HETATM    1 CA   UNL     1      -6.894  10.299  70.694  1.00  0.00    -0.094 Ca 
HETATM    2  O   UNL     2      -6.632  15.946  69.711  1.00  0.00    -0.188 OA 
HETATM    3  O   UNL     3     -11.091   5.972  72.487  1.00  0.00    -0.249 OA 
HETATM    4  H   UNL     2      -6.195  16.257  70.496  1.00  0.00     0.000 HD 
HETATM    5  C   UNL     2      -6.839  14.539  69.826  1.00  0.00    -0.126 C  
HETATM    6  C   UNL     3     -10.060   6.807  73.006  1.00  0.00    -0.191 C  
HETATM    7  H   UNL     3     -10.942   5.069  72.743  1.00  0.00     0.000 HD 
ENDROOT
BRANCH   5   8
HETATM    8  C   UNL     2      -7.548  14.034  68.551  1.00  0.00    -0.130 C  
HETATM    9  O   UNL     2      -7.582  12.611  68.600  1.00  0.00    -0.145 OA 
HETATM   10  H   UNL     2      -8.019  12.300  67.815  1.00  0.00     0.000 HD 
BRANCH   8  11
HETATM   11  C   UNL     2      -8.996  14.543  68.478  1.00  0.00    -0.188 C  
HETATM   12  H   UNL     2     -10.213  15.776  69.497  1.00  0.00     0.000 HD 
HETATM   13  O   UNL     2      -9.318  15.461  69.542  1.00  0.00    -0.265 OA 
BRANCH  11  14
HETATM   14  C   UNL     2      -9.539  15.115  67.145  1.00  0.00    -0.218 C  
HETATM   15  O   UNL     2      -9.226  16.495  67.045  1.00  0.00    -0.210 OA 
HETATM   16  H   UNL     2      -9.560  16.846  66.227  1.00  0.00     0.000 HD 
BRANCH  14  17
HETATM   17  C   UNL     2     -10.974  14.741  66.729  1.00  0.00    -0.327 C  
HETATM   18  H   UNL     2     -12.754  15.455  67.100  1.00  0.00     0.000 HD 
HETATM   19  O   UNL     2     -11.869  15.686  67.357  1.00  0.00    -0.010 OA 
BRANCH  17  20
HETATM   20  C   UNL     2     -11.229  14.631  65.226  1.00  0.00    -0.358 C  
HETATM   21  O   UNL     2     -10.056  14.164  64.524  1.00  0.00    -0.645 OA 
HETATM   22  C   UNL     2     -12.394  13.622  65.022  1.00  0.00    -0.427 C  
HETATM   23  H   UNL     2     -10.214  14.096  63.589  1.00  0.00     0.000 HD 
HETATM   24  O   UNL     2     -13.321  13.725  65.868  1.00  0.00    -0.339 OA 
HETATM   25  O   UNL     2     -12.213  12.839  64.051  1.00  0.00    -0.399 OA 
ENDBRANCH  17  20
ENDBRANCH  14  17
ENDBRANCH  11  14
ENDBRANCH   8  11
ENDBRANCH   5   8
BRANCH   6  26
HETATM   26  C   UNL     3     -10.301   8.266  72.592  1.00  0.00    -0.304 C  
HETATM   27  H   UNL     3      -9.271   9.594  71.666  1.00  0.00     0.000 HD 
HETATM   28  O   UNL     3      -9.122   8.692  71.922  1.00  0.00    -0.227 OA 
BRANCH  26  29
HETATM   29  C   UNL     3     -11.586   8.430  71.737  1.00  0.00    -0.308 C  
HETATM   30  O   UNL     3     -12.781   8.306  72.627  1.00  0.00    -0.585 OA 
HETATM   31  H   UNL     3     -13.567   8.406  72.103  1.00  0.00     0.000 HD 
BRANCH  29  32
HETATM   32  C   UNL     3     -11.769   9.838  71.131  1.00  0.00    -0.385 C  
HETATM   33  H   UNL     3     -12.973  11.355  71.487  1.00  0.00     0.000 HD 
HETATM   34  O   UNL     3     -12.861  10.489  71.859  1.00  0.00    -0.444 OA 
BRANCH  32  35
HETATM   35  C   UNL     3     -11.711  10.168  69.631  1.00  0.00    -0.098 C  
HETATM   36  H   UNL     3     -12.806  11.208  68.423  1.00  0.00     0.000 HD 
HETATM   37  O   UNL     3     -12.842  11.003  69.350  1.00  0.00    -0.190 OA 
BRANCH  35  38
HETATM   38  C   UNL     3     -10.408  10.766  69.111  1.00  0.00    -0.217 C  
HETATM   39  C   UNL     3     -10.022  10.133  67.749  1.00  0.00    -0.168 C  
HETATM   40  O   UNL     3      -9.331  10.543  70.043  1.00  0.00    -0.360 OA 
HETATM   41  O   UNL     3     -10.860   9.313  67.257  1.00  0.00    -0.238 OA 
HETATM   42  O   UNL     3      -8.821  10.334  67.417  1.00  0.00    -0.131 OA 
HETATM   43  H   UNL     3      -8.519  10.915  69.718  1.00  0.00     0.000 HD 
ENDBRANCH  35  38
ENDBRANCH  32  35
ENDBRANCH  29  32
ENDBRANCH  26  29
ENDBRANCH   6  26
TORSDOF 10
ENDMDL
MODEL      258
REMARK 921   NORMALIZED FREE ENERGY PREDICTED BY IDOCK:   -5.07 KCAL/MOL
REMARK 922        TOTAL FREE ENERGY PREDICTED BY IDOCK:  -10.54 KCAL/MOL
REMARK 923 INTER-LIGAND FREE ENERGY PREDICTED BY IDOCK:   -8.53 KCAL/MOL
REMARK 924 INTRA-LIGAND FREE ENERGY PREDICTED BY IDOCK:   -2.01 KCAL/MOL
REMARK 927      BINDING AFFINITY PREDICTED BY RF-SCORE:    0.00 PKD
ROOT
HETATM    1 CA   UNL     1      -7.823  12.013  69.531  1.00  0.00    -0.297 Ca 
HETATM    2  O   UNL     2     -12.452  15.402  69.577  1.00  0.00    -0.577 OA 
HETATM    3  O   UNL     3      -6.340   5.972  70.458  1.00  0.00    -0.033 OA 
HETATM    4  H   UNL     2     -12.356  15.847  70.411  1.00  0.00     0.000 HD 
HETATM    5  C   UNL     2     -11.396  14.454  69.435  1.00  0.00    -0.281 C  
HETATM    6  C   UNL     3      -6.383   7.225  71.134  1.00  0.00    -0.036 C  
HETATM    7  H   UNL     3      -5.480   5.578  70.551  1.00  0.00     0.000 HD 
ENDROOT
BRANCH   5   8
HETATM    8  C   UNL     2     -11.552  13.731  68.080  1.00  0.00    -0.335 C  
HETATM    9  O   UNL     2     -12.586  14.382  67.349  1.00  0.00    -0.532 OA 
HETATM   10  H   UNL     2     -12.682  13.937  66.515  1.00  0.00     0.000 HD 
BRANCH   8  11
HETATM   11  C   UNL     2     -10.259  13.811  67.252  1.00  0.00    -0.253 C  
HETATM   12  H   UNL     2      -8.296  13.449  67.485  1.00  0.00     0.000 HD 
HETATM   13  O   UNL     2      -9.096  13.400  67.997  1.00  0.00    -0.190 OA 
BRANCH  11  14
HETATM   14  C   UNL     2     -10.209  13.160  65.848  1.00  0.00    -0.291 C  
HETATM   15  O   UNL     2     -10.087  14.163  64.852  1.00  0.00    -0.541 OA 
HETATM   16  H   UNL     2     -10.057  13.763  63.990  1.00  0.00     0.000 HD 
BRANCH  14  17
HETATM   17  C   UNL     2     -11.225  12.047  65.531  1.00  0.00    -0.321 C  
HETATM   18  H   UNL     2     -13.072  11.997  64.898  1.00  0.00     0.000 HD 
HETATM   19  O   UNL     2     -12.446  12.684  65.093  1.00  0.00    -0.522 OA 
BRANCH  17  20
HETATM   20  C   UNL     2     -10.759  10.976  64.544  1.00  0.00    -0.264 C  
HETATM   21  O   UNL     2     -10.295  11.563  63.308  1.00  0.00    -0.463 OA 
HETATM   22  C   UNL     2      -9.597  10.194  65.217  1.00  0.00    -0.277 C  
HETATM   23  H   UNL     2     -10.006  10.898  62.695  1.00  0.00     0.000 HD 
HETATM   24  O   UNL     2      -9.770   9.966  66.444  1.00  0.00    -0.186 OA 
HETATM   25  O   UNL     2      -8.648   9.932  64.430  1.00  0.00    -0.156 OA 
ENDBRANCH  17  20
ENDBRANCH  14  17
ENDBRANCH  11  14
ENDBRANCH   8  11
ENDBRANCH   5   8
BRANCH   6  26
HETATM   26  C   UNL     3      -7.772   7.861  70.983  1.00  0.00    -0.084 C  
HETATM   27  H   UNL     3      -8.999   8.094  69.527  1.00  0.00     0.000 HD 
HETATM   28  O   UNL     3      -8.140   7.701  69.620  1.00  0.00    -0.121 OA 
BRANCH  26  29
HETATM   29  C   UNL     3      -8.805   7.259  71.972  1.00  0.00    -0.125 C  
HETATM   30  O   UNL     3      -8.726   8.000  73.269  1.00  0.00    -0.195 OA 
HETATM   31  H   UNL     3      -9.359   7.631  73.874  1.00  0.00     0.000 HD 
BRANCH  29  32
HETATM   32  C   UNL     3     -10.277   7.471  71.558  1.00  0.00    -0.188 C  
HETATM   33  H   UNL     3     -11.806   8.450  72.323  1.00  0.00     0.000 HD 
HETATM   34  O   UNL     3     -10.900   8.320  72.577  1.00  0.00    -0.333 OA 
BRANCH  32  35
HETATM   35  C   UNL     3     -11.196   6.384  70.978  1.00  0.00    -0.313 C  
HETATM   36  H   UNL     3     -13.043   5.877  71.249  1.00  0.00     0.000 HD 
HETATM   37  O   UNL     3     -12.474   6.548  71.608  1.00  0.00    -0.336 OA 
BRANCH  35  38
HETATM   38  C   UNL     3     -11.304   6.318  69.459  1.00  0.00    -0.404 C  
HETATM   39  C   UNL     3     -10.400   5.190  68.896  1.00  0.00    -0.116 C  
HETATM   40  O   UNL     3     -10.909   7.567  68.859  1.00  0.00    -0.374 OA 
HETATM   41  O   UNL     3      -9.801   4.472  69.757  1.00  0.00    -0.204 OA 
HETATM   42  O   UNL     3     -10.190   5.280  67.655  1.00  0.00    -0.183 OA 
HETATM   43  H   UNL     3     -10.976   7.525  67.912  1.00  0.00     0.000 HD 
ENDBRANCH  35  38
ENDBRANCH  32  35
ENDBRANCH  29  32
ENDBRANCH  26  29
ENDBRANCH   6  26
TORSDOF 10
ENDMDL
MODEL      259
REMARK 921   NORMALIZED FREE ENERGY PREDICTED BY IDOCK:   -5.07 KCAL/MOL
REMARK 922        TOTAL FREE ENERGY PREDICTED BY IDOCK:  -10.54 KCAL/MOL
REMARK 923 INTER-LIGAND FREE ENERGY PREDICTED BY IDOCK:   -9.37 KCAL/MOL
REMARK 924 INTRA-LIGAND FREE ENERGY PREDICTED BY IDOCK:   -1.17 KCAL/MOL
REMARK 927      BINDING AFFINITY PREDICTED BY RF-SCORE:    0.00 PKD
ROOT
HETATM    1 CA   UNL     1      -8.015  12.244  65.769  1.00  0.00    -0.360 Ca 
HETATM    2  O   UNL     2     -11.155   7.896  67.807  1.00  0.00    -0.490 OA 
HETATM    3  O   UNL     3      -7.134  18.381  66.824  1.00  0.00    -0.194 OA 
HETATM    4  H   UNL     2     -11.830   7.818  67.142  1.00  0.00     0.000 HD 
HETATM    5  C   UNL     2     -10.310   8.998  67.481  1.00  0.00    -0.264 C  
HETATM    6  C   UNL     3      -7.865  17.487  65.988  1.00  0.00    -0.178 C  
HETATM    7  H   UNL     3      -6.663  19.014  66.295  1.00  0.00     0.000 HD 
ENDROOT
BRANCH   5   8
HETATM    8  C   UNL     2      -9.215   9.124  68.561  1.00  0.00    -0.136 C  
HETATM    9  O   UNL     2      -8.198   9.986  68.060  1.00  0.00    -0.114 OA 
HETATM   10  H   UNL     2      -7.523  10.063  68.725  1.00  0.00     0.000 HD 
BRANCH   8  11
HETATM   11  C   UNL     2      -9.772   9.746  69.852  1.00  0.00    -0.238 C  
HETATM   12  H   UNL     2     -11.531  10.396  70.573  1.00  0.00     0.000 HD 
HETATM   13  O   UNL     2     -11.187  10.012  69.775  1.00  0.00    -0.247 OA 
BRANCH  11  14
HETATM   14  C   UNL     2      -9.462   9.081  71.216  1.00  0.00    -0.269 C  
HETATM   15  O   UNL     2      -8.147   9.413  71.631  1.00  0.00    -0.251 OA 
HETATM   16  H   UNL     2      -7.957   9.005  72.468  1.00  0.00     0.000 HD 
BRANCH  14  17
HETATM   17  C   UNL     2      -9.852   7.603  71.404  1.00  0.00    -0.174 C  
HETATM   18  H   UNL     2      -9.171   6.117  72.475  1.00  0.00     0.000 HD 
HETATM   19  O   UNL     2      -8.931   7.030  72.359  1.00  0.00    -0.129 OA 
BRANCH  17  20
HETATM   20  C   UNL     2     -11.306   7.337  71.790  1.00  0.00    -0.253 C  
HETATM   21  O   UNL     2     -12.006   8.565  72.093  1.00  0.00    -0.336 OA 
HETATM   22  C   UNL     2     -11.989   6.633  70.584  1.00  0.00    -0.343 C  
HETATM   23  H   UNL     2     -12.910   8.399  72.333  1.00  0.00     0.000 HD 
HETATM   24  O   UNL     2     -11.266   5.777  70.009  1.00  0.00    -0.335 OA 
HETATM   25  O   UNL     2     -13.156   7.050  70.357  1.00  0.00     0.195 OA 
ENDBRANCH  17  20
ENDBRANCH  14  17
ENDBRANCH  11  14
ENDBRANCH   8  11
ENDBRANCH   5   8
BRANCH   6  26
HETATM   26  C   UNL     3      -8.626  16.465  66.844  1.00  0.00    -0.214 C  
HETATM   27  H   UNL     3      -8.808  16.151  68.729  1.00  0.00     0.000 HD 
HETATM   28  O   UNL     3      -8.337  16.784  68.199  1.00  0.00    -0.189 OA 
BRANCH  26  29
HETATM   29  C   UNL     3     -10.145  16.448  66.528  1.00  0.00    -0.295 C  
HETATM   30  O   UNL     3     -10.656  17.853  66.524  1.00  0.00    -0.324 OA 
HETATM   31  H   UNL     3     -11.586  17.843  66.331  1.00  0.00     0.000 HD 
BRANCH  29  32
HETATM   32  C   UNL     3     -10.491  15.965  65.103  1.00  0.00    -0.335 C  
HETATM   33  H   UNL     3     -11.369  16.779  63.538  1.00  0.00     0.000 HD 
HETATM   34  O   UNL     3     -11.156  17.076  64.416  1.00  0.00    -1.144 OA 
BRANCH  32  35
HETATM   35  C   UNL     3     -11.037  14.573  64.751  1.00  0.00    -0.391 C  
HETATM   36  H   UNL     3     -10.236  12.859  64.349  1.00  0.00     0.000 HD 
HETATM   37  O   UNL     3      -9.899  13.720  64.567  1.00  0.00    -0.160 OA 
BRANCH  35  38
HETATM   38  C   UNL     3     -12.059  13.974  65.710  1.00  0.00    -0.427 C  
HETATM   39  C   UNL     3     -11.365  13.040  66.736  1.00  0.00    -0.324 C  
HETATM   40  O   UNL     3     -13.053  13.213  64.995  1.00  0.00    -0.728 OA 
HETATM   41  O   UNL     3     -10.097  12.989  66.674  1.00  0.00    -0.241 OA 
HETATM   42  O   UNL     3     -12.162  12.273  67.344  1.00  0.00    -0.478 OA 
HETATM   43  H   UNL     3     -13.690  12.840  65.592  1.00  0.00     0.000 HD 
ENDBRANCH  35  38
ENDBRANCH  32  35
ENDBRANCH  29  32
ENDBRANCH  26  29
ENDBRANCH   6  26
TORSDOF 10
ENDMDL
MODEL      260
REMARK 921   NORMALIZED FREE ENERGY PREDICTED BY IDOCK:   -5.07 KCAL/MOL
REMARK 922        TOTAL FREE ENERGY PREDICTED BY IDOCK:  -10.53 KCAL/MOL
REMARK 923 INTER-LIGAND FREE ENERGY PREDICTED BY IDOCK:   -7.63 KCAL/MOL
REMARK 924 INTRA-LIGAND FREE ENERGY PREDICTED BY IDOCK:   -2.90 KCAL/MOL
REMARK 927      BINDING AFFINITY PREDICTED BY RF-SCORE:    0.00 PKD
ROOT
HETATM    1 CA   UNL     1      -9.491  14.281  64.669  1.00  0.00    -0.506 Ca 
HETATM    2  O   UNL     2      -6.514  18.919  66.267  1.00  0.00    -0.184 OA 
HETATM    3  O   UNL     3      -9.535   8.074  65.682  1.00  0.00    -0.422 OA 
HETATM    4  H   UNL     2      -5.977  19.075  65.499  1.00  0.00     0.000 HD 
HETATM    5  C   UNL     2      -7.284  17.736  66.058  1.00  0.00    -0.287 C  
HETATM    6  C   UNL     3      -9.056   9.049  64.761  1.00  0.00    -0.028 C  
HETATM    7  H   UNL     3     -10.021   7.400  65.223  1.00  0.00     0.000 HD 
ENDROOT
BRANCH   5   8
HETATM    8  C   UNL     2      -8.158  17.482  67.304  1.00  0.00    -0.203 C  
HETATM    9  O   UNL     2      -8.053  18.618  68.156  1.00  0.00    -0.277 OA 
HETATM   10  H   UNL     2      -8.591  18.461  68.924  1.00  0.00     0.000 HD 
BRANCH   8  11
HETATM   11  C   UNL     2      -9.637  17.306  66.923  1.00  0.00    -0.268 C  
HETATM   12  H   UNL     2     -10.724  16.534  65.420  1.00  0.00     0.000 HD 
HETATM   13  O   UNL     2      -9.810  16.643  65.655  1.00  0.00    -0.528 OA 
BRANCH  11  14
HETATM   14  C   UNL     2     -10.622  16.691  67.947  1.00  0.00    -0.342 C  
HETATM   15  O   UNL     2     -10.686  17.502  69.109  1.00  0.00    -0.369 OA 
HETATM   16  H   UNL     2     -11.291  17.125  69.737  1.00  0.00     0.000 HD 
BRANCH  14  17
HETATM   17  C   UNL     2     -10.533  15.176  68.215  1.00  0.00    -0.241 C  
HETATM   18  H   UNL     2      -9.538  14.046  69.459  1.00  0.00     0.000 HD 
HETATM   19  O   UNL     2      -9.593  14.980  69.294  1.00  0.00    -0.215 OA 
BRANCH  17  20
HETATM   20  C   UNL     2     -11.860  14.465  68.483  1.00  0.00    -0.334 C  
HETATM   21  O   UNL     2     -11.848  13.114  67.972  1.00  0.00    -0.348 OA 
HETATM   22  C   UNL     2     -12.072  14.437  70.023  1.00  0.00    -0.343 C  
HETATM   23  H   UNL     2     -12.672  12.672  68.138  1.00  0.00     0.000 HD 
HETATM   24  O   UNL     2     -11.733  15.498  70.611  1.00  0.00    -0.293 OA 
HETATM   25  O   UNL     2     -12.530  13.341  70.445  1.00  0.00    -0.295 OA 
ENDBRANCH  17  20
ENDBRANCH  14  17
ENDBRANCH  11  14
ENDBRANCH   8  11
ENDBRANCH   5   8
BRANCH   6  26
HETATM   26  C   UNL     3      -8.269  10.139  65.503  1.00  0.00    -0.156 C  
HETATM   27  H   UNL     3      -6.806  11.294  65.049  1.00  0.00     0.000 HD 
HETATM   28  O   UNL     3      -7.292  10.620  64.589  1.00  0.00     0.005 OA 
BRANCH  26  29
HETATM   29  C   UNL     3      -9.191  11.255  66.060  1.00  0.00    -0.208 C  
HETATM   30  O   UNL     3     -10.534  10.671  66.361  1.00  0.00    -0.242 OA 
HETATM   31  H   UNL     3     -11.099  11.355  66.701  1.00  0.00     0.000 HD 
BRANCH  29  32
HETATM   32  C   UNL     3      -8.757  11.812  67.433  1.00  0.00    -0.162 C  
HETATM   33  H   UNL     3      -7.740  13.390  68.031  1.00  0.00     0.000 HD 
HETATM   34  O   UNL     3      -8.007  13.047  67.186  1.00  0.00    -0.163 OA 
BRANCH  32  35
HETATM   35  C   UNL     3      -8.232  10.966  68.603  1.00  0.00    -0.146 C  
HETATM   36  H   UNL     3      -6.886  11.217  69.969  1.00  0.00     0.000 HD 
HETATM   37  O   UNL     3      -7.211  11.740  69.245  1.00  0.00    -0.084 OA 
BRANCH  35  38
HETATM   38  C   UNL     3      -9.270  10.445  69.591  1.00  0.00    -0.056 C  
HETATM   39  C   UNL     3      -9.558   8.941  69.340  1.00  0.00    -0.163 C  
HETATM   40  O   UNL     3     -10.507  11.175  69.472  1.00  0.00    -0.410 OA 
HETATM   41  O   UNL     3      -8.852   8.380  68.445  1.00  0.00    -0.139 OA 
HETATM   42  O   UNL     3     -10.615   8.528  69.891  1.00  0.00    -0.223 OA 
HETATM   43  H   UNL     3     -11.154  10.851  70.088  1.00  0.00     0.000 HD 
ENDBRANCH  35  38
ENDBRANCH  32  35
ENDBRANCH  29  32
ENDBRANCH  26  29
ENDBRANCH   6  26
TORSDOF 10
ENDMDL
MODEL      261
REMARK 921   NORMALIZED FREE ENERGY PREDICTED BY IDOCK:   -5.05 KCAL/MOL
REMARK 922        TOTAL FREE ENERGY PREDICTED BY IDOCK:  -10.51 KCAL/MOL
REMARK 923 INTER-LIGAND FREE ENERGY PREDICTED BY IDOCK:   -8.40 KCAL/MOL
REMARK 924 INTRA-LIGAND FREE ENERGY PREDICTED BY IDOCK:   -2.11 KCAL/MOL
REMARK 927      BINDING AFFINITY PREDICTED BY RF-SCORE:    0.00 PKD
ROOT
HETATM    1 CA   UNL     1     -10.341   6.969  65.633  1.00  0.00    -0.412 Ca 
HETATM    2  O   UNL     2      -8.854  11.602  62.592  1.00  0.00    -0.611 OA 
HETATM    3  O   UNL     3      -8.373   3.747  70.662  1.00  0.00    -0.067 OA 
HETATM    4  H   UNL     2      -8.448  11.208  61.828  1.00  0.00     0.000 HD 
HETATM    5  C   UNL     2      -9.229  10.568  63.500  1.00  0.00    -0.274 C  
HETATM    6  C   UNL     3      -8.290   3.753  69.240  1.00  0.00    -0.064 C  
HETATM    7  H   UNL     3      -8.657   2.894  70.971  1.00  0.00     0.000 HD 
ENDROOT
BRANCH   5   8
HETATM    8  C   UNL     2      -9.888  11.208  64.740  1.00  0.00    -0.277 C  
HETATM    9  O   UNL     2      -8.855  11.723  65.573  1.00  0.00    -0.406 OA 
HETATM   10  H   UNL     2      -9.261  12.117  66.337  1.00  0.00     0.000 HD 
BRANCH   8  11
HETATM   11  C   UNL     2     -10.807  12.374  64.345  1.00  0.00    -0.337 C  
HETATM   12  H   UNL     2     -12.371  12.715  63.130  1.00  0.00     0.000 HD 
HETATM   13  O   UNL     2     -11.803  11.994  63.374  1.00  0.00    -0.462 OA 
BRANCH  11  14
HETATM   14  C   UNL     2     -11.485  13.222  65.449  1.00  0.00    -0.304 C  
HETATM   15  O   UNL     2     -12.832  13.493  65.096  1.00  0.00    -0.681 OA 
HETATM   16  H   UNL     2     -13.248  14.014  65.774  1.00  0.00     0.000 HD 
BRANCH  14  17
HETATM   17  C   UNL     2     -10.706  14.424  66.017  1.00  0.00    -0.302 C  
HETATM   18  H   UNL     2     -10.375  16.259  65.437  1.00  0.00     0.000 HD 
HETATM   19  O   UNL     2     -10.856  15.518  65.086  1.00  0.00    -0.386 OA 
BRANCH  17  20
HETATM   20  C   UNL     2     -11.066  14.841  67.443  1.00  0.00    -0.324 C  
HETATM   21  O   UNL     2     -12.497  14.881  67.637  1.00  0.00    -0.436 OA 
HETATM   22  C   UNL     2     -10.440  13.795  68.408  1.00  0.00    -0.252 C  
HETATM   23  H   UNL     2     -12.721  15.141  68.524  1.00  0.00     0.000 HD 
HETATM   24  O   UNL     2      -9.286  13.412  68.077  1.00  0.00    -0.203 OA 
HETATM   25  O   UNL     2     -11.200  13.476  69.361  1.00  0.00    -0.248 OA 
ENDBRANCH  17  20
ENDBRANCH  14  17
ENDBRANCH  11  14
ENDBRANCH   8  11
ENDBRANCH   5   8
BRANCH   6  26
HETATM   26  C   UNL     3      -7.831   5.130  68.742  1.00  0.00    -0.079 C  
HETATM   27  H   UNL     3      -6.258   5.793  67.864  1.00  0.00     0.000 HD 
HETATM   28  O   UNL     3      -6.542   4.941  68.173  1.00  0.00    -0.046 OA 
BRANCH  26  29
HETATM   29  C   UNL     3      -8.848   5.769  67.759  1.00  0.00    -0.105 C  
HETATM   30  O   UNL     3      -9.616   4.681  67.079  1.00  0.00    -0.154 OA 
HETATM   31  H   UNL     3     -10.238   5.073  66.478  1.00  0.00     0.000 HD 
BRANCH  29  32
HETATM   32  C   UNL     3      -9.965   6.586  68.444  1.00  0.00    -0.141 C  
HETATM   33  H   UNL     3     -11.904   6.789  68.165  1.00  0.00     0.000 HD 
HETATM   34  O   UNL     3     -11.216   6.287  67.743  1.00  0.00    -0.325 OA 
BRANCH  32  35
HETATM   35  C   UNL     3      -9.829   8.039  68.924  1.00  0.00    -0.175 C  
HETATM   36  H   UNL     3     -10.573   9.734  68.363  1.00  0.00     0.000 HD 
HETATM   37  O   UNL     3     -10.657   8.835  68.066  1.00  0.00    -0.219 OA 
BRANCH  35  38
HETATM   38  C   UNL     3     -10.105   8.301  70.401  1.00  0.00    -0.190 C  
HETATM   39  C   UNL     3      -8.826   8.816  71.113  1.00  0.00    -0.219 C  
HETATM   40  O   UNL     3     -10.548   7.100  71.063  1.00  0.00    -0.219 OA 
HETATM   41  O   UNL     3      -7.814   9.013  70.369  1.00  0.00    -0.086 OA 
HETATM   42  O   UNL     3      -8.885   8.750  72.372  1.00  0.00    -0.391 OA 
HETATM   43  H   UNL     3     -10.720   7.264  71.983  1.00  0.00     0.000 HD 
ENDBRANCH  35  38
ENDBRANCH  32  35
ENDBRANCH  29  32
ENDBRANCH  26  29
ENDBRANCH   6  26
TORSDOF 10
ENDMDL
MODEL      262
REMARK 921   NORMALIZED FREE ENERGY PREDICTED BY IDOCK:   -5.05 KCAL/MOL
REMARK 922        TOTAL FREE ENERGY PREDICTED BY IDOCK:  -10.50 KCAL/MOL
REMARK 923 INTER-LIGAND FREE ENERGY PREDICTED BY IDOCK:   -7.98 KCAL/MOL
REMARK 924 INTRA-LIGAND FREE ENERGY PREDICTED BY IDOCK:   -2.52 KCAL/MOL
REMARK 927      BINDING AFFINITY PREDICTED BY RF-SCORE:    0.00 PKD
ROOT
HETATM    1 CA   UNL     1      -7.102  10.087  70.877  1.00  0.00    -0.108 Ca 
HETATM    2  O   UNL     2      -6.353  15.226  68.438  1.00  0.00    -0.097 OA 
HETATM    3  O   UNL     3     -11.801   6.307  72.662  1.00  0.00    -0.482 OA 
HETATM    4  H   UNL     2      -6.123  15.763  69.187  1.00  0.00     0.000 HD 
HETATM    5  C   UNL     2      -6.643  13.904  68.888  1.00  0.00    -0.103 C  
HETATM    6  C   UNL     3     -10.907   7.291  73.174  1.00  0.00    -0.357 C  
HETATM    7  H   UNL     3     -11.763   5.521  73.193  1.00  0.00     0.000 HD 
ENDROOT
BRANCH   5   8
HETATM    8  C   UNL     2      -7.017  13.032  67.670  1.00  0.00    -0.154 C  
HETATM    9  O   UNL     2      -6.150  11.903  67.652  1.00  0.00    -0.062 OA 
HETATM   10  H   UNL     2      -6.380  11.367  66.902  1.00  0.00     0.000 HD 
BRANCH   8  11
HETATM   11  C   UNL     2      -8.463  12.521  67.772  1.00  0.00    -0.171 C  
HETATM   12  H   UNL     2      -9.488  11.080  68.727  1.00  0.00     0.000 HD 
HETATM   13  O   UNL     2      -8.594  11.396  68.664  1.00  0.00    -0.157 OA 
BRANCH  11  14
HETATM   14  C   UNL     2      -9.610  13.522  68.060  1.00  0.00    -0.221 C  
HETATM   15  O   UNL     2     -10.374  13.080  69.170  1.00  0.00    -0.434 OA 
HETATM   16  H   UNL     2     -11.077  13.694  69.346  1.00  0.00     0.000 HD 
BRANCH  14  17
HETATM   17  C   UNL     2     -10.434  14.038  66.865  1.00  0.00    -0.276 C  
HETATM   18  H   UNL     2     -10.035  15.041  65.237  1.00  0.00     0.000 HD 
HETATM   19  O   UNL     2      -9.526  14.722  65.974  1.00  0.00    -0.297 OA 
BRANCH  17  20
HETATM   20  C   UNL     2     -11.272  12.993  66.129  1.00  0.00    -0.291 C  
HETATM   21  O   UNL     2     -11.958  12.119  67.051  1.00  0.00    -0.593 OA 
HETATM   22  C   UNL     2     -12.314  13.756  65.262  1.00  0.00    -0.464 C  
HETATM   23  H   UNL     2     -12.478  11.469  66.593  1.00  0.00     0.000 HD 
HETATM   24  O   UNL     2     -11.863  14.791  64.703  1.00  0.00    -0.420 OA 
HETATM   25  O   UNL     2     -13.458  13.228  65.277  1.00  0.00    -0.452 OA 
ENDBRANCH  17  20
ENDBRANCH  14  17
ENDBRANCH  11  14
ENDBRANCH   8  11
ENDBRANCH   5   8
BRANCH   6  26
HETATM   26  C   UNL     3     -10.970   8.562  72.315  1.00  0.00    -0.355 C  
HETATM   27  H   UNL     3      -9.666   9.783  71.613  1.00  0.00     0.000 HD 
HETATM   28  O   UNL     3      -9.627   8.997  72.145  1.00  0.00    -0.312 OA 
BRANCH  26  29
HETATM   29  C   UNL     3     -11.714   8.329  70.973  1.00  0.00    -0.270 C  
HETATM   30  O   UNL     3     -13.001   9.090  70.993  1.00  0.00    -0.510 OA 
HETATM   31  H   UNL     3     -13.456   8.947  70.172  1.00  0.00     0.000 HD 
BRANCH  29  32
HETATM   32  C   UNL     3     -10.998   8.922  69.740  1.00  0.00    -0.156 C  
HETATM   33  H   UNL     3     -11.287  10.497  68.593  1.00  0.00     0.000 HD 
HETATM   34  O   UNL     3     -11.727  10.132  69.351  1.00  0.00    -0.153 OA 
BRANCH  32  35
HETATM   35  C   UNL     3     -10.439   8.104  68.566  1.00  0.00    -0.162 C  
HETATM   36  H   UNL     3     -10.292   8.386  66.658  1.00  0.00     0.000 HD 
HETATM   37  O   UNL     3     -10.638   8.891  67.384  1.00  0.00    -0.277 OA 
BRANCH  35  38
HETATM   38  C   UNL     3      -9.002   7.611  68.697  1.00  0.00    -0.133 C  
HETATM   39  C   UNL     3      -8.973   6.125  69.142  1.00  0.00    -0.126 C  
HETATM   40  O   UNL     3      -8.274   8.394  69.663  1.00  0.00    -0.113 OA 
HETATM   41  O   UNL     3     -10.102   5.549  69.240  1.00  0.00    -0.182 OA 
HETATM   42  O   UNL     3      -7.849   5.747  69.575  1.00  0.00    -0.090 OA 
HETATM   43  H   UNL     3      -7.379   8.087  69.745  1.00  0.00     0.000 HD 
ENDBRANCH  35  38
ENDBRANCH  32  35
ENDBRANCH  29  32
ENDBRANCH  26  29
ENDBRANCH   6  26
TORSDOF 10
ENDMDL
MODEL      263
REMARK 921   NORMALIZED FREE ENERGY PREDICTED BY IDOCK:   -5.04 KCAL/MOL
REMARK 922        TOTAL FREE ENERGY PREDICTED BY IDOCK:  -10.48 KCAL/MOL
REMARK 923 INTER-LIGAND FREE ENERGY PREDICTED BY IDOCK:   -9.43 KCAL/MOL
REMARK 924 INTRA-LIGAND FREE ENERGY PREDICTED BY IDOCK:   -1.05 KCAL/MOL
REMARK 927      BINDING AFFINITY PREDICTED BY RF-SCORE:    0.00 PKD
ROOT
HETATM    1 CA   UNL     1     -12.028   9.962  67.705  1.00  0.00    -0.540 Ca 
HETATM    2  O   UNL     2     -12.460  13.499  63.207  1.00  0.00    -0.897 OA 
HETATM    3  O   UNL     3      -8.842   4.820  69.426  1.00  0.00    -0.082 OA 
HETATM    4  H   UNL     2     -13.273  13.207  62.811  1.00  0.00     0.000 HD 
HETATM    5  C   UNL     2     -12.164  12.662  64.325  1.00  0.00    -0.445 C  
HETATM    6  C   UNL     3     -10.089   5.224  68.867  1.00  0.00    -0.184 C  
HETATM    7  H   UNL     3      -8.986   4.255  70.175  1.00  0.00     0.000 HD 
ENDROOT
BRANCH   5   8
HETATM    8  C   UNL     2     -10.844  13.136  64.968  1.00  0.00    -0.315 C  
HETATM    9  O   UNL     2      -9.913  13.399  63.924  1.00  0.00    -0.715 OA 
HETATM   10  H   UNL     2      -9.100  13.691  64.320  1.00  0.00     0.000 HD 
BRANCH   8  11
HETATM   11  C   UNL     2     -11.046  14.435  65.765  1.00  0.00    -0.316 C  
HETATM   12  H   UNL     2     -11.720  15.006  67.570  1.00  0.00     0.000 HD 
HETATM   13  O   UNL     2     -11.595  14.204  67.077  1.00  0.00    -0.343 OA 
BRANCH  11  14
HETATM   14  C   UNL     2      -9.880  15.448  65.883  1.00  0.00    -0.356 C  
HETATM   15  O   UNL     2      -9.194  15.258  67.110  1.00  0.00    -0.196 OA 
HETATM   16  H   UNL     2      -8.479  15.880  67.183  1.00  0.00     0.000 HD 
BRANCH  14  17
HETATM   17  C   UNL     2     -10.160  16.918  65.514  1.00  0.00    -0.055 C  
HETATM   18  H   UNL     2     -11.365  17.829  64.277  1.00  0.00     0.000 HD 
HETATM   19  O   UNL     2     -11.193  16.922  64.504  1.00  0.00    -1.057 OA 
BRANCH  17  20
HETATM   20  C   UNL     2     -10.501  17.847  66.678  1.00  0.00    -0.316 C  
HETATM   21  O   UNL     2     -10.928  17.104  67.841  1.00  0.00    -0.343 OA 
HETATM   22  C   UNL     2      -9.219  18.657  67.021  1.00  0.00    -0.291 C  
HETATM   23  H   UNL     2     -11.140  17.682  68.565  1.00  0.00     0.000 HD 
HETATM   24  O   UNL     2      -8.560  19.032  66.015  1.00  0.00    -0.457 OA 
HETATM   25  O   UNL     2      -9.026  18.789  68.260  1.00  0.00    -0.304 OA 
ENDBRANCH  17  20
ENDBRANCH  14  17
ENDBRANCH  11  14
ENDBRANCH   8  11
ENDBRANCH   5   8
BRANCH   6  26
HETATM   26  C   UNL     3      -9.856   6.138  67.656  1.00  0.00    -0.120 C  
HETATM   27  H   UNL     3     -10.854   6.561  66.073  1.00  0.00     0.000 HD 
HETATM   28  O   UNL     3     -10.998   5.996  66.822  1.00  0.00    -0.316 OA 
BRANCH  26  29
HETATM   29  C   UNL     3      -9.580   7.607  68.072  1.00  0.00    -0.145 C  
HETATM   30  O   UNL     3      -9.894   7.768  69.525  1.00  0.00    -0.174 OA 
HETATM   31  H   UNL     3      -9.725   8.668  69.779  1.00  0.00     0.000 HD 
BRANCH  29  32
HETATM   32  C   UNL     3      -8.092   8.015  68.008  1.00  0.00    -0.129 C  
HETATM   33  H   UNL     3      -6.628   8.134  69.321  1.00  0.00     0.000 HD 
HETATM   34  O   UNL     3      -7.544   7.883  69.360  1.00  0.00    -0.098 OA 
BRANCH  32  35
HETATM   35  C   UNL     3      -7.535   9.199  67.202  1.00  0.00    -0.087 C  
HETATM   36  H   UNL     3      -6.169   9.402  65.849  1.00  0.00     0.000 HD 
HETATM   37  O   UNL     3      -6.513   8.670  66.347  1.00  0.00    -0.060 OA 
BRANCH  35  38
HETATM   38  C   UNL     3      -8.548  10.046  66.439  1.00  0.00    -0.129 C  
HETATM   39  C   UNL     3      -8.887   9.393  65.073  1.00  0.00    -0.196 C  
HETATM   40  O   UNL     3      -8.035  11.371  66.200  1.00  0.00    -0.332 OA 
HETATM   41  O   UNL     3      -8.357   8.259  64.850  1.00  0.00    -0.159 OA 
HETATM   42  O   UNL     3      -9.456  10.176  64.264  1.00  0.00    -0.274 OA 
HETATM   43  H   UNL     3      -8.666  11.899  65.724  1.00  0.00     0.000 HD 
ENDBRANCH  35  38
ENDBRANCH  32  35
ENDBRANCH  29  32
ENDBRANCH  26  29
ENDBRANCH   6  26
TORSDOF 10
ENDMDL
MODEL      264
REMARK 921   NORMALIZED FREE ENERGY PREDICTED BY IDOCK:   -5.03 KCAL/MOL
REMARK 922        TOTAL FREE ENERGY PREDICTED BY IDOCK:  -10.47 KCAL/MOL
REMARK 923 INTER-LIGAND FREE ENERGY PREDICTED BY IDOCK:   -8.80 KCAL/MOL
REMARK 924 INTRA-LIGAND FREE ENERGY PREDICTED BY IDOCK:   -1.67 KCAL/MOL
REMARK 927      BINDING AFFINITY PREDICTED BY RF-SCORE:    0.00 PKD
ROOT
HETATM    1 CA   UNL     1      -8.514   8.836  67.907  1.00  0.00    -0.113 Ca 
HETATM    2  O   UNL     2      -7.323  14.448  67.985  1.00  0.00    -0.114 OA 
HETATM    3  O   UNL     3     -10.497   4.337  71.829  1.00  0.00    -0.096 OA 
HETATM    4  H   UNL     2      -6.373  14.442  68.007  1.00  0.00     0.000 HD 
HETATM    5  C   UNL     2      -7.794  13.102  68.030  1.00  0.00    -0.147 C  
HETATM    6  C   UNL     3      -9.305   4.890  71.279  1.00  0.00    -0.150 C  
HETATM    7  H   UNL     3     -10.515   3.397  71.695  1.00  0.00     0.000 HD 
ENDROOT
BRANCH   5   8
HETATM    8  C   UNL     2      -9.337  13.111  67.994  1.00  0.00    -0.219 C  
HETATM    9  O   UNL     2      -9.803  13.701  69.204  1.00  0.00    -0.411 OA 
HETATM   10  H   UNL     2     -10.754  13.706  69.182  1.00  0.00     0.000 HD 
BRANCH   8  11
HETATM   11  C   UNL     2      -9.864  13.953  66.820  1.00  0.00    -0.274 C  
HETATM   12  H   UNL     2     -10.513  13.674  64.939  1.00  0.00     0.000 HD 
HETATM   13  O   UNL     2     -10.187  13.154  65.665  1.00  0.00    -0.281 OA 
BRANCH  11  14
HETATM   14  C   UNL     2     -11.006  14.970  67.060  1.00  0.00    -0.318 C  
HETATM   15  O   UNL     2     -12.030  14.788  66.096  1.00  0.00    -0.281 OA 
HETATM   16  H   UNL     2     -12.731  15.412  66.243  1.00  0.00     0.000 HD 
BRANCH  14  17
HETATM   17  C   UNL     2     -10.622  16.436  67.334  1.00  0.00    -0.306 C  
HETATM   18  H   UNL     2      -9.470  17.349  68.621  1.00  0.00     0.000 HD 
HETATM   19  O   UNL     2      -9.707  16.444  68.452  1.00  0.00    -0.218 OA 
BRANCH  17  20
HETATM   20  C   UNL     2     -10.068  17.217  66.142  1.00  0.00    -0.305 C  
HETATM   21  O   UNL     2     -10.523  16.662  64.889  1.00  0.00    -0.657 OA 
HETATM   22  C   UNL     2     -10.564  18.684  66.273  1.00  0.00    -0.348 C  
HETATM   23  H   UNL     2     -10.178  17.147  64.148  1.00  0.00     0.000 HD 
HETATM   24  O   UNL     2     -10.551  19.131  67.450  1.00  0.00    -0.433 OA 
HETATM   25  O   UNL     2     -10.926  19.189  65.176  1.00  0.00    -0.464 OA 
ENDBRANCH  17  20
ENDBRANCH  14  17
ENDBRANCH  11  14
ENDBRANCH   8  11
ENDBRANCH   5   8
BRANCH   6  26
HETATM   26  C   UNL     3      -9.275   6.409  71.496  1.00  0.00    -0.144 C  
HETATM   27  H   UNL     3      -7.895   7.743  71.523  1.00  0.00     0.000 HD 
HETATM   28  O   UNL     3      -7.913   6.803  71.389  1.00  0.00    -0.107 OA 
BRANCH  26  29
HETATM   29  C   UNL     3     -10.210   7.162  70.512  1.00  0.00    -0.196 C  
HETATM   30  O   UNL     3     -11.320   6.249  70.101  1.00  0.00    -0.372 OA 
HETATM   31  H   UNL     3     -11.892   6.710  69.498  1.00  0.00     0.000 HD 
BRANCH  29  32
HETATM   32  C   UNL     3     -10.972   8.348  71.142  1.00  0.00    -0.244 C  
HETATM   33  H   UNL     3     -12.861   8.714  71.566  1.00  0.00     0.000 HD 
HETATM   34  O   UNL     3     -12.391   7.985  71.178  1.00  0.00    -0.294 OA 
BRANCH  32  35
HETATM   35  C   UNL     3     -10.696   9.831  70.851  1.00  0.00    -0.305 C  
HETATM   36  H   UNL     3      -9.259  10.806  69.999  1.00  0.00     0.000 HD 
HETATM   37  O   UNL     3      -9.430   9.889  70.180  1.00  0.00    -0.237 OA 
BRANCH  35  38
HETATM   38  C   UNL     3     -11.782  10.597  70.105  1.00  0.00    -0.332 C  
HETATM   39  C   UNL     3     -11.586  10.469  68.572  1.00  0.00    -0.148 C  
HETATM   40  O   UNL     3     -11.761  11.995  70.456  1.00  0.00    -0.510 OA 
HETATM   41  O   UNL     3     -10.642   9.708  68.191  1.00  0.00    -0.211 OA 
HETATM   42  O   UNL     3     -12.238  11.319  67.904  1.00  0.00    -0.570 OA 
HETATM   43  H   UNL     3     -12.438  12.472  69.991  1.00  0.00     0.000 HD 
ENDBRANCH  35  38
ENDBRANCH  32  35
ENDBRANCH  29  32
ENDBRANCH  26  29
ENDBRANCH   6  26
TORSDOF 10
ENDMDL
MODEL      265
REMARK 921   NORMALIZED FREE ENERGY PREDICTED BY IDOCK:   -5.03 KCAL/MOL
REMARK 922        TOTAL FREE ENERGY PREDICTED BY IDOCK:  -10.46 KCAL/MOL
REMARK 923 INTER-LIGAND FREE ENERGY PREDICTED BY IDOCK:   -8.31 KCAL/MOL
REMARK 924 INTRA-LIGAND FREE ENERGY PREDICTED BY IDOCK:   -2.15 KCAL/MOL
REMARK 927      BINDING AFFINITY PREDICTED BY RF-SCORE:    0.00 PKD
ROOT
HETATM    1 CA   UNL     1      -9.507  11.103  69.975  1.00  0.00    -0.392 Ca 
HETATM    2  O   UNL     2     -12.568  15.907  70.665  1.00  0.00    -0.455 OA 
HETATM    3  O   UNL     3     -10.411   4.886  69.685  1.00  0.00    -0.206 OA 
HETATM    4  H   UNL     2     -12.384  16.122  71.572  1.00  0.00     0.000 HD 
HETATM    5  C   UNL     2     -11.923  14.675  70.344  1.00  0.00    -0.311 C  
HETATM    6  C   UNL     3     -10.048   5.918  70.598  1.00  0.00    -0.197 C  
HETATM    7  H   UNL     3      -9.765   4.189  69.703  1.00  0.00     0.000 HD 
ENDROOT
BRANCH   5   8
HETATM    8  C   UNL     2     -12.221  14.325  68.871  1.00  0.00    -0.205 C  
HETATM    9  O   UNL     2     -12.323  15.541  68.139  1.00  0.00    -0.351 OA 
HETATM   10  H   UNL     2     -12.507  15.325  67.232  1.00  0.00     0.000 HD 
BRANCH   8  11
HETATM   11  C   UNL     2     -11.087  13.491  68.254  1.00  0.00    -0.261 C  
HETATM   12  H   UNL     2     -10.831  12.156  66.774  1.00  0.00     0.000 HD 
HETATM   13  O   UNL     2     -11.532  12.672  67.155  1.00  0.00    -0.305 OA 
BRANCH  11  14
HETATM   14  C   UNL     2      -9.759  14.182  67.856  1.00  0.00    -0.224 C  
HETATM   15  O   UNL     2      -8.823  14.084  68.917  1.00  0.00    -0.357 OA 
HETATM   16  H   UNL     2      -8.009  14.508  68.673  1.00  0.00     0.000 HD 
BRANCH  14  17
HETATM   17  C   UNL     2      -9.838  15.565  67.183  1.00  0.00    -0.235 C  
HETATM   18  H   UNL     2      -8.881  17.256  67.377  1.00  0.00     0.000 HD 
HETATM   19  O   UNL     2      -8.832  16.403  67.793  1.00  0.00    -0.187 OA 
BRANCH  17  20
HETATM   20  C   UNL     2      -9.735  15.573  65.658  1.00  0.00    -0.320 C  
HETATM   21  O   UNL     2     -10.142  14.308  65.093  1.00  0.00    -0.448 OA 
HETATM   22  C   UNL     2     -10.667  16.701  65.132  1.00  0.00    -0.189 C  
HETATM   23  H   UNL     2     -10.077  14.313  64.145  1.00  0.00     0.000 HD 
HETATM   24  O   UNL     2     -10.648  17.752  65.826  1.00  0.00    -0.509 OA 
HETATM   25  O   UNL     2     -11.317  16.374  64.103  1.00  0.00    -0.941 OA 
ENDBRANCH  17  20
ENDBRANCH  14  17
ENDBRANCH  11  14
ENDBRANCH   8  11
ENDBRANCH   5   8
BRANCH   6  26
HETATM   26  C   UNL     3     -11.092   7.043  70.568  1.00  0.00    -0.280 C  
HETATM   27  H   UNL     3     -12.328   7.773  71.843  1.00  0.00     0.000 HD 
HETATM   28  O   UNL     3     -11.682   7.076  71.861  1.00  0.00    -0.273 OA 
BRANCH  26  29
HETATM   29  C   UNL     3     -10.480   8.402  70.137  1.00  0.00    -0.228 C  
HETATM   30  O   UNL     3      -9.137   8.554  70.776  1.00  0.00    -0.145 OA 
HETATM   31  H   UNL     3      -8.763   9.387  70.513  1.00  0.00     0.000 HD 
BRANCH  29  32
HETATM   32  C   UNL     3     -10.145   8.499  68.633  1.00  0.00    -0.190 C  
HETATM   33  H   UNL     3     -10.643   7.466  67.032  1.00  0.00     0.000 HD 
HETATM   34  O   UNL     3     -10.849   7.406  67.957  1.00  0.00    -0.161 OA 
BRANCH  32  35
HETATM   35  C   UNL     3      -8.758   8.823  68.057  1.00  0.00    -0.141 C  
HETATM   36  H   UNL     3      -7.260   7.768  67.440  1.00  0.00     0.000 HD 
HETATM   37  O   UNL     3      -8.117   7.567  67.796  1.00  0.00    -0.116 OA 
BRANCH  35  38
HETATM   38  C   UNL     3      -8.718   9.754  66.850  1.00  0.00    -0.135 C  
HETATM   39  C   UNL     3      -8.096  11.122  67.235  1.00  0.00    -0.137 C  
HETATM   40  O   UNL     3     -10.044   9.982  66.331  1.00  0.00    -0.227 OA 
HETATM   41  O   UNL     3      -7.656  11.220  68.424  1.00  0.00    -0.105 OA 
HETATM   42  O   UNL     3      -8.319  12.036  66.394  1.00  0.00    -0.088 OA 
HETATM   43  H   UNL     3     -10.019  10.563  65.579  1.00  0.00     0.000 HD 
ENDBRANCH  35  38
ENDBRANCH  32  35
ENDBRANCH  29  32
ENDBRANCH  26  29
ENDBRANCH   6  26
TORSDOF 10
ENDMDL
MODEL      266
REMARK 921   NORMALIZED FREE ENERGY PREDICTED BY IDOCK:   -5.02 KCAL/MOL
REMARK 922        TOTAL FREE ENERGY PREDICTED BY IDOCK:  -10.45 KCAL/MOL
REMARK 923 INTER-LIGAND FREE ENERGY PREDICTED BY IDOCK:   -8.41 KCAL/MOL
REMARK 924 INTRA-LIGAND FREE ENERGY PREDICTED BY IDOCK:   -2.04 KCAL/MOL
REMARK 927      BINDING AFFINITY PREDICTED BY RF-SCORE:    0.00 PKD
ROOT
HETATM    1 CA   UNL     1     -13.062  13.476  68.835  1.00  0.00    -0.115 Ca 
HETATM    2  O   UNL     2     -13.374   9.303  72.760  1.00  0.00    -0.593 OA 
HETATM    3  O   UNL     3      -9.570  18.546  67.548  1.00  0.00    -0.281 OA 
HETATM    4  H   UNL     2     -14.107   9.593  73.291  1.00  0.00     0.000 HD 
HETATM    5  C   UNL     2     -13.115  10.283  71.756  1.00  0.00    -0.465 C  
HETATM    6  C   UNL     3     -10.786  18.163  68.184  1.00  0.00    -0.221 C  
HETATM    7  H   UNL     3      -9.734  19.236  66.916  1.00  0.00     0.000 HD 
ENDROOT
BRANCH   5   8
HETATM    8  C   UNL     2     -11.924   9.812  70.894  1.00  0.00    -0.328 C  
HETATM    9  O   UNL     2     -12.072   8.415  70.662  1.00  0.00    -0.490 OA 
HETATM   10  H   UNL     2     -11.339   8.125  70.131  1.00  0.00     0.000 HD 
BRANCH   8  11
HETATM   11  C   UNL     2     -11.905  10.523  69.531  1.00  0.00    -0.215 C  
HETATM   12  H   UNL     2     -11.964  12.397  68.809  1.00  0.00     0.000 HD 
HETATM   13  O   UNL     2     -11.976  11.957  69.651  1.00  0.00    -0.304 OA 
BRANCH  11  14
HETATM   14  C   UNL     2     -10.811  10.162  68.496  1.00  0.00    -0.237 C  
HETATM   15  O   UNL     2     -11.409   9.650  67.316  1.00  0.00    -0.259 OA 
HETATM   16  H   UNL     2     -10.738   9.429  66.681  1.00  0.00     0.000 HD 
BRANCH  14  17
HETATM   17  C   UNL     2      -9.577   9.385  68.990  1.00  0.00    -0.164 C  
HETATM   18  H   UNL     2      -9.133   7.497  69.231  1.00  0.00     0.000 HD 
HETATM   19  O   UNL     2      -9.895   7.977  68.926  1.00  0.00    -0.167 OA 
BRANCH  17  20
HETATM   20  C   UNL     2      -8.259   9.700  68.282  1.00  0.00    -0.106 C  
HETATM   21  O   UNL     2      -8.482  10.401  67.038  1.00  0.00    -0.126 OA 
HETATM   22  C   UNL     2      -7.416  10.591  69.237  1.00  0.00    -0.122 C  
HETATM   23  H   UNL     2      -7.663  10.597  66.598  1.00  0.00     0.000 HD 
HETATM   24  O   UNL     2      -7.479  10.252  70.449  1.00  0.00    -0.250 OA 
HETATM   25  O   UNL     2      -6.820  11.532  68.648  1.00  0.00    -0.066 OA 
ENDBRANCH  17  20
ENDBRANCH  14  17
ENDBRANCH  11  14
ENDBRANCH   8  11
ENDBRANCH   5   8
BRANCH   6  26
HETATM   26  C   UNL     3     -10.521  17.048  69.205  1.00  0.00    -0.293 C  
HETATM   27  H   UNL     3     -11.475  15.483  69.774  1.00  0.00     0.000 HD 
HETATM   28  O   UNL     3     -11.640  16.173  69.142  1.00  0.00    -0.342 OA 
BRANCH  26  29
HETATM   29  C   UNL     3      -9.167  16.331  68.956  1.00  0.00    -0.253 C  
HETATM   30  O   UNL     3      -8.924  15.353  70.060  1.00  0.00    -0.317 OA 
HETATM   31  H   UNL     3      -8.095  14.914  69.907  1.00  0.00     0.000 HD 
BRANCH  29  32
HETATM   32  C   UNL     3      -9.149  15.428  67.703  1.00  0.00    -0.182 C  
HETATM   33  H   UNL     3      -7.849  15.076  66.266  1.00  0.00     0.000 HD 
HETATM   34  O   UNL     3      -7.861  15.632  67.036  1.00  0.00    -0.200 OA 
BRANCH  32  35
HETATM   35  C   UNL     3     -10.337  15.211  66.753  1.00  0.00    -0.273 C  
HETATM   36  H   UNL     3     -11.011  16.123  65.186  1.00  0.00     0.000 HD 
HETATM   37  O   UNL     3     -10.277  16.257  65.774  1.00  0.00    -0.345 OA 
BRANCH  35  38
HETATM   38  C   UNL     3     -10.463  13.831  66.118  1.00  0.00    -0.297 C  
HETATM   39  C   UNL     3     -11.945  13.370  66.102  1.00  0.00    -0.413 C  
HETATM   40  O   UNL     3      -9.688  12.856  66.844  1.00  0.00    -0.227 OA 
HETATM   41  O   UNL     3     -12.796  14.214  66.523  1.00  0.00    -0.164 OA 
HETATM   42  O   UNL     3     -12.090  12.134  65.892  1.00  0.00    -0.594 OA 
HETATM   43  H   UNL     3      -9.766  11.996  66.448  1.00  0.00     0.000 HD 
ENDBRANCH  35  38
ENDBRANCH  32  35
ENDBRANCH  29  32
ENDBRANCH  26  29
ENDBRANCH   6  26
TORSDOF 10
ENDMDL
MODEL      267
REMARK 921   NORMALIZED FREE ENERGY PREDICTED BY IDOCK:   -5.01 KCAL/MOL
REMARK 922        TOTAL FREE ENERGY PREDICTED BY IDOCK:  -10.44 KCAL/MOL
REMARK 923 INTER-LIGAND FREE ENERGY PREDICTED BY IDOCK:   -8.28 KCAL/MOL
REMARK 924 INTRA-LIGAND FREE ENERGY PREDICTED BY IDOCK:   -2.16 KCAL/MOL
REMARK 927      BINDING AFFINITY PREDICTED BY RF-SCORE:    0.00 PKD
ROOT
HETATM    1 CA   UNL     1      -8.241  14.631  65.690  1.00  0.00    -0.250 Ca 
HETATM    2  O   UNL     2     -12.649  12.457  62.728  1.00  0.00    -0.423 OA 
HETATM    3  O   UNL     3      -5.992  20.236  67.446  1.00  0.00    -0.176 OA 
HETATM    4  H   UNL     2     -12.233  12.233  61.903  1.00  0.00     0.000 HD 
HETATM    5  C   UNL     2     -11.686  13.084  63.574  1.00  0.00    -0.471 C  
HETATM    6  C   UNL     3      -5.840  19.240  66.438  1.00  0.00    -0.164 C  
HETATM    7  H   UNL     3      -5.149  20.444  67.831  1.00  0.00     0.000 HD 
ENDROOT
BRANCH   5   8
HETATM    8  C   UNL     2     -12.360  13.448  64.914  1.00  0.00    -0.412 C  
HETATM    9  O   UNL     2     -13.488  12.597  65.086  1.00  0.00    -0.364 OA 
HETATM   10  H   UNL     2     -13.904  12.822  65.911  1.00  0.00     0.000 HD 
BRANCH   8  11
HETATM   11  C   UNL     2     -11.407  13.223  66.098  1.00  0.00    -0.309 C  
HETATM   12  H   UNL     2     -10.907  14.125  67.823  1.00  0.00     0.000 HD 
HETATM   13  O   UNL     2     -11.496  14.265  67.090  1.00  0.00    -0.324 OA 
BRANCH  11  14
HETATM   14  C   UNL     2     -11.390  11.850  66.816  1.00  0.00    -0.330 C  
HETATM   15  O   UNL     2     -12.077  11.940  68.053  1.00  0.00    -0.541 OA 
HETATM   16  H   UNL     2     -12.067  11.098  68.493  1.00  0.00     0.000 HD 
BRANCH  14  17
HETATM   17  C   UNL     2     -10.059  11.077  66.864  1.00  0.00    -0.210 C  
HETATM   18  H   UNL     2      -8.291  11.313  66.069  1.00  0.00     0.000 HD 
HETATM   19  O   UNL     2      -9.112  11.790  66.039  1.00  0.00    -0.212 OA 
BRANCH  17  20
HETATM   20  C   UNL     2      -9.498  10.796  68.258  1.00  0.00    -0.164 C  
HETATM   21  O   UNL     2      -9.011   9.440  68.369  1.00  0.00    -0.128 OA 
HETATM   22  C   UNL     2      -8.328  11.791  68.500  1.00  0.00    -0.131 C  
HETATM   23  H   UNL     2      -8.663   9.266  69.235  1.00  0.00     0.000 HD 
HETATM   24  O   UNL     2      -8.543  12.955  68.070  1.00  0.00    -0.169 OA 
HETATM   25  O   UNL     2      -7.335  11.266  69.071  1.00  0.00    -0.108 OA 
ENDBRANCH  17  20
ENDBRANCH  14  17
ENDBRANCH  11  14
ENDBRANCH   8  11
ENDBRANCH   5   8
BRANCH   6  26
HETATM   26  C   UNL     3      -7.202  18.903  65.815  1.00  0.00    -0.211 C  
HETATM   27  H   UNL     3      -8.113  17.277  65.359  1.00  0.00     0.000 HD 
HETATM   28  O   UNL     3      -7.270  17.485  65.744  1.00  0.00    -0.414 OA 
BRANCH  26  29
HETATM   29  C   UNL     3      -8.381  19.536  66.602  1.00  0.00    -0.318 C  
HETATM   30  O   UNL     3      -9.199  20.366  65.666  1.00  0.00    -0.522 OA 
HETATM   31  H   UNL     3      -9.921  20.753  66.148  1.00  0.00     0.000 HD 
BRANCH  29  32
HETATM   32  C   UNL     3      -9.413  18.515  67.128  1.00  0.00    -0.289 C  
HETATM   33  H   UNL     3     -11.360  18.288  66.937  1.00  0.00     0.000 HD 
HETATM   34  O   UNL     3     -10.725  18.916  66.614  1.00  0.00    -0.398 OA 
BRANCH  32  35
HETATM   35  C   UNL     3      -9.431  17.929  68.548  1.00  0.00    -0.313 C  
HETATM   36  H   UNL     3     -10.814  17.536  69.841  1.00  0.00     0.000 HD 
HETATM   37  O   UNL     3     -10.803  17.898  68.963  1.00  0.00     0.093 OA 
BRANCH  35  38
HETATM   38  C   UNL     3      -8.737  16.585  68.744  1.00  0.00    -0.259 C  
HETATM   39  C   UNL     3      -7.251  16.790  69.138  1.00  0.00    -0.214 C  
HETATM   40  O   UNL     3      -8.788  15.798  67.538  1.00  0.00    -0.181 OA 
HETATM   41  O   UNL     3      -6.880  17.993  69.313  1.00  0.00    -0.248 OA 
HETATM   42  O   UNL     3      -6.543  15.753  69.005  1.00  0.00    -0.120 OA 
HETATM   43  H   UNL     3      -8.356  14.961  67.660  1.00  0.00     0.000 HD 
ENDBRANCH  35  38
ENDBRANCH  32  35
ENDBRANCH  29  32
ENDBRANCH  26  29
ENDBRANCH   6  26
TORSDOF 10
ENDMDL
MODEL      268
REMARK 921   NORMALIZED FREE ENERGY PREDICTED BY IDOCK:   -5.01 KCAL/MOL
REMARK 922        TOTAL FREE ENERGY PREDICTED BY IDOCK:  -10.44 KCAL/MOL
REMARK 923 INTER-LIGAND FREE ENERGY PREDICTED BY IDOCK:   -8.69 KCAL/MOL
REMARK 924 INTRA-LIGAND FREE ENERGY PREDICTED BY IDOCK:   -1.75 KCAL/MOL
REMARK 927      BINDING AFFINITY PREDICTED BY RF-SCORE:    0.00 PKD
ROOT
HETATM    1 CA   UNL     1     -10.040  15.341  66.602  1.00  0.00    -0.232 Ca 
HETATM    2  O   UNL     2      -9.289  10.585  69.722  1.00  0.00    -0.418 OA 
HETATM    3  O   UNL     3      -6.872  20.535  65.007  1.00  0.00    -0.428 OA 
HETATM    4  H   UNL     2      -9.787  10.788  70.505  1.00  0.00     0.000 HD 
HETATM    5  C   UNL     2      -9.317  11.714  68.851  1.00  0.00     0.047 C  
HETATM    6  C   UNL     3      -7.831  20.059  65.948  1.00  0.00    -0.259 C  
HETATM    7  H   UNL     3      -7.194  21.320  64.580  1.00  0.00     0.000 HD 
ENDROOT
BRANCH   5   8
HETATM    8  C   UNL     2      -8.507  11.383  67.579  1.00  0.00    -0.137 C  
HETATM    9  O   UNL     2      -7.546  10.388  67.913  1.00  0.00    -0.087 OA 
HETATM   10  H   UNL     2      -7.047  10.185  67.130  1.00  0.00     0.000 HD 
BRANCH   8  11
HETATM   11  C   UNL     2      -9.412  10.819  66.472  1.00  0.00    -0.169 C  
HETATM   12  H   UNL     2     -10.825   9.406  66.255  1.00  0.00     0.000 HD 
HETATM   13  O   UNL     2     -10.265   9.755  66.939  1.00  0.00    -0.223 OA 
BRANCH  11  14
HETATM   14  C   UNL     2     -10.252  11.787  65.602  1.00  0.00    -0.246 C  
HETATM   15  O   UNL     2      -9.540  12.996  65.396  1.00  0.00    -0.476 OA 
HETATM   16  H   UNL     2     -10.055  13.590  64.862  1.00  0.00     0.000 HD 
BRANCH  14  17
HETATM   17  C   UNL     2     -11.743  11.960  65.948  1.00  0.00    -0.136 C  
HETATM   18  H   UNL     2     -12.780  12.049  67.601  1.00  0.00     0.000 HD 
HETATM   19  O   UNL     2     -11.860  11.942  67.388  1.00  0.00    -0.571 OA 
BRANCH  17  20
HETATM   20  C   UNL     2     -12.435  13.178  65.338  1.00  0.00    -0.481 C  
HETATM   21  O   UNL     2     -11.657  14.380  65.531  1.00  0.00    -0.335 OA 
HETATM   22  C   UNL     2     -12.603  12.907  63.816  1.00  0.00    -0.244 C  
HETATM   23  H   UNL     2     -12.087  15.138  65.152  1.00  0.00     0.000 HD 
HETATM   24  O   UNL     2     -12.928  11.723  63.535  1.00  0.00    -0.625 OA 
HETATM   25  O   UNL     2     -12.363  13.915  63.099  1.00  0.00    -0.696 OA 
ENDBRANCH  17  20
ENDBRANCH  14  17
ENDBRANCH  11  14
ENDBRANCH   8  11
ENDBRANCH   5   8
BRANCH   6  26
HETATM   26  C   UNL     3      -7.311  18.790  66.639  1.00  0.00    -0.225 C  
HETATM   27  H   UNL     3      -5.590  18.190  67.241  1.00  0.00     0.000 HD 
HETATM   28  O   UNL     3      -5.912  18.974  66.813  1.00  0.00    -0.166 OA 
BRANCH  26  29
HETATM   29  C   UNL     3      -8.060  18.494  67.965  1.00  0.00    -0.271 C  
HETATM   30  O   UNL     3      -9.181  19.471  68.119  1.00  0.00    -0.327 OA 
HETATM   31  H   UNL     3      -9.640  19.289  68.931  1.00  0.00     0.000 HD 
BRANCH  29  32
HETATM   32  C   UNL     3      -8.797  17.137  67.987  1.00  0.00    -0.229 C  
HETATM   33  H   UNL     3     -10.688  16.586  68.018  1.00  0.00     0.000 HD 
HETATM   34  O   UNL     3     -10.234  17.421  68.005  1.00  0.00    -0.309 OA 
BRANCH  32  35
HETATM   35  C   UNL     3      -8.374  15.915  68.818  1.00  0.00    -0.206 C  
HETATM   36  H   UNL     3      -9.318  14.553  69.814  1.00  0.00     0.000 HD 
HETATM   37  O   UNL     3      -9.580  15.309  69.300  1.00  0.00    -0.227 OA 
BRANCH  35  38
HETATM   38  C   UNL     3      -7.453  14.909  68.136  1.00  0.00    -0.115 C  
HETATM   39  C   UNL     3      -5.973  15.363  68.243  1.00  0.00    -0.119 C  
HETATM   40  O   UNL     3      -7.789  14.765  66.742  1.00  0.00    -0.323 OA 
HETATM   41  O   UNL     3      -5.759  16.413  68.927  1.00  0.00    -0.123 OA 
HETATM   42  O   UNL     3      -5.200  14.765  67.444  1.00  0.00    -0.334 OA 
HETATM   43  H   UNL     3      -7.215  14.138  66.317  1.00  0.00     0.000 HD 
ENDBRANCH  35  38
ENDBRANCH  32  35
ENDBRANCH  29  32
ENDBRANCH  26  29
ENDBRANCH   6  26
TORSDOF 10
ENDMDL
MODEL      269
REMARK 921   NORMALIZED FREE ENERGY PREDICTED BY IDOCK:   -5.01 KCAL/MOL
REMARK 922        TOTAL FREE ENERGY PREDICTED BY IDOCK:  -10.43 KCAL/MOL
REMARK 923 INTER-LIGAND FREE ENERGY PREDICTED BY IDOCK:   -9.34 KCAL/MOL
REMARK 924 INTRA-LIGAND FREE ENERGY PREDICTED BY IDOCK:   -1.09 KCAL/MOL
REMARK 927      BINDING AFFINITY PREDICTED BY RF-SCORE:    0.00 PKD
ROOT
HETATM    1 CA   UNL     1     -10.470  14.836  65.717  1.00  0.00    -0.262 Ca 
HETATM    2  O   UNL     2     -12.406  10.379  68.768  1.00  0.00    -0.691 OA 
HETATM    3  O   UNL     3      -8.043  20.559  66.671  1.00  0.00    -0.497 OA 
HETATM    4  H   UNL     2     -13.347  10.482  68.683  1.00  0.00     0.000 HD 
HETATM    5  C   UNL     2     -11.761  11.467  68.108  1.00  0.00    -0.284 C  
HETATM    6  C   UNL     3      -9.278  19.903  66.397  1.00  0.00    -0.380 C  
HETATM    7  H   UNL     3      -7.893  21.254  66.041  1.00  0.00     0.000 HD 
ENDROOT
BRANCH   5   8
HETATM    8  C   UNL     2     -10.233  11.298  68.246  1.00  0.00    -0.186 C  
HETATM    9  O   UNL     2      -9.750  12.333  69.097  1.00  0.00    -0.383 OA 
HETATM   10  H   UNL     2      -8.809  12.229  69.182  1.00  0.00     0.000 HD 
BRANCH   8  11
HETATM   11  C   UNL     2      -9.875   9.948  68.888  1.00  0.00    -0.176 C  
HETATM   12  H   UNL     2      -8.757   8.331  68.471  1.00  0.00     0.000 HD 
HETATM   13  O   UNL     2      -8.978   9.166  68.075  1.00  0.00    -0.129 OA 
BRANCH  11  14
HETATM   14  C   UNL     2      -9.385   9.904  70.356  1.00  0.00    -0.004 C  
HETATM   15  O   UNL     2      -8.028  10.310  70.428  1.00  0.00    -0.423 OA 
HETATM   16  H   UNL     2      -7.727  10.284  71.329  1.00  0.00     0.000 HD 
BRANCH  14  17
HETATM   17  C   UNL     2      -9.740   8.666  71.200  1.00  0.00    -0.224 C  
HETATM   18  H   UNL     2      -9.375   8.085  73.029  1.00  0.00     0.000 HD 
HETATM   19  O   UNL     2      -9.156   8.850  72.509  1.00  0.00    -0.349 OA 
BRANCH  17  20
HETATM   20  C   UNL     2     -11.225   8.317  71.286  1.00  0.00    -0.259 C  
HETATM   21  O   UNL     2     -11.738   7.869  70.012  1.00  0.00    -0.471 OA 
HETATM   22  C   UNL     2     -11.380   7.182  72.337  1.00  0.00    -0.274 C  
HETATM   23  H   UNL     2     -12.662   7.653  70.065  1.00  0.00     0.000 HD 
HETATM   24  O   UNL     2     -10.647   7.316  73.353  1.00  0.00    -0.346 OA 
HETATM   25  O   UNL     2     -12.199   6.289  71.992  1.00  0.00    -0.338 OA 
ENDBRANCH  17  20
ENDBRANCH  14  17
ENDBRANCH  11  14
ENDBRANCH   8  11
ENDBRANCH   5   8
BRANCH   6  26
HETATM   26  C   UNL     3      -9.519  18.780  67.416  1.00  0.00    -0.297 C  
HETATM   27  H   UNL     3     -10.377  18.672  69.129  1.00  0.00     0.000 HD 
HETATM   28  O   UNL     3     -10.228  19.368  68.499  1.00  0.00    -0.412 OA 
BRANCH  26  29
HETATM   29  C   UNL     3     -10.253  17.565  66.789  1.00  0.00    -0.327 C  
HETATM   30  O   UNL     3      -9.471  17.081  65.610  1.00  0.00    -0.526 OA 
HETATM   31  H   UNL     3      -9.921  16.337  65.226  1.00  0.00     0.000 HD 
BRANCH  29  32
HETATM   32  C   UNL     3     -10.297  16.315  67.694  1.00  0.00    -0.284 C  
HETATM   33  H   UNL     3     -11.693  15.425  68.763  1.00  0.00     0.000 HD 
HETATM   34  O   UNL     3     -11.665  16.195  68.206  1.00  0.00    -0.281 OA 
BRANCH  32  35
HETATM   35  C   UNL     3      -9.201  15.905  68.689  1.00  0.00    -0.209 C  
HETATM   36  H   UNL     3      -9.190  15.110  70.452  1.00  0.00     0.000 HD 
HETATM   37  O   UNL     3      -9.868  15.364  69.836  1.00  0.00    -0.270 OA 
BRANCH  35  38
HETATM   38  C   UNL     3      -8.110  14.978  68.163  1.00  0.00    -0.131 C  
HETATM   39  C   UNL     3      -6.765  15.739  68.028  1.00  0.00    -0.132 C  
HETATM   40  O   UNL     3      -8.467  14.443  66.873  1.00  0.00    -0.320 OA 
HETATM   41  O   UNL     3      -6.759  16.941  68.440  1.00  0.00    -0.154 OA 
HETATM   42  O   UNL     3      -5.914  15.142  67.311  1.00  0.00    -0.325 OA 
HETATM   43  H   UNL     3      -7.787  13.865  66.545  1.00  0.00     0.000 HD 
ENDBRANCH  35  38
ENDBRANCH  32  35
ENDBRANCH  29  32
ENDBRANCH  26  29
ENDBRANCH   6  26
TORSDOF 10
ENDMDL
MODEL      270
REMARK 921   NORMALIZED FREE ENERGY PREDICTED BY IDOCK:   -5.00 KCAL/MOL
REMARK 922        TOTAL FREE ENERGY PREDICTED BY IDOCK:  -10.42 KCAL/MOL
REMARK 923 INTER-LIGAND FREE ENERGY PREDICTED BY IDOCK:   -8.22 KCAL/MOL
REMARK 924 INTRA-LIGAND FREE ENERGY PREDICTED BY IDOCK:   -2.21 KCAL/MOL
REMARK 927      BINDING AFFINITY PREDICTED BY RF-SCORE:    0.00 PKD
ROOT
HETATM    1 CA   UNL     1     -13.509  10.674  69.363  1.00  0.00    -0.371 Ca 
HETATM    2  O   UNL     2     -10.589   7.619  73.243  1.00  0.00    -0.365 OA 
HETATM    3  O   UNL     3     -12.726  13.008  63.575  1.00  0.00    -0.708 OA 
HETATM    4  H   UNL     2     -10.322   8.293  73.857  1.00  0.00     0.000 HD 
HETATM    5  C   UNL     2     -11.284   8.231  72.158  1.00  0.00    -0.345 C  
HETATM    6  C   UNL     3     -12.631  13.377  64.948  1.00  0.00    -0.360 C  
HETATM    7  H   UNL     3     -13.271  13.629  63.106  1.00  0.00     0.000 HD 
ENDROOT
BRANCH   5   8
HETATM    8  C   UNL     2     -11.717   7.136  71.160  1.00  0.00    -0.313 C  
HETATM    9  O   UNL     2     -13.021   7.458  70.689  1.00  0.00    -0.583 OA 
HETATM   10  H   UNL     2     -13.288   6.783  70.075  1.00  0.00     0.000 HD 
BRANCH   8  11
HETATM   11  C   UNL     2     -10.773   7.080  69.948  1.00  0.00    -0.240 C  
HETATM   12  H   UNL     2      -8.799   7.072  69.575  1.00  0.00     0.000 HD 
HETATM   13  O   UNL     2      -9.382   7.106  70.325  1.00  0.00    -0.156 OA 
BRANCH  11  14
HETATM   14  C   UNL     2     -10.978   5.987  68.870  1.00  0.00    -0.325 C  
HETATM   15  O   UNL     2     -10.285   4.805  69.238  1.00  0.00    -0.189 OA 
HETATM   16  H   UNL     2     -10.411   4.135  68.576  1.00  0.00     0.000 HD 
BRANCH  14  17
HETATM   17  C   UNL     2     -10.830   6.395  67.391  1.00  0.00    -0.375 C  
HETATM   18  H   UNL     2     -11.136   8.031  66.369  1.00  0.00     0.000 HD 
HETATM   19  O   UNL     2     -11.227   7.780  67.281  1.00  0.00     0.041 OA 
BRANCH  17  20
HETATM   20  C   UNL     2      -9.460   6.145  66.761  1.00  0.00    -0.146 C  
HETATM   21  O   UNL     2      -8.407   6.200  67.748  1.00  0.00    -0.116 OA 
HETATM   22  C   UNL     2      -9.493   4.733  66.114  1.00  0.00    -0.163 C  
HETATM   23  H   UNL     2      -7.555   6.045  67.356  1.00  0.00     0.000 HD 
HETATM   24  O   UNL     2     -10.576   4.457  65.531  1.00  0.00    -0.265 OA 
HETATM   25  O   UNL     2      -8.435   4.073  66.296  1.00  0.00    -0.108 OA 
ENDBRANCH  17  20
ENDBRANCH  14  17
ENDBRANCH  11  14
ENDBRANCH   8  11
ENDBRANCH   5   8
BRANCH   6  26
HETATM   26  C   UNL     3     -11.751  12.374  65.707  1.00  0.00    -0.414 C  
HETATM   27  H   UNL     3     -11.402  10.493  65.546  1.00  0.00     0.000 HD 
HETATM   28  O   UNL     3     -11.946  11.114  65.077  1.00  0.00     0.351 OA 
BRANCH  26  29
HETATM   29  C   UNL     3     -10.263  12.812  65.751  1.00  0.00    -0.289 C  
HETATM   30  O   UNL     3      -9.807  13.128  64.362  1.00  0.00    -0.617 OA 
HETATM   31  H   UNL     3      -8.896  13.396  64.390  1.00  0.00     0.000 HD 
BRANCH  29  32
HETATM   32  C   UNL     3     -10.016  14.145  66.491  1.00  0.00    -0.283 C  
HETATM   33  H   UNL     3      -9.073  15.819  66.057  1.00  0.00     0.000 HD 
HETATM   34  O   UNL     3      -9.225  14.999  65.601  1.00  0.00    -0.170 OA 
BRANCH  32  35
HETATM   35  C   UNL     3      -9.670  14.276  67.983  1.00  0.00    -0.223 C  
HETATM   36  H   UNL     3      -8.520  15.438  69.016  1.00  0.00     0.000 HD 
HETATM   37  O   UNL     3      -8.734  15.357  68.094  1.00  0.00    -0.158 OA 
BRANCH  35  38
HETATM   38  C   UNL     3     -10.841  14.422  68.948  1.00  0.00    -0.256 C  
HETATM   39  C   UNL     3     -11.315  13.032  69.447  1.00  0.00    -0.206 C  
HETATM   40  O   UNL     3     -11.952  15.086  68.313  1.00  0.00    -0.497 OA 
HETATM   41  O   UNL     3     -10.628  12.036  69.058  1.00  0.00    -0.190 OA 
HETATM   42  O   UNL     3     -12.457  13.048  69.983  1.00  0.00    -0.179 OA 
HETATM   43  H   UNL     3     -12.682  15.177  68.915  1.00  0.00     0.000 HD 
ENDBRANCH  35  38
ENDBRANCH  32  35
ENDBRANCH  29  32
ENDBRANCH  26  29
ENDBRANCH   6  26
TORSDOF 10
ENDMDL
MODEL      271
REMARK 921   NORMALIZED FREE ENERGY PREDICTED BY IDOCK:   -4.99 KCAL/MOL
REMARK 922        TOTAL FREE ENERGY PREDICTED BY IDOCK:  -10.41 KCAL/MOL
REMARK 923 INTER-LIGAND FREE ENERGY PREDICTED BY IDOCK:   -8.67 KCAL/MOL
REMARK 924 INTRA-LIGAND FREE ENERGY PREDICTED BY IDOCK:   -1.74 KCAL/MOL
REMARK 927      BINDING AFFINITY PREDICTED BY RF-SCORE:    0.00 PKD
ROOT
HETATM    1 CA   UNL     1     -12.086   9.775  68.484  1.00  0.00    -0.499 Ca 
HETATM    2  O   UNL     2      -9.826  12.587  64.022  1.00  0.00    -0.587 OA 
HETATM    3  O   UNL     3     -10.261   5.880  73.072  1.00  0.00    -0.179 OA 
HETATM    4  H   UNL     2     -10.111  12.048  63.292  1.00  0.00     0.000 HD 
HETATM    5  C   UNL     2     -10.257  11.979  65.239  1.00  0.00    -0.271 C  
HETATM    6  C   UNL     3     -10.842   5.875  71.771  1.00  0.00    -0.260 C  
HETATM    7  H   UNL     3     -10.798   5.376  73.673  1.00  0.00     0.000 HD 
ENDROOT
BRANCH   5   8
HETATM    8  C   UNL     2      -9.795  12.853  66.424  1.00  0.00    -0.268 C  
HETATM    9  O   UNL     2      -8.377  12.968  66.362  1.00  0.00    -0.382 OA 
HETATM   10  H   UNL     2      -8.093  13.506  67.092  1.00  0.00     0.000 HD 
BRANCH   8  11
HETATM   11  C   UNL     2     -10.392  14.267  66.342  1.00  0.00    -0.286 C  
HETATM   12  H   UNL     2     -11.758  15.383  67.304  1.00  0.00     0.000 HD 
HETATM   13  O   UNL     2     -11.389  14.509  67.355  1.00  0.00    -0.325 OA 
BRANCH  11  14
HETATM   14  C   UNL     2      -9.449  15.492  66.267  1.00  0.00    -0.323 C  
HETATM   15  O   UNL     2      -8.795  15.680  67.512  1.00  0.00    -0.175 OA 
HETATM   16  H   UNL     2      -8.216  16.432  67.465  1.00  0.00     0.000 HD 
BRANCH  14  17
HETATM   17  C   UNL     2      -9.986  16.779  65.612  1.00  0.00    -0.134 C  
HETATM   18  H   UNL     2     -11.401  17.194  64.331  1.00  0.00     0.000 HD 
HETATM   19  O   UNL     2     -11.069  16.400  64.735  1.00  0.00    -0.592 OA 
BRANCH  17  20
HETATM   20  C   UNL     2     -10.398  17.896  66.571  1.00  0.00    -0.362 C  
HETATM   21  O   UNL     2     -10.867  17.365  67.831  1.00  0.00    -0.375 OA 
HETATM   22  C   UNL     2      -9.149  18.788  66.815  1.00  0.00    -0.312 C  
HETATM   23  H   UNL     2     -11.123  18.059  68.427  1.00  0.00     0.000 HD 
HETATM   24  O   UNL     2      -8.450  18.991  65.787  1.00  0.00    -0.428 OA 
HETATM   25  O   UNL     2      -9.017  19.148  68.016  1.00  0.00    -0.294 OA 
ENDBRANCH  17  20
ENDBRANCH  14  17
ENDBRANCH  11  14
ENDBRANCH   8  11
ENDBRANCH   5   8
BRANCH   6  26
HETATM   26  C   UNL     3      -9.975   6.689  70.801  1.00  0.00    -0.184 C  
HETATM   27  H   UNL     3      -8.088   6.870  70.503  1.00  0.00     0.000 HD 
HETATM   28  O   UNL     3      -8.624   6.366  71.104  1.00  0.00    -0.126 OA 
BRANCH  26  29
HETATM   29  C   UNL     3     -10.349   6.428  69.317  1.00  0.00    -0.207 C  
HETATM   30  O   UNL     3     -11.784   6.795  69.106  1.00  0.00    -0.601 OA 
HETATM   31  H   UNL     3     -12.013   6.636  68.198  1.00  0.00     0.000 HD 
BRANCH  29  32
HETATM   32  C   UNL     3      -9.621   7.343  68.309  1.00  0.00    -0.150 C  
HETATM   33  H   UNL     3      -9.483   9.292  68.053  1.00  0.00     0.000 HD 
HETATM   34  O   UNL     3      -9.932   8.728  68.674  1.00  0.00    -0.171 OA 
BRANCH  32  35
HETATM   35  C   UNL     3      -9.516   7.085  66.798  1.00  0.00    -0.163 C  
HETATM   36  H   UNL     3      -8.873   8.103  65.285  1.00  0.00     0.000 HD 
HETATM   37  O   UNL     3      -8.939   8.263  66.219  1.00  0.00    -0.162 OA 
BRANCH  35  38
HETATM   38  C   UNL     3      -8.790   5.815  66.369  1.00  0.00    -0.131 C  
HETATM   39  C   UNL     3      -9.807   4.706  65.990  1.00  0.00    -0.224 C  
HETATM   40  O   UNL     3      -7.946   5.321  67.428  1.00  0.00    -0.099 OA 
HETATM   41  O   UNL     3     -11.033   5.042  66.012  1.00  0.00    -0.243 OA 
HETATM   42  O   UNL     3      -9.302   3.551  65.936  1.00  0.00    -0.157 OA 
HETATM   43  H   UNL     3      -7.494   4.529  67.161  1.00  0.00     0.000 HD 
ENDBRANCH  35  38
ENDBRANCH  32  35
ENDBRANCH  29  32
ENDBRANCH  26  29
ENDBRANCH   6  26
TORSDOF 10
ENDMDL
MODEL      272
REMARK 921   NORMALIZED FREE ENERGY PREDICTED BY IDOCK:   -4.99 KCAL/MOL
REMARK 922        TOTAL FREE ENERGY PREDICTED BY IDOCK:  -10.41 KCAL/MOL
REMARK 923 INTER-LIGAND FREE ENERGY PREDICTED BY IDOCK:   -9.24 KCAL/MOL
REMARK 924 INTRA-LIGAND FREE ENERGY PREDICTED BY IDOCK:   -1.17 KCAL/MOL
REMARK 927      BINDING AFFINITY PREDICTED BY RF-SCORE:    0.00 PKD
ROOT
HETATM    1 CA   UNL     1      -7.782  13.461  69.939  1.00  0.00    -0.319 Ca 
HETATM    2  O   UNL     2     -10.668   8.675  68.640  1.00  0.00    -0.377 OA 
HETATM    3  O   UNL     3      -6.453  19.055  67.391  1.00  0.00    -0.194 OA 
HETATM    4  H   UNL     2      -9.963   8.083  68.405  1.00  0.00     0.000 HD 
HETATM    5  C   UNL     2     -10.117   9.958  68.932  1.00  0.00    -0.184 C  
HETATM    6  C   UNL     3      -5.910  17.747  67.555  1.00  0.00    -0.147 C  
HETATM    7  H   UNL     3      -5.828  19.708  67.684  1.00  0.00     0.000 HD 
ENDROOT
BRANCH   5   8
HETATM    8  C   UNL     2     -11.262  10.918  69.315  1.00  0.00    -0.265 C  
HETATM    9  O   UNL     2     -12.325  10.731  68.385  1.00  0.00    -0.813 OA 
HETATM   10  H   UNL     2     -13.030  11.323  68.621  1.00  0.00     0.000 HD 
BRANCH   8  11
HETATM   11  C   UNL     2     -11.801  10.614  70.722  1.00  0.00    -0.357 C  
HETATM   12  H   UNL     2     -12.846  11.538  72.168  1.00  0.00     0.000 HD 
HETATM   13  O   UNL     2     -12.513  11.727  71.298  1.00  0.00    -0.331 OA 
BRANCH  11  14
HETATM   14  C   UNL     2     -12.616   9.320  70.965  1.00  0.00    -0.185 C  
HETATM   15  O   UNL     2     -13.994   9.563  70.734  1.00  0.00    -0.495 OA 
HETATM   16  H   UNL     2     -14.495   8.769  70.883  1.00  0.00     0.000 HD 
BRANCH  14  17
HETATM   17  C   UNL     2     -12.303   8.495  72.227  1.00  0.00    -0.387 C  
HETATM   18  H   UNL     2     -13.132   8.282  73.983  1.00  0.00     0.000 HD 
HETATM   19  O   UNL     2     -13.326   8.791  73.204  1.00  0.00    -0.214 OA 
BRANCH  17  20
HETATM   20  C   UNL     2     -12.137   6.990  72.020  1.00  0.00    -0.294 C  
HETATM   21  O   UNL     2     -12.115   6.649  70.616  1.00  0.00    -0.397 OA 
HETATM   22  C   UNL     2     -10.792   6.572  72.678  1.00  0.00    -0.247 C  
HETATM   23  H   UNL     2     -12.012   5.713  70.487  1.00  0.00     0.000 HD 
HETATM   24  O   UNL     2     -10.555   7.143  73.775  1.00  0.00    -0.377 OA 
HETATM   25  O   UNL     2     -10.136   5.743  71.992  1.00  0.00    -0.179 OA 
ENDBRANCH  17  20
ENDBRANCH  14  17
ENDBRANCH  11  14
ENDBRANCH   8  11
ENDBRANCH   5   8
BRANCH   6  26
HETATM   26  C   UNL     3      -6.919  16.692  67.082  1.00  0.00    -0.191 C  
HETATM   27  H   UNL     3      -6.799  14.852  66.548  1.00  0.00     0.000 HD 
HETATM   28  O   UNL     3      -6.174  15.505  66.841  1.00  0.00    -0.203 OA 
BRANCH  26  29
HETATM   29  C   UNL     3      -8.079  16.492  68.093  1.00  0.00    -0.172 C  
HETATM   30  O   UNL     3      -8.006  17.563  69.134  1.00  0.00    -0.147 OA 
HETATM   31  H   UNL     3      -8.716  17.440  69.753  1.00  0.00     0.000 HD 
BRANCH  29  32
HETATM   32  C   UNL     3      -9.486  16.708  67.495  1.00  0.00    -0.229 C  
HETATM   33  H   UNL     3     -10.886  18.079  67.700  1.00  0.00     0.000 HD 
HETATM   34  O   UNL     3     -10.020  17.946  68.068  1.00  0.00    -0.300 OA 
BRANCH  32  35
HETATM   35  C   UNL     3     -10.530  15.603  67.270  1.00  0.00    -0.292 C  
HETATM   36  H   UNL     3     -12.411  15.405  67.672  1.00  0.00     0.000 HD 
HETATM   37  O   UNL     3     -11.766  16.088  67.811  1.00  0.00    -0.085 OA 
BRANCH  35  38
HETATM   38  C   UNL     3     -10.685  15.086  65.844  1.00  0.00    -0.331 C  
HETATM   39  C   UNL     3     -11.698  13.912  65.796  1.00  0.00    -0.359 C  
HETATM   40  O   UNL     3      -9.423  14.626  65.323  1.00  0.00    -0.456 OA 
HETATM   41  O   UNL     3     -12.281  13.632  66.890  1.00  0.00    -0.399 OA 
HETATM   42  O   UNL     3     -11.640  13.236  64.732  1.00  0.00    -0.312 OA 
HETATM   43  H   UNL     3      -9.520  14.304  64.434  1.00  0.00     0.000 HD 
ENDBRANCH  35  38
ENDBRANCH  32  35
ENDBRANCH  29  32
ENDBRANCH  26  29
ENDBRANCH   6  26
TORSDOF 10
ENDMDL
MODEL      273
REMARK 921   NORMALIZED FREE ENERGY PREDICTED BY IDOCK:   -4.97 KCAL/MOL
REMARK 922        TOTAL FREE ENERGY PREDICTED BY IDOCK:  -10.37 KCAL/MOL
REMARK 923 INTER-LIGAND FREE ENERGY PREDICTED BY IDOCK:   -8.23 KCAL/MOL
REMARK 924 INTRA-LIGAND FREE ENERGY PREDICTED BY IDOCK:   -2.15 KCAL/MOL
REMARK 927      BINDING AFFINITY PREDICTED BY RF-SCORE:    0.00 PKD
ROOT
HETATM    1 CA   UNL     1     -10.711  18.650  70.916  1.00  0.00    -0.249 Ca 
HETATM    2  O   UNL     2     -13.033  13.705  72.671  1.00  0.00    -0.378 OA 
HETATM    3  O   UNL     3      -5.578  20.694  67.912  1.00  0.00    -0.209 OA 
HETATM    4  H   UNL     2     -12.841  13.723  73.602  1.00  0.00     0.000 HD 
HETATM    5  C   UNL     2     -12.455  14.856  72.059  1.00  0.00    -0.334 C  
HETATM    6  C   UNL     3      -6.098  20.498  69.224  1.00  0.00    -0.313 C  
HETATM    7  H   UNL     3      -5.262  21.584  67.814  1.00  0.00     0.000 HD 
ENDROOT
BRANCH   5   8
HETATM    8  C   UNL     2     -12.767  14.828  70.548  1.00  0.00    -0.343 C  
HETATM    9  O   UNL     2     -13.846  15.725  70.303  1.00  0.00    -0.432 OA 
HETATM   10  H   UNL     2     -14.038  15.708  69.372  1.00  0.00     0.000 HD 
BRANCH   8  11
HETATM   11  C   UNL     2     -11.560  15.297  69.719  1.00  0.00    -0.314 C  
HETATM   12  H   UNL     2      -9.847  16.311  69.993  1.00  0.00     0.000 HD 
HETATM   13  O   UNL     2     -10.593  16.022  70.505  1.00  0.00    -0.213 OA 
BRANCH  11  14
HETATM   14  C   UNL     2     -10.813  14.284  68.817  1.00  0.00    -0.253 C  
HETATM   15  O   UNL     2     -10.529  13.101  69.546  1.00  0.00    -0.358 OA 
HETATM   16  H   UNL     2     -10.070  12.480  68.992  1.00  0.00     0.000 HD 
BRANCH  14  17
HETATM   17  C   UNL     2      -9.653  14.809  67.949  1.00  0.00    -0.210 C  
HETATM   18  H   UNL     2      -7.831  15.421  68.295  1.00  0.00     0.000 HD 
HETATM   19  O   UNL     2      -8.546  15.097  68.831  1.00  0.00    -0.176 OA 
BRANCH  17  20
HETATM   20  C   UNL     2      -9.231  13.913  66.784  1.00  0.00    -0.254 C  
HETATM   21  O   UNL     2      -9.150  12.528  67.184  1.00  0.00    -0.190 OA 
HETATM   22  C   UNL     2     -10.297  14.070  65.664  1.00  0.00    -0.329 C  
HETATM   23  H   UNL     2      -8.887  11.971  66.460  1.00  0.00     0.000 HD 
HETATM   24  O   UNL     2     -10.712  15.249  65.506  1.00  0.00    -0.324 OA 
HETATM   25  O   UNL     2     -10.598  12.981  65.104  1.00  0.00    -0.294 OA 
ENDBRANCH  17  20
ENDBRANCH  14  17
ENDBRANCH  11  14
ENDBRANCH   8  11
ENDBRANCH   5   8
BRANCH   6  26
HETATM   26  C   UNL     3      -6.609  19.059  69.382  1.00  0.00    -0.288 C  
HETATM   27  H   UNL     3      -8.344  18.253  69.540  1.00  0.00     0.000 HD 
HETATM   28  O   UNL     3      -8.027  19.143  69.443  1.00  0.00    -0.123 OA 
BRANCH  26  29
HETATM   29  C   UNL     3      -6.098  18.126  68.253  1.00  0.00    -0.183 C  
HETATM   30  O   UNL     3      -5.926  16.746  68.804  1.00  0.00    -0.140 OA 
HETATM   31  H   UNL     3      -5.612  16.175  68.113  1.00  0.00     0.000 HD 
BRANCH  29  32
HETATM   32  C   UNL     3      -7.109  17.902  67.109  1.00  0.00    -0.184 C  
HETATM   33  H   UNL     3      -7.398  16.485  65.770  1.00  0.00     0.000 HD 
HETATM   34  O   UNL     3      -6.775  16.624  66.474  1.00  0.00    -0.199 OA 
BRANCH  32  35
HETATM   35  C   UNL     3      -7.604  18.988  66.141  1.00  0.00    -0.266 C  
HETATM   36  H   UNL     3      -7.028  19.637  64.413  1.00  0.00     0.000 HD 
HETATM   37  O   UNL     3      -6.722  18.965  65.011  1.00  0.00    -0.499 OA 
BRANCH  35  38
HETATM   38  C   UNL     3      -9.071  18.924  65.732  1.00  0.00     0.413 C  
HETATM   39  C   UNL     3      -9.893  20.015  66.468  1.00  0.00    -0.459 C  
HETATM   40  O   UNL     3      -9.637  17.635  66.042  1.00  0.00    -0.493 OA 
HETATM   41  O   UNL     3      -9.229  20.813  67.201  1.00  0.00    -0.338 OA 
HETATM   42  O   UNL     3     -11.140  19.824  66.429  1.00  0.00    -0.297 OA 
HETATM   43  H   UNL     3     -10.552  17.595  65.786  1.00  0.00     0.000 HD 
ENDBRANCH  35  38
ENDBRANCH  32  35
ENDBRANCH  29  32
ENDBRANCH  26  29
ENDBRANCH   6  26
TORSDOF 10
ENDMDL
MODEL      274
REMARK 921   NORMALIZED FREE ENERGY PREDICTED BY IDOCK:   -4.97 KCAL/MOL
REMARK 922        TOTAL FREE ENERGY PREDICTED BY IDOCK:  -10.37 KCAL/MOL
REMARK 923 INTER-LIGAND FREE ENERGY PREDICTED BY IDOCK:   -9.24 KCAL/MOL
REMARK 924 INTRA-LIGAND FREE ENERGY PREDICTED BY IDOCK:   -1.13 KCAL/MOL
REMARK 927      BINDING AFFINITY PREDICTED BY RF-SCORE:    0.00 PKD
ROOT
HETATM    1 CA   UNL     1      -7.656  11.938  70.113  1.00  0.00    -0.336 Ca 
HETATM    2  O   UNL     2     -11.877  15.810  70.440  1.00  0.00    -0.332 OA 
HETATM    3  O   UNL     3      -6.694   5.836  71.295  1.00  0.00    -0.056 OA 
HETATM    4  H   UNL     2     -11.637  16.290  71.225  1.00  0.00     0.000 HD 
HETATM    5  C   UNL     2     -10.947  14.745  70.248  1.00  0.00    -0.097 C  
HETATM    6  C   UNL     3      -6.528   7.124  71.880  1.00  0.00    -0.044 C  
HETATM    7  H   UNL     3      -5.875   5.357  71.318  1.00  0.00     0.000 HD 
ENDROOT
BRANCH   5   8
HETATM    8  C   UNL     2     -11.338  13.966  68.974  1.00  0.00    -0.283 C  
HETATM    9  O   UNL     2     -12.477  14.598  68.401  1.00  0.00    -0.594 OA 
HETATM   10  H   UNL     2     -12.718  14.118  67.617  1.00  0.00     0.000 HD 
BRANCH   8  11
HETATM   11  C   UNL     2     -10.206  13.991  67.935  1.00  0.00    -0.240 C  
HETATM   12  H   UNL     2      -8.401  13.154  67.653  1.00  0.00     0.000 HD 
HETATM   13  O   UNL     2      -9.101  13.138  68.296  1.00  0.00    -0.196 OA 
BRANCH  11  14
HETATM   14  C   UNL     2     -10.537  13.773  66.438  1.00  0.00    -0.284 C  
HETATM   15  O   UNL     2     -10.890  15.006  65.834  1.00  0.00    -0.318 OA 
HETATM   16  H   UNL     2     -11.094  14.872  64.915  1.00  0.00     0.000 HD 
BRANCH  14  17
HETATM   17  C   UNL     2     -11.439  12.582  66.064  1.00  0.00    -0.377 C  
HETATM   18  H   UNL     2     -12.434  11.230  67.063  1.00  0.00     0.000 HD 
HETATM   19  O   UNL     2     -11.877  11.965  67.295  1.00  0.00    -0.576 OA 
BRANCH  17  20
HETATM   20  C   UNL     2     -12.613  12.896  65.138  1.00  0.00    -0.471 C  
HETATM   21  O   UNL     2     -13.330  14.072  65.574  1.00  0.00    -0.673 OA 
HETATM   22  C   UNL     2     -12.035  13.138  63.715  1.00  0.00    -0.508 C  
HETATM   23  H   UNL     2     -14.061  14.268  64.998  1.00  0.00     0.000 HD 
HETATM   24  O   UNL     2     -11.103  12.353  63.396  1.00  0.00    -0.455 OA 
HETATM   25  O   UNL     2     -12.578  14.102  63.111  1.00  0.00    -0.686 OA 
ENDBRANCH  17  20
ENDBRANCH  14  17
ENDBRANCH  11  14
ENDBRANCH   8  11
ENDBRANCH   5   8
BRANCH   6  26
HETATM   26  C   UNL     3      -7.853   7.899  71.843  1.00  0.00    -0.105 C  
HETATM   27  H   UNL     3      -8.342   9.722  71.497  1.00  0.00     0.000 HD 
HETATM   28  O   UNL     3      -7.522   9.243  71.520  1.00  0.00    -0.336 OA 
BRANCH  26  29
HETATM   29  C   UNL     3      -8.876   7.267  70.862  1.00  0.00    -0.149 C  
HETATM   30  O   UNL     3     -10.209   7.187  71.534  1.00  0.00    -0.198 OA 
HETATM   31  H   UNL     3     -10.835   6.800  70.934  1.00  0.00     0.000 HD 
BRANCH  29  32
HETATM   32  C   UNL     3      -9.183   8.132  69.620  1.00  0.00    -0.155 C  
HETATM   33  H   UNL     3      -8.508   8.192  67.771  1.00  0.00     0.000 HD 
HETATM   34  O   UNL     3      -8.319   7.660  68.535  1.00  0.00    -0.127 OA 
BRANCH  32  35
HETATM   35  C   UNL     3      -9.419   9.650  69.639  1.00  0.00    -0.210 C  
HETATM   36  H   UNL     3      -8.631  11.162  68.726  1.00  0.00     0.000 HD 
HETATM   37  O   UNL     3      -8.484  10.223  68.715  1.00  0.00    -0.114 OA 
BRANCH  35  38
HETATM   38  C   UNL     3     -10.846  10.124  69.386  1.00  0.00    -0.241 C  
HETATM   39  C   UNL     3     -11.662  10.131  70.705  1.00  0.00    -0.357 C  
HETATM   40  O   UNL     3     -11.514   9.268  68.438  1.00  0.00    -0.294 OA 
HETATM   41  O   UNL     3     -11.018   9.836  71.761  1.00  0.00    -0.147 OA 
HETATM   42  O   UNL     3     -12.910  10.200  70.531  1.00  0.00    -0.282 OA 
HETATM   43  H   UNL     3     -12.403   9.563  68.280  1.00  0.00     0.000 HD 
ENDBRANCH  35  38
ENDBRANCH  32  35
ENDBRANCH  29  32
ENDBRANCH  26  29
ENDBRANCH   6  26
TORSDOF 10
ENDMDL
MODEL      275
REMARK 921   NORMALIZED FREE ENERGY PREDICTED BY IDOCK:   -4.96 KCAL/MOL
REMARK 922        TOTAL FREE ENERGY PREDICTED BY IDOCK:  -10.35 KCAL/MOL
REMARK 923 INTER-LIGAND FREE ENERGY PREDICTED BY IDOCK:   -8.15 KCAL/MOL
REMARK 924 INTRA-LIGAND FREE ENERGY PREDICTED BY IDOCK:   -2.20 KCAL/MOL
REMARK 927      BINDING AFFINITY PREDICTED BY RF-SCORE:    0.00 PKD
ROOT
HETATM    1 CA   UNL     1     -11.348   9.901  66.148  1.00  0.00     0.052 Ca 
HETATM    2  O   UNL     2     -10.445   5.904  70.164  1.00  0.00    -0.217 OA 
HETATM    3  O   UNL     3     -10.192  16.004  65.165  1.00  0.00    -0.511 OA 
HETATM    4  H   UNL     2     -11.302   5.841  70.568  1.00  0.00     0.000 HD 
HETATM    5  C   UNL     2     -10.478   6.923  69.166  1.00  0.00    -0.207 C  
HETATM    6  C   UNL     3     -11.210  15.124  65.633  1.00  0.00    -0.296 C  
HETATM    7  H   UNL     3     -10.536  16.573  64.486  1.00  0.00     0.000 HD 
ENDROOT
BRANCH   5   8
HETATM    8  C   UNL     2      -9.086   7.025  68.509  1.00  0.00    -0.131 C  
HETATM    9  O   UNL     2      -8.433   5.768  68.659  1.00  0.00    -0.106 OA 
HETATM   10  H   UNL     2      -7.576   5.831  68.254  1.00  0.00     0.000 HD 
BRANCH   8  11
HETATM   11  C   UNL     2      -9.198   7.327  67.006  1.00  0.00    -0.145 C  
HETATM   12  H   UNL     2     -10.536   8.100  65.721  1.00  0.00     0.000 HD 
HETATM   13  O   UNL     2     -10.466   7.913  66.650  1.00  0.00    -0.296 OA 
BRANCH  11  14
HETATM   14  C   UNL     2      -8.068   8.114  66.298  1.00  0.00    -0.107 C  
HETATM   15  O   UNL     2      -6.834   7.897  66.962  1.00  0.00    -0.069 OA 
HETATM   16  H   UNL     2      -6.141   8.380  66.528  1.00  0.00     0.000 HD 
BRANCH  14  17
HETATM   17  C   UNL     2      -8.345   9.576  65.900  1.00  0.00    -0.120 C  
HETATM   18  H   UNL     2      -7.763  11.323  66.552  1.00  0.00     0.000 HD 
HETATM   19  O   UNL     2      -7.591  10.421  66.798  1.00  0.00    -0.104 OA 
BRANCH  17  20
HETATM   20  C   UNL     2      -8.087   9.932  64.436  1.00  0.00    -0.157 C  
HETATM   21  O   UNL     2      -7.649   8.781  63.681  1.00  0.00    -0.113 OA 
HETATM   22  C   UNL     2      -9.421  10.466  63.843  1.00  0.00    -0.304 C  
HETATM   23  H   UNL     2      -7.489   9.003  62.771  1.00  0.00     0.000 HD 
HETATM   24  O   UNL     2     -10.074  11.209  64.624  1.00  0.00    -0.256 OA 
HETATM   25  O   UNL     2      -9.653  10.049  62.676  1.00  0.00    -0.271 OA 
ENDBRANCH  17  20
ENDBRANCH  14  17
ENDBRANCH  11  14
ENDBRANCH   8  11
ENDBRANCH   5   8
BRANCH   6  26
HETATM   26  C   UNL     3     -10.653  14.205  66.729  1.00  0.00    -0.277 C  
HETATM   27  H   UNL     3      -9.641  14.481  68.336  1.00  0.00     0.000 HD 
HETATM   28  O   UNL     3      -9.985  15.049  67.657  1.00  0.00    -0.224 OA 
BRANCH  26  29
HETATM   29  C   UNL     3     -11.757  13.330  67.380  1.00  0.00    -0.373 C  
HETATM   30  O   UNL     3     -12.156  12.257  66.418  1.00  0.00    -0.623 OA 
HETATM   31  H   UNL     3     -12.832  11.721  66.817  1.00  0.00     0.000 HD 
BRANCH  29  32
HETATM   32  C   UNL     3     -11.283  12.518  68.605  1.00  0.00    -0.278 C  
HETATM   33  H   UNL     3     -10.278  10.841  68.853  1.00  0.00     0.000 HD 
HETATM   34  O   UNL     3     -10.570  11.341  68.099  1.00  0.00    -0.177 OA 
BRANCH  32  35
HETATM   35  C   UNL     3     -12.111  12.270  69.875  1.00  0.00    -0.249 C  
HETATM   36  H   UNL     3     -12.046  10.978  71.312  1.00  0.00     0.000 HD 
HETATM   37  O   UNL     3     -11.534  11.131  70.526  1.00  0.00    -0.269 OA 
BRANCH  35  38
HETATM   38  C   UNL     3     -12.282  13.453  70.822  1.00  0.00    -0.328 C  
HETATM   39  C   UNL     3     -13.136  13.048  72.052  1.00  0.00    -0.379 C  
HETATM   40  O   UNL     3     -12.927  14.557  70.157  1.00  0.00    -0.542 OA 
HETATM   41  O   UNL     3     -13.474  11.825  72.119  1.00  0.00    -0.446 OA 
HETATM   42  O   UNL     3     -13.583  14.032  72.705  1.00  0.00    -0.629 OA 
HETATM   43  H   UNL     3     -13.034  15.293  70.748  1.00  0.00     0.000 HD 
ENDBRANCH  35  38
ENDBRANCH  32  35
ENDBRANCH  29  32
ENDBRANCH  26  29
ENDBRANCH   6  26
TORSDOF 10
ENDMDL
MODEL      276
REMARK 921   NORMALIZED FREE ENERGY PREDICTED BY IDOCK:   -4.95 KCAL/MOL
REMARK 922        TOTAL FREE ENERGY PREDICTED BY IDOCK:  -10.35 KCAL/MOL
REMARK 923 INTER-LIGAND FREE ENERGY PREDICTED BY IDOCK:   -8.36 KCAL/MOL
REMARK 924 INTRA-LIGAND FREE ENERGY PREDICTED BY IDOCK:   -1.99 KCAL/MOL
REMARK 927      BINDING AFFINITY PREDICTED BY RF-SCORE:    0.00 PKD
ROOT
HETATM    1 CA   UNL     1      -9.160  10.915  67.305  1.00  0.00    -0.134 Ca 
HETATM    2  O   UNL     2     -13.623  13.856  65.218  1.00  0.00    -0.461 OA 
HETATM    3  O   UNL     3      -6.004   5.601  66.145  1.00  0.00    -0.021 OA 
HETATM    4  H   UNL     2     -14.302  13.648  65.850  1.00  0.00     0.000 HD 
HETATM    5  C   UNL     2     -12.440  13.137  65.560  1.00  0.00    -0.458 C  
HETATM    6  C   UNL     3      -7.047   6.121  66.964  1.00  0.00    -0.073 C  
HETATM    7  H   UNL     3      -5.350   5.168  66.681  1.00  0.00     0.000 HD 
ENDROOT
BRANCH   5   8
HETATM    8  C   UNL     2     -11.337  13.474  64.534  1.00  0.00    -0.365 C  
HETATM    9  O   UNL     2     -11.967  13.806  63.301  1.00  0.00    -0.798 OA 
HETATM   10  H   UNL     2     -11.289  14.014  62.669  1.00  0.00     0.000 HD 
BRANCH   8  11
HETATM   11  C   UNL     2     -10.506  14.686  64.985  1.00  0.00    -0.421 C  
HETATM   12  H   UNL     2     -10.809  16.564  65.632  1.00  0.00     0.000 HD 
HETATM   13  O   UNL     2     -11.323  15.815  65.353  1.00  0.00    -0.179 OA 
BRANCH  11  14
HETATM   14  C   UNL     2      -9.401  14.500  66.054  1.00  0.00    -0.160 C  
HETATM   15  O   UNL     2      -9.026  13.134  66.133  1.00  0.00    -0.450 OA 
HETATM   16  H   UNL     2      -8.348  13.020  66.790  1.00  0.00     0.000 HD 
BRANCH  14  17
HETATM   17  C   UNL     2      -9.584  15.205  67.412  1.00  0.00    -0.208 C  
HETATM   18  H   UNL     2      -9.043  14.829  69.251  1.00  0.00     0.000 HD 
HETATM   19  O   UNL     2      -8.930  14.394  68.413  1.00  0.00    -0.178 OA 
BRANCH  17  20
HETATM   20  C   UNL     2      -9.127  16.662  67.476  1.00  0.00    -0.202 C  
HETATM   21  O   UNL     2      -8.995  17.234  66.156  1.00  0.00    -0.422 OA 
HETATM   22  C   UNL     2     -10.197  17.452  68.280  1.00  0.00    -0.362 C  
HETATM   23  H   UNL     2      -8.711  18.139  66.196  1.00  0.00     0.000 HD 
HETATM   24  O   UNL     2     -10.656  16.833  69.277  1.00  0.00    -0.319 OA 
HETATM   25  O   UNL     2     -10.457  18.584  67.790  1.00  0.00    -0.389 OA 
ENDBRANCH  17  20
ENDBRANCH  14  17
ENDBRANCH  11  14
ENDBRANCH   8  11
ENDBRANCH   5   8
BRANCH   6  26
HETATM   26  C   UNL     3      -8.103   6.820  66.096  1.00  0.00    -0.115 C  
HETATM   27  H   UNL     3      -8.525   6.824  64.224  1.00  0.00     0.000 HD 
HETATM   28  O   UNL     3      -7.871   6.392  64.761  1.00  0.00    -0.099 OA 
BRANCH  26  29
HETATM   29  C   UNL     3      -9.548   6.539  66.588  1.00  0.00    -0.160 C  
HETATM   30  O   UNL     3      -9.524   5.377  67.529  1.00  0.00    -0.115 OA 
HETATM   31  H   UNL     3     -10.409   5.205  67.829  1.00  0.00     0.000 HD 
BRANCH  29  32
HETATM   32  C   UNL     3     -10.150   7.661  67.462  1.00  0.00    -0.202 C  
HETATM   33  H   UNL     3     -10.565   9.566  67.182  1.00  0.00     0.000 HD 
HETATM   34  O   UNL     3     -10.194   8.876  66.644  1.00  0.00    -0.275 OA 
BRANCH  32  35
HETATM   35  C   UNL     3      -9.824   7.896  68.945  1.00  0.00    -0.173 C  
HETATM   36  H   UNL     3      -9.251   9.421  69.987  1.00  0.00     0.000 HD 
HETATM   37  O   UNL     3      -9.452   9.275  69.070  1.00  0.00    -0.152 OA 
BRANCH  35  38
HETATM   38  C   UNL     3     -10.893   7.491  69.954  1.00  0.00    -0.240 C  
HETATM   39  C   UNL     3     -10.241   6.926  71.243  1.00  0.00    -0.198 C  
HETATM   40  O   UNL     3     -11.767   6.487  69.403  1.00  0.00    -0.649 OA 
HETATM   41  O   UNL     3      -8.971   6.966  71.291  1.00  0.00    -0.142 OA 
HETATM   42  O   UNL     3     -11.042   6.285  71.978  1.00  0.00    -0.242 OA 
HETATM   43  H   UNL     3     -12.434   6.234  70.032  1.00  0.00     0.000 HD 
ENDBRANCH  35  38
ENDBRANCH  32  35
ENDBRANCH  29  32
ENDBRANCH  26  29
ENDBRANCH   6  26
TORSDOF 10
ENDMDL
MODEL      277
REMARK 921   NORMALIZED FREE ENERGY PREDICTED BY IDOCK:   -4.95 KCAL/MOL
REMARK 922        TOTAL FREE ENERGY PREDICTED BY IDOCK:  -10.34 KCAL/MOL
REMARK 923 INTER-LIGAND FREE ENERGY PREDICTED BY IDOCK:   -8.90 KCAL/MOL
REMARK 924 INTRA-LIGAND FREE ENERGY PREDICTED BY IDOCK:   -1.45 KCAL/MOL
REMARK 927      BINDING AFFINITY PREDICTED BY RF-SCORE:    0.00 PKD
ROOT
HETATM    1 CA   UNL     1      -8.295  14.920  65.795  1.00  0.00    -0.394 Ca 
HETATM    2  O   UNL     2      -8.600  19.579  69.131  1.00  0.00    -0.293 OA 
HETATM    3  O   UNL     3      -8.055   8.662  66.373  1.00  0.00    -0.097 OA 
HETATM    4  H   UNL     2      -7.703  19.894  69.103  1.00  0.00     0.000 HD 
HETATM    5  C   UNL     2      -8.685  18.362  68.391  1.00  0.00    -0.317 C  
HETATM    6  C   UNL     3      -7.213   9.799  66.205  1.00  0.00    -0.100 C  
HETATM    7  H   UNL     3      -7.864   8.011  65.709  1.00  0.00     0.000 HD 
ENDROOT
BRANCH   5   8
HETATM    8  C   UNL     2     -10.140  17.851  68.436  1.00  0.00    -0.383 C  
HETATM    9  O   UNL     2     -10.890  18.565  67.459  1.00  0.00    -0.422 OA 
HETATM   10  H   UNL     2     -11.786  18.250  67.487  1.00  0.00     0.000 HD 
BRANCH   8  11
HETATM   11  C   UNL     2     -10.217  16.354  68.096  1.00  0.00    -0.262 C  
HETATM   12  H   UNL     2      -9.027  14.735  68.143  1.00  0.00     0.000 HD 
HETATM   13  O   UNL     2      -8.980  15.660  68.354  1.00  0.00    -0.177 OA 
BRANCH  11  14
HETATM   14  C   UNL     2     -11.389  15.504  68.645  1.00  0.00    -0.344 C  
HETATM   15  O   UNL     2     -12.543  16.313  68.805  1.00  0.00     0.001 OA 
HETATM   16  H   UNL     2     -13.262  15.791  69.142  1.00  0.00     0.000 HD 
BRANCH  14  17
HETATM   17  C   UNL     2     -11.100  14.543  69.814  1.00  0.00    -0.200 C  
HETATM   18  H   UNL     2     -10.699  14.756  71.714  1.00  0.00     0.000 HD 
HETATM   19  O   UNL     2     -10.877  15.349  70.993  1.00  0.00    -0.317 OA 
BRANCH  17  20
HETATM   20  C   UNL     2     -12.144  13.455  70.061  1.00  0.00    -0.334 C  
HETATM   21  O   UNL     2     -11.524  12.183  70.353  1.00  0.00    -0.491 OA 
HETATM   22  C   UNL     2     -13.010  13.902  71.272  1.00  0.00    -0.341 C  
HETATM   23  H   UNL     2     -12.173  11.507  70.506  1.00  0.00     0.000 HD 
HETATM   24  O   UNL     2     -13.286  15.132  71.283  1.00  0.00    -0.392 OA 
HETATM   25  O   UNL     2     -13.279  12.964  72.068  1.00  0.00    -0.452 OA 
ENDBRANCH  17  20
ENDBRANCH  14  17
ENDBRANCH  11  14
ENDBRANCH   8  11
ENDBRANCH   5   8
BRANCH   6  26
HETATM   26  C   UNL     3      -7.523  10.852  67.278  1.00  0.00    -0.104 C  
HETATM   27  H   UNL     3      -7.805  12.750  67.266  1.00  0.00     0.000 HD 
HETATM   28  O   UNL     3      -7.613  12.099  66.601  1.00  0.00    -0.009 OA 
BRANCH  26  29
HETATM   29  C   UNL     3      -8.796  10.503  68.094  1.00  0.00    -0.134 C  
HETATM   30  O   UNL     3      -9.027  11.571  69.115  1.00  0.00    -0.380 OA 
HETATM   31  H   UNL     3      -9.806  11.357  69.614  1.00  0.00     0.000 HD 
BRANCH  29  32
HETATM   32  C   UNL     3     -10.104  10.540  67.274  1.00  0.00    -0.201 C  
HETATM   33  H   UNL     3     -11.446   9.199  66.743  1.00  0.00     0.000 HD 
HETATM   34  O   UNL     3     -10.641   9.177  67.247  1.00  0.00    -0.271 OA 
BRANCH  32  35
HETATM   35  C   UNL     3     -10.313  11.338  65.978  1.00  0.00    -0.252 C  
HETATM   36  H   UNL     3     -10.342  10.895  64.096  1.00  0.00     0.000 HD 
HETATM   37  O   UNL     3     -10.213  10.401  64.898  1.00  0.00    -0.338 OA 
BRANCH  35  38
HETATM   38  C   UNL     3     -11.576  12.188  65.893  1.00  0.00    -0.364 C  
HETATM   39  C   UNL     3     -11.247  13.603  65.348  1.00  0.00    -0.298 C  
HETATM   40  O   UNL     3     -12.192  12.327  67.188  1.00  0.00    -0.506 OA 
HETATM   41  O   UNL     3     -10.042  13.797  64.992  1.00  0.00    -0.343 OA 
HETATM   42  O   UNL     3     -12.161  14.449  65.547  1.00  0.00    -0.382 OA 
HETATM   43  H   UNL     3     -12.979  12.856  67.135  1.00  0.00     0.000 HD 
ENDBRANCH  35  38
ENDBRANCH  32  35
ENDBRANCH  29  32
ENDBRANCH  26  29
ENDBRANCH   6  26
TORSDOF 10
ENDMDL
MODEL      278
REMARK 921   NORMALIZED FREE ENERGY PREDICTED BY IDOCK:   -4.95 KCAL/MOL
REMARK 922        TOTAL FREE ENERGY PREDICTED BY IDOCK:  -10.34 KCAL/MOL
REMARK 923 INTER-LIGAND FREE ENERGY PREDICTED BY IDOCK:   -8.21 KCAL/MOL
REMARK 924 INTRA-LIGAND FREE ENERGY PREDICTED BY IDOCK:   -2.13 KCAL/MOL
REMARK 927      BINDING AFFINITY PREDICTED BY RF-SCORE:    0.00 PKD
ROOT
HETATM    1 CA   UNL     1      -7.205   9.186  68.269  1.00  0.00    -0.068 Ca 
HETATM    2  O   UNL     2      -8.364  14.750  69.054  1.00  0.00    -0.168 OA 
HETATM    3  O   UNL     3     -10.205   3.867  66.767  1.00  0.00    -0.293 OA 
HETATM    4  H   UNL     2      -8.362  14.815  70.002  1.00  0.00     0.000 HD 
HETATM    5  C   UNL     2      -8.153  13.389  68.684  1.00  0.00    -0.040 C  
HETATM    6  C   UNL     3      -9.747   4.608  67.895  1.00  0.00    -0.143 C  
HETATM    7  H   UNL     3      -9.888   2.972  66.811  1.00  0.00     0.000 HD 
ENDROOT
BRANCH   5   8
HETATM    8  C   UNL     2      -8.156  13.284  67.144  1.00  0.00    -0.088 C  
HETATM    9  O   UNL     2      -7.679  11.991  66.788  1.00  0.00    -0.315 OA 
HETATM   10  H   UNL     2      -7.681  11.927  65.839  1.00  0.00     0.000 HD 
BRANCH   8  11
HETATM   11  C   UNL     2      -9.576  13.442  66.576  1.00  0.00    -0.272 C  
HETATM   12  H   UNL     2     -11.070  14.785  66.607  1.00  0.00     0.000 HD 
HETATM   13  O   UNL     2     -10.193  14.688  66.958  1.00  0.00    -0.257 OA 
BRANCH  11  14
HETATM   14  C   UNL     2      -9.828  13.202  65.067  1.00  0.00    -0.040 C  
HETATM   15  O   UNL     2     -10.061  14.438  64.411  1.00  0.00    -0.610 OA 
HETATM   16  H   UNL     2     -10.215  14.290  63.485  1.00  0.00     0.000 HD 
BRANCH  14  17
HETATM   17  C   UNL     2     -10.781  12.061  64.666  1.00  0.00    -0.309 C  
HETATM   18  H   UNL     2     -10.754  10.114  64.822  1.00  0.00     0.000 HD 
HETATM   19  O   UNL     2     -10.165  10.818  65.070  1.00  0.00    -0.284 OA 
BRANCH  17  20
HETATM   20  C   UNL     2     -12.216  12.176  65.180  1.00  0.00    -0.146 C  
HETATM   21  O   UNL     2     -12.255  12.297  66.619  1.00  0.00    -0.574 OA 
HETATM   22  C   UNL     2     -12.844  13.443  64.534  1.00  0.00    -0.009 C  
HETATM   23  H   UNL     2     -13.146  12.369  66.938  1.00  0.00     0.000 HD 
HETATM   24  O   UNL     2     -12.533  13.614  63.325  1.00  0.00    -0.801 OA 
HETATM   25  O   UNL     2     -13.549  14.115  65.333  1.00  0.00    -0.568 OA 
ENDBRANCH  17  20
ENDBRANCH  14  17
ENDBRANCH  11  14
ENDBRANCH   8  11
ENDBRANCH   5   8
BRANCH   6  26
HETATM   26  C   UNL     3     -10.259   6.053  67.823  1.00  0.00    -0.179 C  
HETATM   27  H   UNL     3     -11.402   7.022  66.623  1.00  0.00     0.000 HD 
HETATM   28  O   UNL     3     -11.085   6.128  66.667  1.00  0.00    -0.284 OA 
BRANCH  26  29
HETATM   29  C   UNL     3     -10.985   6.485  69.124  1.00  0.00    -0.323 C  
HETATM   30  O   UNL     3     -10.608   5.547  70.226  1.00  0.00    -0.279 OA 
HETATM   31  H   UNL     3     -11.053   5.812  71.022  1.00  0.00     0.000 HD 
BRANCH  29  32
HETATM   32  C   UNL     3     -10.529   7.851  69.681  1.00  0.00    -0.226 C  
HETATM   33  H   UNL     3      -8.877   8.528  70.512  1.00  0.00     0.000 HD 
HETATM   34  O   UNL     3      -9.158   7.688  70.170  1.00  0.00    -0.150 OA 
BRANCH  32  35
HETATM   35  C   UNL     3     -11.401   8.799  70.520  1.00  0.00    -0.227 C  
HETATM   36  H   UNL     3     -12.065   8.788  72.336  1.00  0.00     0.000 HD 
HETATM   37  O   UNL     3     -11.526   8.202  71.817  1.00  0.00    -0.258 OA 
BRANCH  35  38
HETATM   38  C   UNL     3     -10.956  10.255  70.593  1.00  0.00    -0.214 C  
HETATM   39  C   UNL     3     -11.976  11.176  69.874  1.00  0.00    -0.363 C  
HETATM   40  O   UNL     3      -9.665  10.431  69.976  1.00  0.00    -0.409 OA 
HETATM   41  O   UNL     3     -13.024  10.608  69.430  1.00  0.00    -0.045 OA 
HETATM   42  O   UNL     3     -11.528  12.327  69.616  1.00  0.00    -0.266 OA 
HETATM   43  H   UNL     3      -9.387  11.338  70.022  1.00  0.00     0.000 HD 
ENDBRANCH  35  38
ENDBRANCH  32  35
ENDBRANCH  29  32
ENDBRANCH  26  29
ENDBRANCH   6  26
TORSDOF 10
ENDMDL
MODEL      279
REMARK 921   NORMALIZED FREE ENERGY PREDICTED BY IDOCK:   -4.92 KCAL/MOL
REMARK 922        TOTAL FREE ENERGY PREDICTED BY IDOCK:  -10.30 KCAL/MOL
REMARK 923 INTER-LIGAND FREE ENERGY PREDICTED BY IDOCK:   -7.81 KCAL/MOL
REMARK 924 INTRA-LIGAND FREE ENERGY PREDICTED BY IDOCK:   -2.49 KCAL/MOL
REMARK 927      BINDING AFFINITY PREDICTED BY RF-SCORE:    0.00 PKD
ROOT
HETATM    1 CA   UNL     1      -6.390  10.098  67.757  1.00  0.00    -0.053 Ca 
HETATM    2  O   UNL     2      -6.547  15.520  69.627  1.00  0.00    -0.160 OA 
HETATM    3  O   UNL     3      -9.838   4.848  68.089  1.00  0.00    -0.152 OA 
HETATM    4  H   UNL     2      -5.923  15.493  70.344  1.00  0.00     0.000 HD 
HETATM    5  C   UNL     2      -6.679  14.208  69.083  1.00  0.00    -0.118 C  
HETATM    6  C   UNL     3      -8.727   5.493  68.707  1.00  0.00    -0.102 C  
HETATM    7  H   UNL     3      -9.602   3.965  67.832  1.00  0.00     0.000 HD 
ENDROOT
BRANCH   5   8
HETATM    8  C   UNL     2      -7.691  14.250  67.918  1.00  0.00    -0.152 C  
HETATM    9  O   UNL     2      -8.892  13.621  68.353  1.00  0.00    -0.179 OA 
HETATM   10  H   UNL     2      -9.515  13.648  67.636  1.00  0.00     0.000 HD 
BRANCH   8  11
HETATM   11  C   UNL     2      -8.027  15.698  67.523  1.00  0.00    -0.162 C  
HETATM   12  H   UNL     2      -7.193  17.213  66.501  1.00  0.00     0.000 HD 
HETATM   13  O   UNL     2      -6.985  16.318  66.745  1.00  0.00    -0.208 OA 
BRANCH  11  14
HETATM   14  C   UNL     2      -9.395  16.014  66.869  1.00  0.00    -0.228 C  
HETATM   15  O   UNL     2      -9.199  16.685  65.635  1.00  0.00    -0.491 OA 
HETATM   16  H   UNL     2     -10.038  16.879  65.233  1.00  0.00     0.000 HD 
BRANCH  14  17
HETATM   17  C   UNL     2     -10.505  16.600  67.761  1.00  0.00    -0.316 C  
HETATM   18  H   UNL     2     -11.678  18.159  67.667  1.00  0.00     0.000 HD 
HETATM   19  O   UNL     2     -10.993  17.798  67.116  1.00  0.00    -0.187 OA 
BRANCH  17  20
HETATM   20  C   UNL     2     -11.644  15.649  68.126  1.00  0.00    -0.283 C  
HETATM   21  O   UNL     2     -11.683  14.507  67.241  1.00  0.00    -0.380 OA 
HETATM   22  C   UNL     2     -11.402  15.168  69.584  1.00  0.00    -0.283 C  
HETATM   23  H   UNL     2     -12.391  13.916  67.468  1.00  0.00     0.000 HD 
HETATM   24  O   UNL     2     -10.984  16.067  70.362  1.00  0.00    -0.335 OA 
HETATM   25  O   UNL     2     -11.640  13.942  69.753  1.00  0.00    -0.273 OA 
ENDBRANCH  17  20
ENDBRANCH  14  17
ENDBRANCH  11  14
ENDBRANCH   8  11
ENDBRANCH   5   8
BRANCH   6  26
HETATM   26  C   UNL     3      -9.108   6.921  69.123  1.00  0.00    -0.136 C  
HETATM   27  H   UNL     3      -8.264   8.639  68.983  1.00  0.00     0.000 HD 
HETATM   28  O   UNL     3      -8.028   7.756  68.726  1.00  0.00    -0.120 OA 
BRANCH  26  29
HETATM   29  C   UNL     3     -10.473   7.362  68.532  1.00  0.00    -0.186 C  
HETATM   30  O   UNL     3     -11.572   6.802  69.378  1.00  0.00    -0.593 OA 
HETATM   31  H   UNL     3     -12.408   7.072  69.016  1.00  0.00     0.000 HD 
BRANCH  29  32
HETATM   32  C   UNL     3     -10.737   8.881  68.609  1.00  0.00    -0.078 C  
HETATM   33  H   UNL     3     -10.390  10.411  67.418  1.00  0.00     0.000 HD 
HETATM   34  O   UNL     3     -10.227   9.476  67.371  1.00  0.00    -0.197 OA 
BRANCH  32  35
HETATM   35  C   UNL     3     -10.549   9.748  69.863  1.00  0.00    -0.265 C  
HETATM   36  H   UNL     3      -9.371  11.205  70.347  1.00  0.00     0.000 HD 
HETATM   37  O   UNL     3      -9.488  10.668  69.572  1.00  0.00    -0.146 OA 
BRANCH  35  38
HETATM   38  C   UNL     3     -11.790  10.449  70.405  1.00  0.00    -0.328 C  
HETATM   39  C   UNL     3     -12.460   9.596  71.513  1.00  0.00    -0.386 C  
HETATM   40  O   UNL     3     -12.752  10.677  69.356  1.00  0.00    -0.671 OA 
HETATM   41  O   UNL     3     -11.849   8.531  71.844  1.00  0.00    -0.296 OA 
HETATM   42  O   UNL     3     -13.643   9.946  71.778  1.00  0.00    -0.347 OA 
HETATM   43  H   UNL     3     -13.525  11.114  69.693  1.00  0.00     0.000 HD 
ENDBRANCH  35  38
ENDBRANCH  32  35
ENDBRANCH  29  32
ENDBRANCH  26  29
ENDBRANCH   6  26
TORSDOF 10
ENDMDL
MODEL      280
REMARK 921   NORMALIZED FREE ENERGY PREDICTED BY IDOCK:   -4.92 KCAL/MOL
REMARK 922        TOTAL FREE ENERGY PREDICTED BY IDOCK:  -10.30 KCAL/MOL
REMARK 923 INTER-LIGAND FREE ENERGY PREDICTED BY IDOCK:   -7.73 KCAL/MOL
REMARK 924 INTRA-LIGAND FREE ENERGY PREDICTED BY IDOCK:   -2.56 KCAL/MOL
REMARK 927      BINDING AFFINITY PREDICTED BY RF-SCORE:    0.00 PKD
ROOT
HETATM    1 CA   UNL     1     -11.548   7.538  67.947  1.00  0.00    -0.453 Ca 
HETATM    2  O   UNL     2      -8.909  11.459  64.694  1.00  0.00    -0.388 OA 
HETATM    3  O   UNL     3     -11.329   5.303  73.821  1.00  0.00    -0.417 OA 
HETATM    4  H   UNL     2      -8.338  10.915  64.164  1.00  0.00     0.000 HD 
HETATM    5  C   UNL     2      -9.604  10.629  65.623  1.00  0.00    -0.218 C  
HETATM    6  C   UNL     3     -10.850   5.032  72.507  1.00  0.00    -0.196 C  
HETATM    7  H   UNL     3     -11.754   4.533  74.181  1.00  0.00     0.000 HD 
ENDROOT
BRANCH   5   8
HETATM    8  C   UNL     2     -10.532  11.512  66.484  1.00  0.00    -0.244 C  
HETATM    9  O   UNL     2     -11.260  10.662  67.364  1.00  0.00    -0.317 OA 
HETATM   10  H   UNL     2     -11.831  11.206  67.894  1.00  0.00     0.000 HD 
BRANCH   8  11
HETATM   11  C   UNL     2      -9.726  12.504  67.338  1.00  0.00    -0.194 C  
HETATM   12  H   UNL     2      -7.865  12.693  68.072  1.00  0.00     0.000 HD 
HETATM   13  O   UNL     2      -8.363  12.080  67.545  1.00  0.00    -0.148 OA 
BRANCH  11  14
HETATM   14  C   UNL     2      -9.730  14.009  66.971  1.00  0.00    -0.256 C  
HETATM   15  O   UNL     2      -9.170  14.769  68.030  1.00  0.00    -0.186 OA 
HETATM   16  H   UNL     2      -9.173  15.692  67.805  1.00  0.00     0.000 HD 
BRANCH  14  17
HETATM   17  C   UNL     2     -11.013  14.598  66.354  1.00  0.00    -0.325 C  
HETATM   18  H   UNL     2     -11.990  16.280  66.535  1.00  0.00     0.000 HD 
HETATM   19  O   UNL     2     -11.199  15.916  66.916  1.00  0.00    -0.168 OA 
BRANCH  17  20
HETATM   20  C   UNL     2     -11.072  14.619  64.827  1.00  0.00    -0.384 C  
HETATM   21  O   UNL     2      -9.832  14.162  64.243  1.00  0.00    -0.538 OA 
HETATM   22  C   UNL     2     -12.231  13.679  64.391  1.00  0.00    -0.390 C  
HETATM   23  H   UNL     2      -9.869  14.175  63.294  1.00  0.00     0.000 HD 
HETATM   24  O   UNL     2     -13.257  13.752  65.118  1.00  0.00    -0.757 OA 
HETATM   25  O   UNL     2     -11.949  12.969  63.389  1.00  0.00    -0.542 OA 
ENDBRANCH  17  20
ENDBRANCH  14  17
ENDBRANCH  11  14
ENDBRANCH   8  11
ENDBRANCH   5   8
BRANCH   6  26
HETATM   26  C   UNL     3     -10.163   6.276  71.926  1.00  0.00    -0.201 C  
HETATM   27  H   UNL     3      -9.165   7.737  72.669  1.00  0.00     0.000 HD 
HETATM   28  O   UNL     3      -9.590   6.967  73.028  1.00  0.00    -0.143 OA 
BRANCH  26  29
HETATM   29  C   UNL     3      -9.132   5.918  70.823  1.00  0.00    -0.153 C  
HETATM   30  O   UNL     3      -9.010   4.430  70.737  1.00  0.00    -0.096 OA 
HETATM   31  H   UNL     3      -8.379   4.211  70.061  1.00  0.00     0.000 HD 
BRANCH  29  32
HETATM   32  C   UNL     3      -9.575   6.298  69.394  1.00  0.00    -0.141 C  
HETATM   33  H   UNL     3     -10.788   5.503  68.060  1.00  0.00     0.000 HD 
HETATM   34  O   UNL     3     -10.515   5.269  68.940  1.00  0.00    -0.193 OA 
BRANCH  32  35
HETATM   35  C   UNL     3      -8.649   6.849  68.299  1.00  0.00    -0.125 C  
HETATM   36  H   UNL     3      -8.587   6.712  66.371  1.00  0.00     0.000 HD 
HETATM   37  O   UNL     3      -9.160   6.371  67.048  1.00  0.00    -0.122 OA 
BRANCH  35  38
HETATM   38  C   UNL     3      -8.418   8.356  68.292  1.00  0.00    -0.135 C  
HETATM   39  C   UNL     3      -7.130   8.716  69.078  1.00  0.00    -0.065 C  
HETATM   40  O   UNL     3      -9.530   9.051  68.890  1.00  0.00    -0.149 OA 
HETATM   41  O   UNL     3      -6.450   7.734  69.514  1.00  0.00    -0.034 OA 
HETATM   42  O   UNL     3      -7.047   9.937  69.385  1.00  0.00    -0.055 OA 
HETATM   43  H   UNL     3      -9.387   9.990  68.885  1.00  0.00     0.000 HD 
ENDBRANCH  35  38
ENDBRANCH  32  35
ENDBRANCH  29  32
ENDBRANCH  26  29
ENDBRANCH   6  26
TORSDOF 10
ENDMDL
MODEL      281
REMARK 921   NORMALIZED FREE ENERGY PREDICTED BY IDOCK:   -4.92 KCAL/MOL
REMARK 922        TOTAL FREE ENERGY PREDICTED BY IDOCK:  -10.29 KCAL/MOL
REMARK 923 INTER-LIGAND FREE ENERGY PREDICTED BY IDOCK:   -8.50 KCAL/MOL
REMARK 924 INTRA-LIGAND FREE ENERGY PREDICTED BY IDOCK:   -1.79 KCAL/MOL
REMARK 927      BINDING AFFINITY PREDICTED BY RF-SCORE:    0.00 PKD
ROOT
HETATM    1 CA   UNL     1     -11.716   8.688  67.345  1.00  0.00    -0.423 Ca 
HETATM    2  O   UNL     2      -7.402  10.781  64.194  1.00  0.00    -0.338 OA 
HETATM    3  O   UNL     3     -13.894   9.006  73.236  1.00  0.00    -1.159 OA 
HETATM    4  H   UNL     2      -6.816  10.034  64.150  1.00  0.00     0.000 HD 
HETATM    5  C   UNL     2      -8.519  10.444  65.015  1.00  0.00    -0.176 C  
HETATM    6  C   UNL     3     -13.082   8.197  72.390  1.00  0.00    -0.108 C  
HETATM    7  H   UNL     3     -14.564   8.476  73.652  1.00  0.00     0.000 HD 
ENDROOT
BRANCH   5   8
HETATM    8  C   UNL     2      -9.470  11.658  65.086  1.00  0.00    -0.133 C  
HETATM    9  O   UNL     2     -10.762  11.231  64.669  1.00  0.00    -0.321 OA 
HETATM   10  H   UNL     2     -11.348  11.978  64.712  1.00  0.00     0.000 HD 
BRANCH   8  11
HETATM   11  C   UNL     2      -9.585  12.193  66.523  1.00  0.00    -0.228 C  
HETATM   12  H   UNL     2      -8.703  13.567  67.694  1.00  0.00     0.000 HD 
HETATM   13  O   UNL     2      -8.632  13.236  66.806  1.00  0.00    -0.149 OA 
BRANCH  11  14
HETATM   14  C   UNL     2     -10.970  12.619  67.071  1.00  0.00    -0.265 C  
HETATM   15  O   UNL     2     -11.805  11.482  67.218  1.00  0.00    -0.609 OA 
HETATM   16  H   UNL     2     -12.654  11.744  67.555  1.00  0.00     0.000 HD 
BRANCH  14  17
HETATM   17  C   UNL     2     -11.649  13.849  66.440  1.00  0.00    -0.367 C  
HETATM   18  H   UNL     2     -13.140  14.129  65.210  1.00  0.00     0.000 HD 
HETATM   19  O   UNL     2     -12.722  13.369  65.599  1.00  0.00    -0.458 OA 
BRANCH  17  20
HETATM   20  C   UNL     2     -12.131  14.922  67.416  1.00  0.00     0.004 C  
HETATM   21  O   UNL     2     -12.446  14.358  68.708  1.00  0.00    -0.582 OA 
HETATM   22  C   UNL     2     -10.986  15.964  67.568  1.00  0.00    -0.280 C  
HETATM   23  H   UNL     2     -12.746  15.025  69.315  1.00  0.00     0.000 HD 
HETATM   24  O   UNL     2     -10.388  16.234  66.493  1.00  0.00    -0.293 OA 
HETATM   25  O   UNL     2     -10.821  16.356  68.754  1.00  0.00    -0.297 OA 
ENDBRANCH  17  20
ENDBRANCH  14  17
ENDBRANCH  11  14
ENDBRANCH   8  11
ENDBRANCH   5   8
BRANCH   6  26
HETATM   26  C   UNL     3     -11.999   9.053  71.719  1.00  0.00    -0.368 C  
HETATM   27  H   UNL     3     -10.145   9.404  72.070  1.00  0.00     0.000 HD 
HETATM   28  O   UNL     3     -10.815   8.874  72.486  1.00  0.00    -0.179 OA 
BRANCH  26  29
HETATM   29  C   UNL     3     -11.817   8.701  70.219  1.00  0.00     0.175 C  
HETATM   30  O   UNL     3     -11.815   9.965  69.420  1.00  0.00    -0.460 OA 
HETATM   31  H   UNL     3     -11.703   9.750  68.502  1.00  0.00     0.000 HD 
BRANCH  29  32
HETATM   32  C   UNL     3     -10.442   8.089  69.873  1.00  0.00    -0.233 C  
HETATM   33  H   UNL     3      -8.953   8.602  68.690  1.00  0.00     0.000 HD 
HETATM   34  O   UNL     3      -9.799   8.979  68.902  1.00  0.00    -0.167 OA 
BRANCH  32  35
HETATM   35  C   UNL     3     -10.172   6.593  69.650  1.00  0.00    -0.186 C  
HETATM   36  H   UNL     3      -8.851   5.580  68.666  1.00  0.00     0.000 HD 
HETATM   37  O   UNL     3      -9.018   6.505  68.804  1.00  0.00    -0.125 OA 
BRANCH  35  38
HETATM   38  C   UNL     3     -10.043   5.726  70.897  1.00  0.00    -0.199 C  
HETATM   39  C   UNL     3      -8.788   6.129  71.715  1.00  0.00    -0.138 C  
HETATM   40  O   UNL     3      -9.935   4.332  70.547  1.00  0.00    -0.209 OA 
HETATM   41  O   UNL     3      -8.139   7.133  71.283  1.00  0.00    -0.105 OA 
HETATM   42  O   UNL     3      -8.440   5.268  72.569  1.00  0.00    -0.117 OA 
HETATM   43  H   UNL     3      -9.854   3.792  71.325  1.00  0.00     0.000 HD 
ENDBRANCH  35  38
ENDBRANCH  32  35
ENDBRANCH  29  32
ENDBRANCH  26  29
ENDBRANCH   6  26
TORSDOF 10
ENDMDL
MODEL      282
REMARK 921   NORMALIZED FREE ENERGY PREDICTED BY IDOCK:   -4.91 KCAL/MOL
REMARK 922        TOTAL FREE ENERGY PREDICTED BY IDOCK:  -10.29 KCAL/MOL
REMARK 923 INTER-LIGAND FREE ENERGY PREDICTED BY IDOCK:   -7.87 KCAL/MOL
REMARK 924 INTRA-LIGAND FREE ENERGY PREDICTED BY IDOCK:   -2.41 KCAL/MOL
REMARK 927      BINDING AFFINITY PREDICTED BY RF-SCORE:    0.00 PKD
ROOT
HETATM    1 CA   UNL     1      -9.330  11.248  68.901  1.00  0.00    -0.155 Ca 
HETATM    2  O   UNL     2     -13.298  14.800  71.038  1.00  0.00    -0.376 OA 
HETATM    3  O   UNL     3      -8.999   6.062  65.359  1.00  0.00    -0.323 OA 
HETATM    4  H   UNL     2     -13.338  14.519  71.945  1.00  0.00     0.000 HD 
HETATM    5  C   UNL     2     -12.387  13.957  70.334  1.00  0.00    -0.363 C  
HETATM    6  C   UNL     3      -9.018   6.483  66.720  1.00  0.00    -0.131 C  
HETATM    7  H   UNL     3      -8.252   5.497  65.201  1.00  0.00     0.000 HD 
ENDROOT
BRANCH   5   8
HETATM    8  C   UNL     2     -12.321  14.413  68.861  1.00  0.00    -0.069 C  
HETATM    9  O   UNL     2     -11.671  15.679  68.818  1.00  0.00    -0.363 OA 
HETATM   10  H   UNL     2     -11.631  15.959  67.911  1.00  0.00     0.000 HD 
BRANCH   8  11
HETATM   11  C   UNL     2     -11.505  13.429  68.007  1.00  0.00    -0.304 C  
HETATM   12  H   UNL     2     -11.199  11.447  67.872  1.00  0.00     0.000 HD 
HETATM   13  O   UNL     2     -11.704  12.056  68.399  1.00  0.00    -0.300 OA 
BRANCH  11  14
HETATM   14  C   UNL     2     -11.567  13.522  66.463  1.00  0.00    -0.359 C  
HETATM   15  O   UNL     2     -12.319  12.438  65.941  1.00  0.00    -0.638 OA 
HETATM   16  H   UNL     2     -12.357  12.495  64.993  1.00  0.00     0.000 HD 
BRANCH  14  17
HETATM   17  C   UNL     2     -10.264  13.835  65.705  1.00  0.00    -0.313 C  
HETATM   18  H   UNL     2      -9.634  13.588  63.872  1.00  0.00     0.000 HD 
HETATM   19  O   UNL     2     -10.438  13.394  64.340  1.00  0.00    -0.426 OA 
BRANCH  17  20
HETATM   20  C   UNL     2      -9.780  15.284  65.775  1.00  0.00    -0.350 C  
HETATM   21  O   UNL     2     -10.883  16.201  65.948  1.00  0.00    -0.277 OA 
HETATM   22  C   UNL     2      -8.814  15.396  66.988  1.00  0.00    -0.228 C  
HETATM   23  H   UNL     2     -10.582  17.102  65.992  1.00  0.00     0.000 HD 
HETATM   24  O   UNL     2      -8.044  14.409  67.128  1.00  0.00    -0.193 OA 
HETATM   25  O   UNL     2      -8.973  16.452  67.658  1.00  0.00    -0.195 OA 
ENDBRANCH  17  20
ENDBRANCH  14  17
ENDBRANCH  11  14
ENDBRANCH   8  11
ENDBRANCH   5   8
BRANCH   6  26
HETATM   26  C   UNL     3     -10.225   7.396  66.976  1.00  0.00    -0.287 C  
HETATM   27  H   UNL     3     -12.072   7.104  67.409  1.00  0.00     0.000 HD 
HETATM   28  O   UNL     3     -11.325   6.539  67.251  1.00  0.00    -0.316 OA 
BRANCH  26  29
HETATM   29  C   UNL     3      -9.954   8.428  68.103  1.00  0.00    -0.191 C  
HETATM   30  O   UNL     3     -11.073   9.419  68.134  1.00  0.00    -0.489 OA 
HETATM   31  H   UNL     3     -10.907  10.050  68.824  1.00  0.00     0.000 HD 
BRANCH  29  32
HETATM   32  C   UNL     3      -9.997   7.835  69.528  1.00  0.00    -0.187 C  
HETATM   33  H   UNL     3     -11.389   7.640  70.908  1.00  0.00     0.000 HD 
HETATM   34  O   UNL     3     -11.363   8.005  70.031  1.00  0.00    -0.161 OA 
BRANCH  32  35
HETATM   35  C   UNL     3      -8.897   8.004  70.588  1.00  0.00    -0.143 C  
HETATM   36  H   UNL     3      -8.457   9.366  71.889  1.00  0.00     0.000 HD 
HETATM   37  O   UNL     3      -9.137   9.261  71.233  1.00  0.00    -0.264 OA 
BRANCH  35  38
HETATM   38  C   UNL     3      -8.728   6.864  71.587  1.00  0.00    -0.124 C  
HETATM   39  C   UNL     3      -7.225   6.598  71.863  1.00  0.00    -0.085 C  
HETATM   40  O   UNL     3      -9.325   5.650  71.089  1.00  0.00    -0.150 OA 
HETATM   41  O   UNL     3      -6.405   7.394  71.305  1.00  0.00    -0.036 OA 
HETATM   42  O   UNL     3      -6.999   5.487  72.416  1.00  0.00    -0.077 OA 
HETATM   43  H   UNL     3      -9.219   4.940  71.712  1.00  0.00     0.000 HD 
ENDBRANCH  35  38
ENDBRANCH  32  35
ENDBRANCH  29  32
ENDBRANCH  26  29
ENDBRANCH   6  26
TORSDOF 10
ENDMDL
MODEL      283
REMARK 921   NORMALIZED FREE ENERGY PREDICTED BY IDOCK:   -4.91 KCAL/MOL
REMARK 922        TOTAL FREE ENERGY PREDICTED BY IDOCK:  -10.28 KCAL/MOL
REMARK 923 INTER-LIGAND FREE ENERGY PREDICTED BY IDOCK:   -8.41 KCAL/MOL
REMARK 924 INTRA-LIGAND FREE ENERGY PREDICTED BY IDOCK:   -1.87 KCAL/MOL
REMARK 927      BINDING AFFINITY PREDICTED BY RF-SCORE:    0.00 PKD
ROOT
HETATM    1 CA   UNL     1     -12.165   9.465  70.948  1.00  0.00    -0.267 Ca 
HETATM    2  O   UNL     2      -9.027   4.662  70.823  1.00  0.00    -0.115 OA 
HETATM    3  O   UNL     3     -12.505  15.004  67.990  1.00  0.00    -0.436 OA 
HETATM    4  H   UNL     2      -8.465   4.781  71.580  1.00  0.00     0.000 HD 
HETATM    5  C   UNL     2      -9.843   5.823  70.668  1.00  0.00    -0.187 C  
HETATM    6  C   UNL     3     -11.961  14.396  69.159  1.00  0.00    -0.322 C  
HETATM    7  H   UNL     3     -13.009  15.774  68.225  1.00  0.00     0.000 HD 
ENDROOT
BRANCH   5   8
HETATM    8  C   UNL     2     -10.756   5.630  69.439  1.00  0.00    -0.295 C  
HETATM    9  O   UNL     2     -11.848   6.536  69.554  1.00  0.00    -0.649 OA 
HETATM   10  H   UNL     2     -12.411   6.417  68.797  1.00  0.00     0.000 HD 
BRANCH   8  11
HETATM   11  C   UNL     2     -10.010   5.946  68.133  1.00  0.00    -0.145 C  
HETATM   12  H   UNL     2     -10.098   5.446  66.189  1.00  0.00     0.000 HD 
HETATM   13  O   UNL     2     -10.560   5.251  66.996  1.00  0.00    -0.244 OA 
BRANCH  11  14
HETATM   14  C   UNL     2      -9.749   7.420  67.738  1.00  0.00    -0.143 C  
HETATM   15  O   UNL     2     -10.952   8.023  67.287  1.00  0.00    -0.505 OA 
HETATM   16  H   UNL     2     -10.792   8.928  67.045  1.00  0.00     0.000 HD 
BRANCH  14  17
HETATM   17  C   UNL     2      -8.505   7.731  66.885  1.00  0.00    -0.125 C  
HETATM   18  H   UNL     2      -8.091   7.694  64.977  1.00  0.00     0.000 HD 
HETATM   19  O   UNL     2      -8.859   7.502  65.503  1.00  0.00    -0.099 OA 
BRANCH  17  20
HETATM   20  C   UNL     2      -7.881   9.111  67.089  1.00  0.00    -0.102 C  
HETATM   21  O   UNL     2      -8.891  10.137  67.206  1.00  0.00    -0.131 OA 
HETATM   22  C   UNL     2      -7.042   9.056  68.397  1.00  0.00    -0.076 C  
HETATM   23  H   UNL     2      -8.503  10.995  67.333  1.00  0.00     0.000 HD 
HETATM   24  O   UNL     2      -6.400   7.983  68.555  1.00  0.00    -0.050 OA 
HETATM   25  O   UNL     2      -7.158  10.089  69.110  1.00  0.00    -0.061 OA 
ENDBRANCH  17  20
ENDBRANCH  14  17
ENDBRANCH  11  14
ENDBRANCH   8  11
ENDBRANCH   5   8
BRANCH   6  26
HETATM   26  C   UNL     3     -11.146  13.152  68.778  1.00  0.00    -0.269 C  
HETATM   27  H   UNL     3     -11.310  11.788  67.439  1.00  0.00     0.000 HD 
HETATM   28  O   UNL     3     -11.815  12.557  67.674  1.00  0.00    -0.362 OA 
BRANCH  26  29
HETATM   29  C   UNL     3      -9.660  13.490  68.486  1.00  0.00    -0.151 C  
HETATM   30  O   UNL     3      -8.819  12.294  68.799  1.00  0.00    -0.371 OA 
HETATM   31  H   UNL     3      -7.909  12.502  68.620  1.00  0.00     0.000 HD 
BRANCH  29  32
HETATM   32  C   UNL     3      -9.346  13.734  66.994  1.00  0.00    -0.248 C  
HETATM   33  H   UNL     3      -7.872  14.592  66.008  1.00  0.00     0.000 HD 
HETATM   34  O   UNL     3      -8.065  14.443  66.927  1.00  0.00    -0.131 OA 
BRANCH  32  35
HETATM   35  C   UNL     3     -10.373  14.162  65.934  1.00  0.00    -0.316 C  
HETATM   36  H   UNL     3     -10.681  15.773  64.909  1.00  0.00     0.000 HD 
HETATM   37  O   UNL     3     -10.046  15.508  65.564  1.00  0.00    -0.347 OA 
BRANCH  35  38
HETATM   38  C   UNL     3     -10.527  13.250  64.722  1.00  0.00    -0.384 C  
HETATM   39  C   UNL     3     -11.972  13.325  64.162  1.00  0.00    -0.447 C  
HETATM   40  O   UNL     3     -10.238  11.881  65.067  1.00  0.00    -0.261 OA 
HETATM   41  O   UNL     3     -12.746  14.162  64.723  1.00  0.00    -0.650 OA 
HETATM   42  O   UNL     3     -12.262  12.379  63.377  1.00  0.00    -0.520 OA 
HETATM   43  H   UNL     3     -10.334  11.313  64.311  1.00  0.00     0.000 HD 
ENDBRANCH  35  38
ENDBRANCH  32  35
ENDBRANCH  29  32
ENDBRANCH  26  29
ENDBRANCH   6  26
TORSDOF 10
ENDMDL
MODEL      284
REMARK 921   NORMALIZED FREE ENERGY PREDICTED BY IDOCK:   -4.91 KCAL/MOL
REMARK 922        TOTAL FREE ENERGY PREDICTED BY IDOCK:  -10.28 KCAL/MOL
REMARK 923 INTER-LIGAND FREE ENERGY PREDICTED BY IDOCK:   -8.68 KCAL/MOL
REMARK 924 INTRA-LIGAND FREE ENERGY PREDICTED BY IDOCK:   -1.60 KCAL/MOL
REMARK 927      BINDING AFFINITY PREDICTED BY RF-SCORE:    0.00 PKD
ROOT
HETATM    1 CA   UNL     1     -13.154   9.999  69.324  1.00  0.00    -0.491 Ca 
HETATM    2  O   UNL     2     -11.453  13.301  64.951  1.00  0.00    -0.304 OA 
HETATM    3  O   UNL     3     -10.722   7.222  74.416  1.00  0.00    -0.402 OA 
HETATM    4  H   UNL     2     -11.412  12.672  64.240  1.00  0.00     0.000 HD 
HETATM    5  C   UNL     2     -11.804  12.618  66.153  1.00  0.00    -0.418 C  
HETATM    6  C   UNL     3     -11.065   6.957  73.058  1.00  0.00    -0.232 C  
HETATM    7  H   UNL     3     -11.119   6.575  74.987  1.00  0.00     0.000 HD 
ENDROOT
BRANCH   5   8
HETATM    8  C   UNL     2     -11.870  13.640  67.308  1.00  0.00    -0.391 C  
HETATM    9  O   UNL     2     -11.918  12.918  68.534  1.00  0.00    -0.309 OA 
HETATM   10  H   UNL     2     -11.959  13.548  69.245  1.00  0.00     0.000 HD 
BRANCH   8  11
HETATM   11  C   UNL     2     -10.623  14.537  67.331  1.00  0.00    -0.271 C  
HETATM   12  H   UNL     2      -8.659  14.398  66.931  1.00  0.00     0.000 HD 
HETATM   13  O   UNL     2      -9.430  13.843  66.917  1.00  0.00    -0.240 OA 
BRANCH  11  14
HETATM   14  C   UNL     2     -10.663  15.920  66.635  1.00  0.00    -0.270 C  
HETATM   15  O   UNL     2     -10.022  15.847  65.372  1.00  0.00    -0.399 OA 
HETATM   16  H   UNL     2     -10.047  16.696  64.945  1.00  0.00     0.000 HD 
BRANCH  14  17
HETATM   17  C   UNL     2     -10.308  17.162  67.475  1.00  0.00    -0.341 C  
HETATM   18  H   UNL     2      -8.766  17.723  68.534  1.00  0.00     0.000 HD 
HETATM   19  O   UNL     2      -8.984  16.957  68.016  1.00  0.00    -0.215 OA 
BRANCH  17  20
HETATM   20  C   UNL     2     -10.426  18.509  66.762  1.00  0.00    -0.394 C  
HETATM   21  O   UNL     2     -10.943  19.530  67.643  1.00  0.00    -0.416 OA 
HETATM   22  C   UNL     2      -9.003  18.909  66.279  1.00  0.00    -0.259 C  
HETATM   23  H   UNL     2     -11.017  20.367  67.199  1.00  0.00     0.000 HD 
HETATM   24  O   UNL     2      -8.323  17.950  65.826  1.00  0.00    -0.521 OA 
HETATM   25  O   UNL     2      -8.745  20.131  66.443  1.00  0.00    -0.311 OA 
ENDBRANCH  17  20
ENDBRANCH  14  17
ENDBRANCH  11  14
ENDBRANCH   8  11
ENDBRANCH   5   8
BRANCH   6  26
HETATM   26  C   UNL     3     -10.424   8.003  72.136  1.00  0.00    -0.265 C  
HETATM   27  H   UNL     3      -8.739   8.151  71.229  1.00  0.00     0.000 HD 
HETATM   28  O   UNL     3      -9.136   7.504  71.800  1.00  0.00    -0.125 OA 
BRANCH  26  29
HETATM   29  C   UNL     3     -11.304   8.312  70.896  1.00  0.00    -0.268 C  
HETATM   30  O   UNL     3     -12.253   9.416  71.237  1.00  0.00    -0.310 OA 
HETATM   31  H   UNL     3     -12.792   9.605  70.478  1.00  0.00     0.000 HD 
BRANCH  29  32
HETATM   32  C   UNL     3     -10.528   8.902  69.698  1.00  0.00    -0.216 C  
HETATM   33  H   UNL     3     -10.239  10.718  68.991  1.00  0.00     0.000 HD 
HETATM   34  O   UNL     3     -10.717  10.355  69.728  1.00  0.00    -0.251 OA 
BRANCH  32  35
HETATM   35  C   UNL     3     -10.478   8.289  68.290  1.00  0.00    -0.161 C  
HETATM   36  H   UNL     3     -10.968   8.901  66.522  1.00  0.00     0.000 HD 
HETATM   37  O   UNL     3     -10.998   9.279  67.393  1.00  0.00    -0.188 OA 
BRANCH  35  38
HETATM   38  C   UNL     3      -9.133   7.740  67.829  1.00  0.00    -0.134 C  
HETATM   39  C   UNL     3      -9.322   6.407  67.060  1.00  0.00    -0.131 C  
HETATM   40  O   UNL     3      -8.260   7.503  68.952  1.00  0.00    -0.125 OA 
HETATM   41  O   UNL     3     -10.523   6.039  66.867  1.00  0.00    -0.219 OA 
HETATM   42  O   UNL     3      -8.257   5.741  66.929  1.00  0.00    -0.102 OA 
HETATM   43  H   UNL     3      -7.422   7.161  68.664  1.00  0.00     0.000 HD 
ENDBRANCH  35  38
ENDBRANCH  32  35
ENDBRANCH  29  32
ENDBRANCH  26  29
ENDBRANCH   6  26
TORSDOF 10
ENDMDL
MODEL      285
REMARK 921   NORMALIZED FREE ENERGY PREDICTED BY IDOCK:   -4.90 KCAL/MOL
REMARK 922        TOTAL FREE ENERGY PREDICTED BY IDOCK:  -10.26 KCAL/MOL
REMARK 923 INTER-LIGAND FREE ENERGY PREDICTED BY IDOCK:   -7.29 KCAL/MOL
REMARK 924 INTRA-LIGAND FREE ENERGY PREDICTED BY IDOCK:   -2.97 KCAL/MOL
REMARK 927      BINDING AFFINITY PREDICTED BY RF-SCORE:    0.00 PKD
ROOT
HETATM    1 CA   UNL     1      -7.893  13.750  66.141  1.00  0.00    -0.287 Ca 
HETATM    2  O   UNL     2      -8.768   8.548  63.883  1.00  0.00    -0.414 OA 
HETATM    3  O   UNL     3     -11.087  19.052  67.253  1.00  0.00    -0.382 OA 
HETATM    4  H   UNL     2      -8.360   8.639  63.029  1.00  0.00     0.000 HD 
HETATM    5  C   UNL     2      -8.696   9.800  64.564  1.00  0.00    -0.198 C  
HETATM    6  C   UNL     3     -10.210  18.458  66.299  1.00  0.00    -0.406 C  
HETATM    7  H   UNL     3     -10.755  19.902  67.519  1.00  0.00     0.000 HD 
ENDROOT
BRANCH   5   8
HETATM    8  C   UNL     2      -9.358   9.653  65.950  1.00  0.00    -0.218 C  
HETATM    9  O   UNL     2     -10.769   9.609  65.763  1.00  0.00     0.125 OA 
HETATM   10  H   UNL     2     -11.177   9.518  66.617  1.00  0.00     0.000 HD 
BRANCH   8  11
HETATM   11  C   UNL     2      -8.927   8.348  66.639  1.00  0.00    -0.151 C  
HETATM   12  H   UNL     2      -8.095   7.764  68.372  1.00  0.00     0.000 HD 
HETATM   13  O   UNL     2      -8.361   8.570  67.946  1.00  0.00    -0.124 OA 
BRANCH  11  14
HETATM   14  C   UNL     2      -9.920   7.162  66.720  1.00  0.00    -0.208 C  
HETATM   15  O   UNL     2     -10.775   7.319  67.841  1.00  0.00    -0.324 OA 
HETATM   16  H   UNL     2     -11.384   6.591  67.890  1.00  0.00     0.000 HD 
BRANCH  14  17
HETATM   17  C   UNL     2      -9.364   5.740  66.519  1.00  0.00    -0.152 C  
HETATM   18  H   UNL     2      -8.123   4.903  65.263  1.00  0.00     0.000 HD 
HETATM   19  O   UNL     2      -8.466   5.781  65.387  1.00  0.00    -0.144 OA 
BRANCH  17  20
HETATM   20  C   UNL     2      -8.706   5.099  67.741  1.00  0.00    -0.103 C  
HETATM   21  O   UNL     2      -9.025   5.820  68.952  1.00  0.00    -0.113 OA 
HETATM   22  C   UNL     2      -9.237   3.642  67.847  1.00  0.00    -0.176 C  
HETATM   23  H   UNL     2      -8.616   5.421  69.711  1.00  0.00     0.000 HD 
HETATM   24  O   UNL     2      -9.350   3.051  66.741  1.00  0.00    -0.161 OA 
HETATM   25  O   UNL     2      -9.497   3.289  69.029  1.00  0.00    -0.163 OA 
ENDBRANCH  17  20
ENDBRANCH  14  17
ENDBRANCH  11  14
ENDBRANCH   8  11
ENDBRANCH   5   8
BRANCH   6  26
HETATM   26  C   UNL     3     -10.747  17.086  65.870  1.00  0.00    -0.139 C  
HETATM   27  H   UNL     3     -10.805  16.117  64.214  1.00  0.00     0.000 HD 
HETATM   28  O   UNL     3     -10.473  16.966  64.480  1.00  0.00    -0.191 OA 
BRANCH  26  29
HETATM   29  C   UNL     3     -10.149  15.929  66.714  1.00  0.00    -0.271 C  
HETATM   30  O   UNL     3      -9.774  16.456  68.063  1.00  0.00    -0.230 OA 
HETATM   31  H   UNL     3      -9.408  15.748  68.580  1.00  0.00     0.000 HD 
BRANCH  29  32
HETATM   32  C   UNL     3     -11.156  14.812  67.063  1.00  0.00    -0.333 C  
HETATM   33  H   UNL     3     -12.407  14.487  68.549  1.00  0.00     0.000 HD 
HETATM   34  O   UNL     3     -11.787  15.174  68.335  1.00  0.00    -0.328 OA 
BRANCH  32  35
HETATM   35  C   UNL     3     -10.906  13.308  66.875  1.00  0.00    -0.276 C  
HETATM   36  H   UNL     3     -10.083  12.225  65.500  1.00  0.00     0.000 HD 
HETATM   37  O   UNL     3     -10.238  13.156  65.616  1.00  0.00    -0.281 OA 
BRANCH  35  38
HETATM   38  C   UNL     3     -10.179  12.587  68.006  1.00  0.00    -0.225 C  
HETATM   39  C   UNL     3     -11.107  11.536  68.669  1.00  0.00    -0.238 C  
HETATM   40  O   UNL     3      -9.746  13.520  69.016  1.00  0.00    -0.415 OA 
HETATM   41  O   UNL     3     -12.250  11.383  68.134  1.00  0.00    -0.602 OA 
HETATM   42  O   UNL     3     -10.697  11.135  69.794  1.00  0.00    -0.161 OA 
HETATM   43  H   UNL     3      -9.293  13.071  69.721  1.00  0.00     0.000 HD 
ENDBRANCH  35  38
ENDBRANCH  32  35
ENDBRANCH  29  32
ENDBRANCH  26  29
ENDBRANCH   6  26
TORSDOF 10
ENDMDL
MODEL      286
REMARK 921   NORMALIZED FREE ENERGY PREDICTED BY IDOCK:   -4.89 KCAL/MOL
REMARK 922        TOTAL FREE ENERGY PREDICTED BY IDOCK:  -10.25 KCAL/MOL
REMARK 923 INTER-LIGAND FREE ENERGY PREDICTED BY IDOCK:   -8.36 KCAL/MOL
REMARK 924 INTRA-LIGAND FREE ENERGY PREDICTED BY IDOCK:   -1.90 KCAL/MOL
REMARK 927      BINDING AFFINITY PREDICTED BY RF-SCORE:    0.00 PKD
ROOT
HETATM    1 CA   UNL     1     -11.477  10.000  66.749  1.00  0.00    -0.157 Ca 
HETATM    2  O   UNL     2     -10.698   4.349  66.128  1.00  0.00    -0.435 OA 
HETATM    3  O   UNL     3     -11.529  14.322  71.317  1.00  0.00    -0.474 OA 
HETATM    4  H   UNL     2     -11.591   4.043  66.019  1.00  0.00     0.000 HD 
HETATM    5  C   UNL     2     -10.718   5.756  66.365  1.00  0.00    -0.125 C  
HETATM    6  C   UNL     3     -12.404  13.493  70.557  1.00  0.00    -0.342 C  
HETATM    7  H   UNL     3     -11.817  15.226  71.277  1.00  0.00     0.000 HD 
ENDROOT
BRANCH   5   8
HETATM    8  C   UNL     2      -9.267   6.253  66.542  1.00  0.00    -0.154 C  
HETATM    9  O   UNL     2      -8.881   6.924  65.347  1.00  0.00    -0.350 OA 
HETATM   10  H   UNL     2      -7.988   7.230  65.456  1.00  0.00     0.000 HD 
BRANCH   8  11
HETATM   11  C   UNL     2      -9.156   7.251  67.706  1.00  0.00    -0.124 C  
HETATM   12  H   UNL     2     -10.130   8.864  68.405  1.00  0.00     0.000 HD 
HETATM   13  O   UNL     2     -10.198   8.247  67.686  1.00  0.00    -0.200 OA 
BRANCH  11  14
HETATM   14  C   UNL     2      -8.998   6.723  69.153  1.00  0.00    -0.132 C  
HETATM   15  O   UNL     2      -7.941   5.779  69.213  1.00  0.00    -0.097 OA 
HETATM   16  H   UNL     2      -7.844   5.455  70.101  1.00  0.00     0.000 HD 
BRANCH  14  17
HETATM   17  C   UNL     2     -10.272   6.325  69.921  1.00  0.00    -0.184 C  
HETATM   18  H   UNL     2     -11.246   4.658  70.217  1.00  0.00     0.000 HD 
HETATM   19  O   UNL     2     -10.459   4.903  69.744  1.00  0.00    -0.232 OA 
BRANCH  17  20
HETATM   20  C   UNL     2     -10.318   6.723  71.396  1.00  0.00    -0.202 C  
HETATM   21  O   UNL     2      -9.009   6.651  72.004  1.00  0.00    -0.139 OA 
HETATM   22  C   UNL     2     -10.846   8.184  71.470  1.00  0.00    -0.238 C  
HETATM   23  H   UNL     2      -9.037   6.899  72.920  1.00  0.00     0.000 HD 
HETATM   24  O   UNL     2     -11.779   8.437  70.663  1.00  0.00    -0.254 OA 
HETATM   25  O   UNL     2     -10.236   8.894  72.313  1.00  0.00    -0.296 OA 
ENDBRANCH  17  20
ENDBRANCH  14  17
ENDBRANCH  11  14
ENDBRANCH   8  11
ENDBRANCH   5   8
BRANCH   6  26
HETATM   26  C   UNL     3     -11.938  12.031  70.623  1.00  0.00    -0.160 C  
HETATM   27  H   UNL     3     -12.740  10.383  71.191  1.00  0.00     0.000 HD 
HETATM   28  O   UNL     3     -13.028  11.287  71.151  1.00  0.00    -0.354 OA 
BRANCH  26  29
HETATM   29  C   UNL     3     -11.448  11.508  69.247  1.00  0.00    -0.305 C  
HETATM   30  O   UNL     3     -12.497  10.616  68.664  1.00  0.00    -0.788 OA 
HETATM   31  H   UNL     3     -12.197  10.296  67.821  1.00  0.00     0.000 HD 
BRANCH  29  32
HETATM   32  C   UNL     3     -11.305  12.602  68.166  1.00  0.00    -0.290 C  
HETATM   33  H   UNL     3     -12.069  12.888  66.373  1.00  0.00     0.000 HD 
HETATM   34  O   UNL     3     -12.156  12.215  67.038  1.00  0.00    -0.591 OA 
BRANCH  32  35
HETATM   35  C   UNL     3      -9.987  13.286  67.771  1.00  0.00    -0.223 C  
HETATM   36  H   UNL     3      -9.185  13.833  66.098  1.00  0.00     0.000 HD 
HETATM   37  O   UNL     3     -10.000  13.409  66.343  1.00  0.00    -0.279 OA 
BRANCH  35  38
HETATM   38  C   UNL     3      -9.667  14.607  68.462  1.00  0.00    -0.225 C  
HETATM   39  C   UNL     3     -10.679  15.705  68.040  1.00  0.00    -0.287 C  
HETATM   40  O   UNL     3      -8.338  15.054  68.129  1.00  0.00    -0.135 OA 
HETATM   41  O   UNL     3     -11.628  15.327  67.282  1.00  0.00    -0.286 OA 
HETATM   42  O   UNL     3     -10.298  16.877  68.310  1.00  0.00    -0.297 OA 
HETATM   43  H   UNL     3      -8.139  15.878  68.560  1.00  0.00     0.000 HD 
ENDBRANCH  35  38
ENDBRANCH  32  35
ENDBRANCH  29  32
ENDBRANCH  26  29
ENDBRANCH   6  26
TORSDOF 10
ENDMDL
MODEL      287
REMARK 921   NORMALIZED FREE ENERGY PREDICTED BY IDOCK:   -4.89 KCAL/MOL
REMARK 922        TOTAL FREE ENERGY PREDICTED BY IDOCK:  -10.25 KCAL/MOL
REMARK 923 INTER-LIGAND FREE ENERGY PREDICTED BY IDOCK:   -7.92 KCAL/MOL
REMARK 924 INTRA-LIGAND FREE ENERGY PREDICTED BY IDOCK:   -2.34 KCAL/MOL
REMARK 927      BINDING AFFINITY PREDICTED BY RF-SCORE:    0.00 PKD
ROOT
HETATM    1 CA   UNL     1      -8.650  10.948  70.041  1.00  0.00    -0.351 Ca 
HETATM    2  O   UNL     2      -6.872  16.336  69.190  1.00  0.00    -0.176 OA 
HETATM    3  O   UNL     3     -14.022   7.788  70.890  1.00  0.00    -0.625 OA 
HETATM    4  H   UNL     2      -6.542  16.567  70.051  1.00  0.00     0.000 HD 
HETATM    5  C   UNL     2      -7.424  15.022  69.245  1.00  0.00    -0.188 C  
HETATM    6  C   UNL     3     -12.950   8.381  71.619  1.00  0.00    -0.334 C  
HETATM    7  H   UNL     3     -14.144   6.887  71.162  1.00  0.00     0.000 HD 
ENDROOT
BRANCH   5   8
HETATM    8  C   UNL     2      -7.959  14.646  67.847  1.00  0.00    -0.144 C  
HETATM    9  O   UNL     2      -8.740  13.462  67.977  1.00  0.00    -0.162 OA 
HETATM   10  H   UNL     2      -9.070  13.231  67.116  1.00  0.00     0.000 HD 
BRANCH   8  11
HETATM   11  C   UNL     2      -8.862  15.753  67.279  1.00  0.00    -0.195 C  
HETATM   12  H   UNL     2      -9.339  16.538  65.492  1.00  0.00     0.000 HD 
HETATM   13  O   UNL     2      -8.781  15.854  65.843  1.00  0.00    -0.283 OA 
BRANCH  11  14
HETATM   14  C   UNL     2     -10.351  15.817  67.701  1.00  0.00    -0.281 C  
HETATM   15  O   UNL     2     -11.069  16.666  66.820  1.00  0.00    -0.007 OA 
HETATM   16  H   UNL     2     -11.983  16.705  67.079  1.00  0.00     0.000 HD 
BRANCH  14  17
HETATM   17  C   UNL     2     -10.670  16.009  69.196  1.00  0.00    -0.272 C  
HETATM   18  H   UNL     2     -10.723  17.534  70.416  1.00  0.00     0.000 HD 
HETATM   19  O   UNL     2     -10.526  17.416  69.493  1.00  0.00    -0.248 OA 
BRANCH  17  20
HETATM   20  C   UNL     2     -12.019  15.466  69.667  1.00  0.00    -0.343 C  
HETATM   21  O   UNL     2     -12.530  14.462  68.762  1.00  0.00    -0.582 OA 
HETATM   22  C   UNL     2     -11.804  14.838  71.073  1.00  0.00    -0.329 C  
HETATM   23  H   UNL     2     -13.368  14.124  69.055  1.00  0.00     0.000 HD 
HETATM   24  O   UNL     2     -11.031  15.495  71.820  1.00  0.00    -0.265 OA 
HETATM   25  O   UNL     2     -12.421  13.751  71.235  1.00  0.00    -0.349 OA 
ENDBRANCH  17  20
ENDBRANCH  14  17
ENDBRANCH  11  14
ENDBRANCH   8  11
ENDBRANCH   5   8
BRANCH   6  26
HETATM   26  C   UNL     3     -12.752   9.838  71.179  1.00  0.00    -0.340 C  
HETATM   27  H   UNL     3     -12.894  11.542  72.049  1.00  0.00     0.000 HD 
HETATM   28  O   UNL     3     -13.017  10.641  72.322  1.00  0.00    -0.353 OA 
BRANCH  26  29
HETATM   29  C   UNL     3     -11.345  10.083  70.571  1.00  0.00    -0.335 C  
HETATM   30  O   UNL     3     -10.764   8.772  70.147  1.00  0.00    -0.218 OA 
HETATM   31  H   UNL     3      -9.903   8.922  69.775  1.00  0.00     0.000 HD 
BRANCH  29  32
HETATM   32  C   UNL     3     -11.356  10.883  69.250  1.00  0.00    -0.277 C  
HETATM   33  H   UNL     3     -12.667  12.035  68.336  1.00  0.00     0.000 HD 
HETATM   34  O   UNL     3     -12.661  11.542  69.149  1.00  0.00    -0.185 OA 
BRANCH  32  35
HETATM   35  C   UNL     3     -10.780  10.389  67.914  1.00  0.00    -0.261 C  
HETATM   36  H   UNL     3     -10.936   8.760  66.883  1.00  0.00     0.000 HD 
HETATM   37  O   UNL     3     -11.292   9.066  67.710  1.00  0.00     0.294 OA 
BRANCH  35  38
HETATM   38  C   UNL     3     -10.998  11.287  66.701  1.00  0.00    -0.268 C  
HETATM   39  C   UNL     3      -9.722  11.334  65.819  1.00  0.00    -0.227 C  
HETATM   40  O   UNL     3     -11.325  12.631  67.106  1.00  0.00    -0.283 OA 
HETATM   41  O   UNL     3      -8.764  10.581  66.184  1.00  0.00    -0.148 OA 
HETATM   42  O   UNL     3      -9.712  12.286  64.991  1.00  0.00    -0.185 OA 
HETATM   43  H   UNL     3     -11.461  13.190  66.350  1.00  0.00     0.000 HD 
ENDBRANCH  35  38
ENDBRANCH  32  35
ENDBRANCH  29  32
ENDBRANCH  26  29
ENDBRANCH   6  26
TORSDOF 10
ENDMDL
MODEL      288
REMARK 921   NORMALIZED FREE ENERGY PREDICTED BY IDOCK:   -4.89 KCAL/MOL
REMARK 922        TOTAL FREE ENERGY PREDICTED BY IDOCK:  -10.24 KCAL/MOL
REMARK 923 INTER-LIGAND FREE ENERGY PREDICTED BY IDOCK:   -7.49 KCAL/MOL
REMARK 924 INTRA-LIGAND FREE ENERGY PREDICTED BY IDOCK:   -2.76 KCAL/MOL
REMARK 927      BINDING AFFINITY PREDICTED BY RF-SCORE:    0.00 PKD
ROOT
HETATM    1 CA   UNL     1      -7.983  14.583  65.900  1.00  0.00    -0.221 Ca 
HETATM    2  O   UNL     2      -9.816   9.951  63.052  1.00  0.00    -0.520 OA 
HETATM    3  O   UNL     3     -10.357  19.643  68.784  1.00  0.00    -0.540 OA 
HETATM    4  H   UNL     2      -9.639  10.198  62.151  1.00  0.00     0.000 HD 
HETATM    5  C   UNL     2      -9.472  11.042  63.904  1.00  0.00    -0.251 C  
HETATM    6  C   UNL     3      -9.808  19.225  67.537  1.00  0.00    -0.340 C  
HETATM    7  H   UNL     3      -9.902  20.414  69.101  1.00  0.00     0.000 HD 
ENDROOT
BRANCH   5   8
HETATM    8  C   UNL     2      -9.760  10.643  65.367  1.00  0.00    -0.252 C  
HETATM    9  O   UNL     2     -11.158  10.781  65.597  1.00  0.00     0.018 OA 
HETATM   10  H   UNL     2     -11.335  10.535  66.497  1.00  0.00     0.000 HD 
BRANCH   8  11
HETATM   11  C   UNL     2      -9.376   9.178  65.631  1.00  0.00    -0.235 C  
HETATM   12  H   UNL     2      -7.716   8.087  65.939  1.00  0.00     0.000 HD 
HETATM   13  O   UNL     2      -7.953   8.993  65.776  1.00  0.00    -0.099 OA 
BRANCH  11  14
HETATM   14  C   UNL     2     -10.098   8.387  66.750  1.00  0.00    -0.303 C  
HETATM   15  O   UNL     2     -10.572   9.279  67.746  1.00  0.00    -0.254 OA 
HETATM   16  H   UNL     2     -11.015   8.794  68.433  1.00  0.00     0.000 HD 
BRANCH  14  17
HETATM   17  C   UNL     2      -9.422   7.111  67.286  1.00  0.00    -0.140 C  
HETATM   18  H   UNL     2      -8.518   6.615  68.944  1.00  0.00     0.000 HD 
HETATM   19  O   UNL     2      -8.935   7.403  68.614  1.00  0.00    -0.133 OA 
BRANCH  17  20
HETATM   20  C   UNL     2     -10.273   5.842  67.260  1.00  0.00    -0.205 C  
HETATM   21  O   UNL     2     -11.657   6.126  67.562  1.00  0.00    -0.450 OA 
HETATM   22  C   UNL     2     -10.166   5.236  65.832  1.00  0.00    -0.056 C  
HETATM   23  H   UNL     2     -12.185   5.337  67.546  1.00  0.00     0.000 HD 
HETATM   24  O   UNL     2      -9.012   5.298  65.330  1.00  0.00    -0.160 OA 
HETATM   25  O   UNL     2     -11.262   4.798  65.391  1.00  0.00    -0.103 OA 
ENDBRANCH  17  20
ENDBRANCH  14  17
ENDBRANCH  11  14
ENDBRANCH   8  11
ENDBRANCH   5   8
BRANCH   6  26
HETATM   26  C   UNL     3     -10.543  17.978  67.026  1.00  0.00    -0.308 C  
HETATM   27  H   UNL     3     -10.957  17.273  65.290  1.00  0.00     0.000 HD 
HETATM   28  O   UNL     3     -10.502  18.044  65.606  1.00  0.00    -0.619 OA 
BRANCH  26  29
HETATM   29  C   UNL     3      -9.942  16.666  67.596  1.00  0.00    -0.264 C  
HETATM   30  O   UNL     3      -8.914  17.010  68.627  1.00  0.00    -0.257 OA 
HETATM   31  H   UNL     3      -8.546  16.206  68.975  1.00  0.00     0.000 HD 
BRANCH  29  32
HETATM   32  C   UNL     3     -10.942  15.807  68.399  1.00  0.00    -0.323 C  
HETATM   33  H   UNL     3     -12.564  16.185  69.450  1.00  0.00     0.000 HD 
HETATM   34  O   UNL     3     -11.948  16.714  68.956  1.00  0.00     0.151 OA 
BRANCH  32  35
HETATM   35  C   UNL     3     -10.562  14.630  69.311  1.00  0.00    -0.226 C  
HETATM   36  H   UNL     3      -9.980  14.465  71.148  1.00  0.00     0.000 HD 
HETATM   37  O   UNL     3     -10.215  15.192  70.583  1.00  0.00    -0.020 OA 
BRANCH  35  38
HETATM   38  C   UNL     3     -11.581  13.503  69.435  1.00  0.00    -0.312 C  
HETATM   39  C   UNL     3     -11.122  12.260  68.627  1.00  0.00    -0.249 C  
HETATM   40  O   UNL     3     -12.871  13.918  68.946  1.00  0.00    -0.043 OA 
HETATM   41  O   UNL     3      -9.977  12.341  68.082  1.00  0.00    -0.199 OA 
HETATM   42  O   UNL     3     -12.042  11.421  68.421  1.00  0.00    -0.575 OA 
HETATM   43  H   UNL     3     -13.506  13.215  69.023  1.00  0.00     0.000 HD 
ENDBRANCH  35  38
ENDBRANCH  32  35
ENDBRANCH  29  32
ENDBRANCH  26  29
ENDBRANCH   6  26
TORSDOF 10
ENDMDL
MODEL      289
REMARK 921   NORMALIZED FREE ENERGY PREDICTED BY IDOCK:   -4.88 KCAL/MOL
REMARK 922        TOTAL FREE ENERGY PREDICTED BY IDOCK:  -10.23 KCAL/MOL
REMARK 923 INTER-LIGAND FREE ENERGY PREDICTED BY IDOCK:   -8.82 KCAL/MOL
REMARK 924 INTRA-LIGAND FREE ENERGY PREDICTED BY IDOCK:   -1.41 KCAL/MOL
REMARK 927      BINDING AFFINITY PREDICTED BY RF-SCORE:    0.00 PKD
ROOT
HETATM    1 CA   UNL     1     -11.601   8.829  67.618  1.00  0.00    -0.509 Ca 
HETATM    2  O   UNL     2      -9.842   8.583  73.074  1.00  0.00    -0.177 OA 
HETATM    3  O   UNL     3     -12.152  13.044  62.983  1.00  0.00    -0.775 OA 
HETATM    4  H   UNL     2     -10.669   8.569  73.542  1.00  0.00     0.000 HD 
HETATM    5  C   UNL     2     -10.104   8.713  71.678  1.00  0.00    -0.294 C  
HETATM    6  C   UNL     3     -12.907  12.421  64.019  1.00  0.00    -0.267 C  
HETATM    7  H   UNL     3     -12.603  12.958  62.151  1.00  0.00     0.000 HD 
ENDROOT
BRANCH   5   8
HETATM    8  C   UNL     2      -8.760   8.736  70.918  1.00  0.00    -0.194 C  
HETATM    9  O   UNL     2      -7.752   9.184  71.817  1.00  0.00    -0.344 OA 
HETATM   10  H   UNL     2      -6.925   9.199  71.349  1.00  0.00     0.000 HD 
BRANCH   8  11
HETATM   11  C   UNL     2      -8.372   7.331  70.428  1.00  0.00    -0.130 C  
HETATM   12  H   UNL     2      -9.027   5.440  70.604  1.00  0.00     0.000 HD 
HETATM   13  O   UNL     2      -9.267   6.308  70.907  1.00  0.00    -0.156 OA 
BRANCH  11  14
HETATM   14  C   UNL     2      -8.102   7.094  68.922  1.00  0.00    -0.121 C  
HETATM   15  O   UNL     2      -6.710   7.170  68.660  1.00  0.00    -0.058 OA 
HETATM   16  H   UNL     2      -6.544   7.024  67.735  1.00  0.00     0.000 HD 
BRANCH  14  17
HETATM   17  C   UNL     2      -8.997   7.825  67.903  1.00  0.00    -0.125 C  
HETATM   18  H   UNL     2      -8.857   9.477  66.872  1.00  0.00     0.000 HD 
HETATM   19  O   UNL     2      -8.304   9.027  67.500  1.00  0.00    -0.115 OA 
BRANCH  17  20
HETATM   20  C   UNL     2      -9.451   7.001  66.699  1.00  0.00    -0.165 C  
HETATM   21  O   UNL     2      -8.351   6.270  66.113  1.00  0.00    -0.118 OA 
HETATM   22  C   UNL     2     -10.532   6.001  67.197  1.00  0.00    -0.264 C  
HETATM   23  H   UNL     2      -8.633   5.758  65.364  1.00  0.00     0.000 HD 
HETATM   24  O   UNL     2     -11.336   6.485  68.038  1.00  0.00    -0.234 OA 
HETATM   25  O   UNL     2     -10.418   4.850  66.697  1.00  0.00    -0.262 OA 
ENDBRANCH  17  20
ENDBRANCH  14  17
ENDBRANCH  11  14
ENDBRANCH   8  11
ENDBRANCH   5   8
BRANCH   6  26
HETATM   26  C   UNL     3     -12.178  12.561  65.362  1.00  0.00    -0.412 C  
HETATM   27  H   UNL     3     -10.375  12.278  65.956  1.00  0.00     0.000 HD 
HETATM   28  O   UNL     3     -10.826  12.191  65.125  1.00  0.00    -0.282 OA 
BRANCH  26  29
HETATM   29  C   UNL     3     -12.328  13.982  65.968  1.00  0.00    -0.473 C  
HETATM   30  O   UNL     3     -12.469  13.865  67.452  1.00  0.00    -0.468 OA 
HETATM   31  H   UNL     3     -12.561  14.735  67.822  1.00  0.00     0.000 HD 
BRANCH  29  32
HETATM   32  C   UNL     3     -11.072  14.869  65.823  1.00  0.00    -0.342 C  
HETATM   33  H   UNL     3      -9.703  15.118  64.429  1.00  0.00     0.000 HD 
HETATM   34  O   UNL     3     -10.476  14.572  64.518  1.00  0.00    -0.317 OA 
BRANCH  32  35
HETATM   35  C   UNL     3     -10.059  15.155  66.942  1.00  0.00    -0.255 C  
HETATM   36  H   UNL     3      -8.278  14.526  67.360  1.00  0.00     0.000 HD 
HETATM   37  O   UNL     3      -8.905  14.349  66.668  1.00  0.00    -0.232 OA 
BRANCH  35  38
HETATM   38  C   UNL     3      -9.700  16.617  67.184  1.00  0.00    -0.250 C  
HETATM   39  C   UNL     3     -10.618  17.233  68.271  1.00  0.00    -0.383 C  
HETATM   40  O   UNL     3      -9.838  17.388  65.974  1.00  0.00    -0.448 OA 
HETATM   41  O   UNL     3     -11.435  16.435  68.830  1.00  0.00    -0.328 OA 
HETATM   42  O   UNL     3     -10.599  18.495  68.297  1.00  0.00    -0.320 OA 
HETATM   43  H   UNL     3      -9.614  18.299  66.125  1.00  0.00     0.000 HD 
ENDBRANCH  35  38
ENDBRANCH  32  35
ENDBRANCH  29  32
ENDBRANCH  26  29
ENDBRANCH   6  26
TORSDOF 10
ENDMDL
MODEL      290
REMARK 921   NORMALIZED FREE ENERGY PREDICTED BY IDOCK:   -4.87 KCAL/MOL
REMARK 922        TOTAL FREE ENERGY PREDICTED BY IDOCK:  -10.22 KCAL/MOL
REMARK 923 INTER-LIGAND FREE ENERGY PREDICTED BY IDOCK:  -10.17 KCAL/MOL
REMARK 924 INTRA-LIGAND FREE ENERGY PREDICTED BY IDOCK:   -0.05 KCAL/MOL
REMARK 927      BINDING AFFINITY PREDICTED BY RF-SCORE:    0.00 PKD
ROOT
HETATM    1 CA   UNL     1      -7.225  12.097  67.104  1.00  0.00    -0.093 Ca 
HETATM    2  O   UNL     2      -9.519   6.985  65.868  1.00  0.00    -0.394 OA 
HETATM    3  O   UNL     3      -8.882  18.164  67.173  1.00  0.00    -0.250 OA 
HETATM    4  H   UNL     2      -9.141   6.806  65.015  1.00  0.00     0.000 HD 
HETATM    5  C   UNL     2      -9.095   8.277  66.300  1.00  0.00    -0.188 C  
HETATM    6  C   UNL     3      -8.233  17.195  66.354  1.00  0.00    -0.292 C  
HETATM    7  H   UNL     3      -8.330  18.930  67.275  1.00  0.00     0.000 HD 
ENDROOT
BRANCH   5   8
HETATM    8  C   UNL     2      -9.709   8.568  67.685  1.00  0.00    -0.160 C  
HETATM    9  O   UNL     2     -11.127   8.527  67.557  1.00  0.00    -0.459 OA 
HETATM   10  H   UNL     2     -11.505   8.706  68.410  1.00  0.00     0.000 HD 
BRANCH   8  11
HETATM   11  C   UNL     2      -9.293   7.505  68.715  1.00  0.00    -0.147 C  
HETATM   12  H   UNL     2      -7.713   6.327  69.110  1.00  0.00     0.000 HD 
HETATM   13  O   UNL     2      -7.971   6.984  68.474  1.00  0.00    -0.119 OA 
BRANCH  11  14
HETATM   14  C   UNL     2      -9.444   7.804  70.227  1.00  0.00    -0.160 C  
HETATM   15  O   UNL     2      -8.344   7.265  70.941  1.00  0.00    -0.114 OA 
HETATM   16  H   UNL     2      -8.436   7.449  71.869  1.00  0.00     0.000 HD 
BRANCH  14  17
HETATM   17  C   UNL     2     -10.821   7.569  70.876  1.00  0.00    -0.240 C  
HETATM   18  H   UNL     2     -12.422   6.557  70.399  1.00  0.00     0.000 HD 
HETATM   19  O   UNL     2     -11.572   6.702  69.998  1.00  0.00    -0.380 OA 
BRANCH  17  20
HETATM   20  C   UNL     2     -10.803   7.045  72.312  1.00  0.00    -0.230 C  
HETATM   21  O   UNL     2     -11.937   7.527  73.065  1.00  0.00    -0.569 OA 
HETATM   22  C   UNL     2     -10.847   5.492  72.243  1.00  0.00    -0.241 C  
HETATM   23  H   UNL     2     -11.926   7.201  73.958  1.00  0.00     0.000 HD 
HETATM   24  O   UNL     2     -10.143   4.996  71.323  1.00  0.00    -0.190 OA 
HETATM   25  O   UNL     2     -11.603   4.974  73.107  1.00  0.00    -0.328 OA 
ENDBRANCH  17  20
ENDBRANCH  14  17
ENDBRANCH  11  14
ENDBRANCH   8  11
ENDBRANCH   5   8
BRANCH   6  26
HETATM   26  C   UNL     3      -9.126  15.957  66.190  1.00  0.00    -0.350 C  
HETATM   27  H   UNL     3      -9.562  14.450  67.296  1.00  0.00     0.000 HD 
HETATM   28  O   UNL     3      -9.009  15.216  67.397  1.00  0.00    -0.172 OA 
BRANCH  26  29
HETATM   29  C   UNL     3     -10.591  16.330  65.839  1.00  0.00    -0.297 C  
HETATM   30  O   UNL     3     -10.607  17.677  65.189  1.00  0.00    -0.636 OA 
HETATM   31  H   UNL     3     -11.504  17.906  64.975  1.00  0.00     0.000 HD 
BRANCH  29  32
HETATM   32  C   UNL     3     -11.233  15.434  64.758  1.00  0.00    -0.395 C  
HETATM   33  H   UNL     3     -12.238  15.767  63.097  1.00  0.00     0.000 HD 
HETATM   34  O   UNL     3     -11.843  16.318  63.762  1.00  0.00    -0.955 OA 
BRANCH  32  35
HETATM   35  C   UNL     3     -12.016  14.141  65.034  1.00  0.00    -0.408 C  
HETATM   36  H   UNL     3     -13.155  12.987  63.979  1.00  0.00     0.000 HD 
HETATM   37  O   UNL     3     -12.670  13.787  63.808  1.00  0.00    -0.673 OA 
BRANCH  35  38
HETATM   38  C   UNL     3     -11.230  12.977  65.627  1.00  0.00    -0.283 C  
HETATM   39  C   UNL     3     -10.368  12.287  64.537  1.00  0.00    -0.311 C  
HETATM   40  O   UNL     3     -12.116  11.995  66.200  1.00  0.00    -0.582 OA 
HETATM   41  O   UNL     3     -10.384  12.830  63.387  1.00  0.00    -0.306 OA 
HETATM   42  O   UNL     3      -9.948  11.144  64.869  1.00  0.00    -0.241 OA 
HETATM   43  H   UNL     3     -11.627  11.270  66.570  1.00  0.00     0.000 HD 
ENDBRANCH  35  38
ENDBRANCH  32  35
ENDBRANCH  29  32
ENDBRANCH  26  29
ENDBRANCH   6  26
TORSDOF 10
ENDMDL
MODEL      291
REMARK 921   NORMALIZED FREE ENERGY PREDICTED BY IDOCK:   -4.87 KCAL/MOL
REMARK 922        TOTAL FREE ENERGY PREDICTED BY IDOCK:  -10.21 KCAL/MOL
REMARK 923 INTER-LIGAND FREE ENERGY PREDICTED BY IDOCK:   -7.92 KCAL/MOL
REMARK 924 INTRA-LIGAND FREE ENERGY PREDICTED BY IDOCK:   -2.29 KCAL/MOL
REMARK 927      BINDING AFFINITY PREDICTED BY RF-SCORE:    0.00 PKD
ROOT
HETATM    1 CA   UNL     1      -7.335  10.174  70.265  1.00  0.00    -0.080 Ca 
HETATM    2  O   UNL     2      -5.130  15.431  69.607  1.00  0.00    -0.094 OA 
HETATM    3  O   UNL     3     -12.940   7.429  71.044  1.00  0.00    -0.552 OA 
HETATM    4  H   UNL     2      -4.777  15.600  70.472  1.00  0.00     0.000 HD 
HETATM    5  C   UNL     2      -5.787  14.164  69.616  1.00  0.00    -0.107 C  
HETATM    6  C   UNL     3     -11.819   7.904  71.784  1.00  0.00    -0.293 C  
HETATM    7  H   UNL     3     -13.134   6.531  71.282  1.00  0.00     0.000 HD 
ENDROOT
BRANCH   5   8
HETATM    8  C   UNL     2      -6.361  13.888  68.210  1.00  0.00    -0.110 C  
HETATM    9  O   UNL     2      -5.273  13.818  67.295  1.00  0.00    -0.318 OA 
HETATM   10  H   UNL     2      -5.626  13.648  66.429  1.00  0.00     0.000 HD 
BRANCH   8  11
HETATM   11  C   UNL     2      -7.109  12.547  68.166  1.00  0.00    -0.103 C  
HETATM   12  H   UNL     2      -8.855  11.774  68.793  1.00  0.00     0.000 HD 
HETATM   13  O   UNL     2      -8.392  12.603  68.820  1.00  0.00    -0.020 OA 
BRANCH  11  14
HETATM   14  C   UNL     2      -7.270  11.805  66.816  1.00  0.00    -0.050 C  
HETATM   15  O   UNL     2      -8.378  12.329  66.102  1.00  0.00    -0.382 OA 
HETATM   16  H   UNL     2      -8.476  11.874  65.274  1.00  0.00     0.000 HD 
BRANCH  14  17
HETATM   17  C   UNL     2      -7.165  10.268  66.819  1.00  0.00    -0.105 C  
HETATM   18  H   UNL     2      -6.445   8.932  68.048  1.00  0.00     0.000 HD 
HETATM   19  O   UNL     2      -6.510   9.880  68.047  1.00  0.00    -0.055 OA 
BRANCH  17  20
HETATM   20  C   UNL     2      -8.473   9.507  66.609  1.00  0.00    -0.133 C  
HETATM   21  O   UNL     2      -9.505   9.972  67.507  1.00  0.00    -0.146 OA 
HETATM   22  C   UNL     2      -8.920   9.740  65.139  1.00  0.00    -0.197 C  
HETATM   23  H   UNL     2     -10.319   9.499  67.377  1.00  0.00     0.000 HD 
HETATM   24  O   UNL     2      -7.977   9.724  64.304  1.00  0.00    -0.128 OA 
HETATM   25  O   UNL     2     -10.159   9.935  65.017  1.00  0.00    -0.286 OA 
ENDBRANCH  17  20
ENDBRANCH  14  17
ENDBRANCH  11  14
ENDBRANCH   8  11
ENDBRANCH   5   8
BRANCH   6  26
HETATM   26  C   UNL     3     -11.506   9.357  71.399  1.00  0.00    -0.379 C  
HETATM   27  H   UNL     3     -10.442  10.193  70.039  1.00  0.00     0.000 HD 
HETATM   28  O   UNL     3     -10.635   9.294  70.277  1.00  0.00    -0.206 OA 
BRANCH  26  29
HETATM   29  C   UNL     3     -12.790  10.185  71.134  1.00  0.00    -0.399 C  
HETATM   30  O   UNL     3     -13.759   9.950  72.249  1.00  0.00    -0.528 OA 
HETATM   31  H   UNL     3     -14.546  10.457  72.086  1.00  0.00     0.000 HD 
BRANCH  29  32
HETATM   32  C   UNL     3     -12.583  11.714  71.191  1.00  0.00    -0.335 C  
HETATM   33  H   UNL     3     -13.347  13.178  72.265  1.00  0.00     0.000 HD 
HETATM   34  O   UNL     3     -13.475  12.237  72.229  1.00  0.00    -0.520 OA 
BRANCH  32  35
HETATM   35  C   UNL     3     -12.415  12.629  69.968  1.00  0.00     0.019 C  
HETATM   36  H   UNL     3     -11.759  14.428  69.694  1.00  0.00     0.000 HD 
HETATM   37  O   UNL     3     -11.863  13.861  70.450  1.00  0.00    -0.298 OA 
BRANCH  35  38
HETATM   38  C   UNL     3     -11.627  12.063  68.792  1.00  0.00    -0.311 C  
HETATM   39  C   UNL     3     -11.604  13.071  67.614  1.00  0.00    -0.355 C  
HETATM   40  O   UNL     3     -12.208  10.828  68.329  1.00  0.00    -0.815 OA 
HETATM   41  O   UNL     3     -12.148  14.199  67.833  1.00  0.00    -0.358 OA 
HETATM   42  O   UNL     3     -11.256  12.559  66.514  1.00  0.00    -0.277 OA 
HETATM   43  H   UNL     3     -11.717  10.475  67.596  1.00  0.00     0.000 HD 
ENDBRANCH  35  38
ENDBRANCH  32  35
ENDBRANCH  29  32
ENDBRANCH  26  29
ENDBRANCH   6  26
TORSDOF 10
ENDMDL
MODEL      292
REMARK 921   NORMALIZED FREE ENERGY PREDICTED BY IDOCK:   -4.86 KCAL/MOL
REMARK 922        TOTAL FREE ENERGY PREDICTED BY IDOCK:  -10.20 KCAL/MOL
REMARK 923 INTER-LIGAND FREE ENERGY PREDICTED BY IDOCK:   -8.09 KCAL/MOL
REMARK 924 INTRA-LIGAND FREE ENERGY PREDICTED BY IDOCK:   -2.11 KCAL/MOL
REMARK 927      BINDING AFFINITY PREDICTED BY RF-SCORE:    0.00 PKD
ROOT
HETATM    1 CA   UNL     1     -10.913  10.828  68.697  1.00  0.00    -0.167 Ca 
HETATM    2  O   UNL     2     -11.766   7.648  73.396  1.00  0.00    -0.615 OA 
HETATM    3  O   UNL     3      -9.551  16.772  67.157  1.00  0.00    -0.229 OA 
HETATM    4  H   UNL     2     -12.713   7.569  73.405  1.00  0.00     0.000 HD 
HETATM    5  C   UNL     2     -11.383   8.483  72.304  1.00  0.00    -0.371 C  
HETATM    6  C   UNL     3     -10.656  15.885  67.309  1.00  0.00    -0.314 C  
HETATM    7  H   UNL     3      -9.578  17.186  66.303  1.00  0.00     0.000 HD 
ENDROOT
BRANCH   5   8
HETATM    8  C   UNL     2      -9.845   8.611  72.290  1.00  0.00    -0.289 C  
HETATM    9  O   UNL     2      -9.300   7.469  72.943  1.00  0.00    -0.153 OA 
HETATM   10  H   UNL     2      -8.353   7.548  72.934  1.00  0.00     0.000 HD 
BRANCH   8  11
HETATM   11  C   UNL     2      -9.300   8.643  70.853  1.00  0.00    -0.189 C  
HETATM   12  H   UNL     2      -9.850   9.336  69.049  1.00  0.00     0.000 HD 
HETATM   13  O   UNL     2     -10.186   9.316  69.937  1.00  0.00    -0.192 OA 
BRANCH  11  14
HETATM   14  C   UNL     2      -7.852   9.127  70.594  1.00  0.00    -0.146 C  
HETATM   15  O   UNL     2      -7.869  10.427  70.027  1.00  0.00    -0.330 OA 
HETATM   16  H   UNL     2      -6.980  10.724  69.869  1.00  0.00     0.000 HD 
BRANCH  14  17
HETATM   17  C   UNL     2      -6.868   8.142  69.936  1.00  0.00    -0.044 C  
HETATM   18  H   UNL     2      -5.202   8.314  68.929  1.00  0.00     0.000 HD 
HETATM   19  O   UNL     2      -5.810   8.922  69.335  1.00  0.00    -0.034 OA 
BRANCH  17  20
HETATM   20  C   UNL     2      -6.316   7.041  70.842  1.00  0.00    -0.040 C  
HETATM   21  O   UNL     2      -6.358   7.430  72.232  1.00  0.00    -0.043 OA 
HETATM   22  C   UNL     2      -7.195   5.776  70.628  1.00  0.00    -0.082 C  
HETATM   23  H   UNL     2      -6.015   6.746  72.795  1.00  0.00     0.000 HD 
HETATM   24  O   UNL     2      -7.528   5.575  69.430  1.00  0.00    -0.068 OA 
HETATM   25  O   UNL     2      -7.456   5.163  71.698  1.00  0.00    -0.089 OA 
ENDBRANCH  17  20
ENDBRANCH  14  17
ENDBRANCH  11  14
ENDBRANCH   8  11
ENDBRANCH   5   8
BRANCH   6  26
HETATM   26  C   UNL     3     -10.612  15.216  68.690  1.00  0.00    -0.234 C  
HETATM   27  H   UNL     3     -10.269  15.829  70.477  1.00  0.00     0.000 HD 
HETATM   28  O   UNL     3     -10.295  16.242  69.622  1.00  0.00    -0.275 OA 
BRANCH  26  29
HETATM   29  C   UNL     3     -11.931  14.470  69.025  1.00  0.00    -0.299 C  
HETATM   30  O   UNL     3     -12.132  13.370  68.033  1.00  0.00    -0.342 OA 
HETATM   31  H   UNL     3     -12.940  12.913  68.238  1.00  0.00     0.000 HD 
BRANCH  29  32
HETATM   32  C   UNL     3     -11.905  13.707  70.367  1.00  0.00    -0.237 C  
HETATM   33  H   UNL     3     -11.736  11.813  70.881  1.00  0.00     0.000 HD 
HETATM   34  O   UNL     3     -11.752  12.283  70.056  1.00  0.00    -0.306 OA 
BRANCH  32  35
HETATM   35  C   UNL     3     -12.810  14.007  71.571  1.00  0.00    -0.362 C  
HETATM   36  H   UNL     3     -13.974  12.949  72.697  1.00  0.00     0.000 HD 
HETATM   37  O   UNL     3     -13.415  12.764  71.952  1.00  0.00    -0.450 OA 
BRANCH  35  38
HETATM   38  C   UNL     3     -12.164  14.721  72.753  1.00  0.00    -0.234 C  
HETATM   39  C   UNL     3     -13.118  15.801  73.328  1.00  0.00    -0.584 C  
HETATM   40  O   UNL     3     -10.933  15.359  72.358  1.00  0.00    -0.210 OA 
HETATM   41  O   UNL     3     -14.274  15.861  72.803  1.00  0.00    -0.523 OA 
HETATM   42  O   UNL     3     -12.545  16.635  74.082  1.00  0.00    -0.641 OA 
HETATM   43  H   UNL     3     -10.530  15.805  73.095  1.00  0.00     0.000 HD 
ENDBRANCH  35  38
ENDBRANCH  32  35
ENDBRANCH  29  32
ENDBRANCH  26  29
ENDBRANCH   6  26
TORSDOF 10
ENDMDL
MODEL      293
REMARK 921   NORMALIZED FREE ENERGY PREDICTED BY IDOCK:   -4.85 KCAL/MOL
REMARK 922        TOTAL FREE ENERGY PREDICTED BY IDOCK:  -10.18 KCAL/MOL
REMARK 923 INTER-LIGAND FREE ENERGY PREDICTED BY IDOCK:   -7.84 KCAL/MOL
REMARK 924 INTRA-LIGAND FREE ENERGY PREDICTED BY IDOCK:   -2.34 KCAL/MOL
REMARK 927      BINDING AFFINITY PREDICTED BY RF-SCORE:    0.00 PKD
ROOT
HETATM    1 CA   UNL     1     -10.084  14.279  66.804  1.00  0.00    -0.234 Ca 
HETATM    2  O   UNL     2      -6.632  10.179  68.853  1.00  0.00    -0.048 OA 
HETATM    3  O   UNL     3      -9.957  20.455  65.625  1.00  0.00    -0.588 OA 
HETATM    4  H   UNL     2      -6.969  10.067  69.734  1.00  0.00     0.000 HD 
HETATM    5  C   UNL     2      -7.352  11.232  68.213  1.00  0.00    -0.095 C  
HETATM    6  C   UNL     3     -10.362  19.518  66.619  1.00  0.00    -0.465 C  
HETATM    7  H   UNL     3     -10.677  21.034  65.406  1.00  0.00     0.000 HD 
ENDROOT
BRANCH   5   8
HETATM    8  C   UNL     2      -6.804  11.413  66.782  1.00  0.00    -0.132 C  
HETATM    9  O   UNL     2      -5.436  11.020  66.779  1.00  0.00    -0.059 OA 
HETATM   10  H   UNL     2      -5.098  11.132  65.898  1.00  0.00     0.000 HD 
BRANCH   8  11
HETATM   11  C   UNL     2      -7.557  10.524  65.779  1.00  0.00    -0.142 C  
HETATM   12  H   UNL     2      -7.832   8.568  65.410  1.00  0.00     0.000 HD 
HETATM   13  O   UNL     2      -7.367   9.118  66.030  1.00  0.00    -0.092 OA 
BRANCH  11  14
HETATM   14  C   UNL     2      -9.059  10.784  65.505  1.00  0.00    -0.199 C  
HETATM   15  O   UNL     2      -9.207  11.834  64.562  1.00  0.00    -0.419 OA 
HETATM   16  H   UNL     2     -10.129  11.993  64.394  1.00  0.00     0.000 HD 
BRANCH  14  17
HETATM   17  C   UNL     2     -10.013  10.853  66.712  1.00  0.00    -0.205 C  
HETATM   18  H   UNL     2     -11.542  11.963  67.207  1.00  0.00     0.000 HD 
HETATM   19  O   UNL     2     -10.954  11.920  66.462  1.00  0.00    -0.266 OA 
BRANCH  17  20
HETATM   20  C   UNL     2     -10.720   9.550  67.083  1.00  0.00    -0.182 C  
HETATM   21  O   UNL     2     -10.226   8.440  66.301  1.00  0.00    -0.442 OA 
HETATM   22  C   UNL     2     -10.450   9.284  68.591  1.00  0.00    -0.209 C  
HETATM   23  H   UNL     2     -10.666   7.629  66.531  1.00  0.00     0.000 HD 
HETATM   24  O   UNL     2     -10.493  10.315  69.313  1.00  0.00    -0.199 OA 
HETATM   25  O   UNL     2     -10.206   8.075  68.850  1.00  0.00    -0.201 OA 
ENDBRANCH  17  20
ENDBRANCH  14  17
ENDBRANCH  11  14
ENDBRANCH   8  11
ENDBRANCH   5   8
BRANCH   6  26
HETATM   26  C   UNL     3      -9.197  18.584  66.973  1.00  0.00    -0.284 C  
HETATM   27  H   UNL     3      -7.286  18.695  66.831  1.00  0.00     0.000 HD 
HETATM   28  O   UNL     3      -8.007  19.273  66.612  1.00  0.00    -0.253 OA 
BRANCH  26  29
HETATM   29  C   UNL     3      -9.225  18.147  68.462  1.00  0.00    -0.314 C  
HETATM   30  O   UNL     3     -10.283  18.924  69.177  1.00  0.00    -0.526 OA 
HETATM   31  H   UNL     3     -10.300  18.657  70.089  1.00  0.00     0.000 HD 
BRANCH  29  32
HETATM   32  C   UNL     3      -9.676  16.688  68.687  1.00  0.00    -0.248 C  
HETATM   33  H   UNL     3      -9.162  14.944  67.927  1.00  0.00     0.000 HD 
HETATM   34  O   UNL     3      -8.885  15.843  67.788  1.00  0.00    -0.173 OA 
BRANCH  32  35
HETATM   35  C   UNL     3     -11.131  16.233  68.882  1.00  0.00    -0.345 C  
HETATM   36  H   UNL     3     -12.759  16.401  67.851  1.00  0.00     0.000 HD 
HETATM   37  O   UNL     3     -11.859  16.682  67.732  1.00  0.00     0.344 OA 
BRANCH  35  38
HETATM   38  C   UNL     3     -11.353  14.752  69.165  1.00  0.00    -0.282 C  
HETATM   39  C   UNL     3     -12.302  14.564  70.378  1.00  0.00    -0.338 C  
HETATM   40  O   UNL     3     -10.106  14.088  69.451  1.00  0.00    -0.420 OA 
HETATM   41  O   UNL     3     -12.793  15.627  70.872  1.00  0.00    -0.472 OA 
HETATM   42  O   UNL     3     -12.279  13.400  70.866  1.00  0.00    -0.354 OA 
HETATM   43  H   UNL     3     -10.244  13.165  69.628  1.00  0.00     0.000 HD 
ENDBRANCH  35  38
ENDBRANCH  32  35
ENDBRANCH  29  32
ENDBRANCH  26  29
ENDBRANCH   6  26
TORSDOF 10
ENDMDL
MODEL      294
REMARK 921   NORMALIZED FREE ENERGY PREDICTED BY IDOCK:   -4.85 KCAL/MOL
REMARK 922        TOTAL FREE ENERGY PREDICTED BY IDOCK:  -10.18 KCAL/MOL
REMARK 923 INTER-LIGAND FREE ENERGY PREDICTED BY IDOCK:   -8.10 KCAL/MOL
REMARK 924 INTRA-LIGAND FREE ENERGY PREDICTED BY IDOCK:   -2.08 KCAL/MOL
REMARK 927      BINDING AFFINITY PREDICTED BY RF-SCORE:    0.00 PKD
ROOT
HETATM    1 CA   UNL     1      -7.254  10.373  70.446  1.00  0.00    -0.110 Ca 
HETATM    2  O   UNL     2      -5.236  15.718  70.981  1.00  0.00    -0.162 OA 
HETATM    3  O   UNL     3     -12.717   7.286  70.868  1.00  0.00    -0.556 OA 
HETATM    4  H   UNL     2      -4.826  15.683  71.838  1.00  0.00     0.000 HD 
HETATM    5  C   UNL     2      -5.858  14.461  70.716  1.00  0.00    -0.195 C  
HETATM    6  C   UNL     3     -11.558   7.610  71.631  1.00  0.00    -0.267 C  
HETATM    7  H   UNL     3     -12.870   6.349  70.886  1.00  0.00     0.000 HD 
ENDROOT
BRANCH   5   8
HETATM    8  C   UNL     2      -6.523  14.517  69.325  1.00  0.00    -0.123 C  
HETATM    9  O   UNL     2      -7.604  13.590  69.314  1.00  0.00    -0.316 OA 
HETATM   10  H   UNL     2      -8.013  13.625  68.457  1.00  0.00     0.000 HD 
BRANCH   8  11
HETATM   11  C   UNL     2      -7.092  15.915  69.034  1.00  0.00    -0.161 C  
HETATM   12  H   UNL     2      -7.048  17.284  67.563  1.00  0.00     0.000 HD 
HETATM   13  O   UNL     2      -6.696  16.420  67.743  1.00  0.00    -0.119 OA 
BRANCH  11  14
HETATM   14  C   UNL     2      -8.605  16.182  69.231  1.00  0.00    -0.191 C  
HETATM   15  O   UNL     2      -9.097  15.409  70.314  1.00  0.00    -0.151 OA 
HETATM   16  H   UNL     2     -10.026  15.573  70.435  1.00  0.00     0.000 HD 
BRANCH  14  17
HETATM   17  C   UNL     2      -9.505  16.198  67.981  1.00  0.00    -0.211 C  
HETATM   18  H   UNL     2     -10.585  14.874  67.034  1.00  0.00     0.000 HD 
HETATM   19  O   UNL     2     -10.030  14.864  67.806  1.00  0.00    -0.220 OA 
BRANCH  17  20
HETATM   20  C   UNL     2     -10.614  17.250  67.968  1.00  0.00    -0.394 C  
HETATM   21  O   UNL     2     -10.436  18.219  69.024  1.00  0.00    -0.440 OA 
HETATM   22  C   UNL     2     -10.563  17.967  66.590  1.00  0.00    -0.258 C  
HETATM   23  H   UNL     2     -11.126  18.873  69.016  1.00  0.00     0.000 HD 
HETATM   24  O   UNL     2     -10.334  17.201  65.616  1.00  0.00    -0.557 OA 
HETATM   25  O   UNL     2     -10.734  19.213  66.667  1.00  0.00    -0.417 OA 
ENDBRANCH  17  20
ENDBRANCH  14  17
ENDBRANCH  11  14
ENDBRANCH   8  11
ENDBRANCH   5   8
BRANCH   6  26
HETATM   26  C   UNL     3     -11.310   9.125  71.601  1.00  0.00    -0.376 C  
HETATM   27  H   UNL     3      -9.771  10.236  71.318  1.00  0.00     0.000 HD 
HETATM   28  O   UNL     3      -9.924   9.298  71.337  1.00  0.00    -0.306 OA 
BRANCH  26  29
HETATM   29  C   UNL     3     -12.225   9.850  70.579  1.00  0.00    -0.179 C  
HETATM   30  O   UNL     3     -13.454  10.331  71.282  1.00  0.00    -0.319 OA 
HETATM   31  H   UNL     3     -14.014  10.775  70.656  1.00  0.00     0.000 HD 
BRANCH  29  32
HETATM   32  C   UNL     3     -11.632  11.160  70.015  1.00  0.00    -0.338 C  
HETATM   33  H   UNL     3     -11.785  13.066  70.485  1.00  0.00     0.000 HD 
HETATM   34  O   UNL     3     -12.150  12.261  70.832  1.00  0.00    -0.296 OA 
BRANCH  32  35
HETATM   35  C   UNL     3     -11.474  11.487  68.522  1.00  0.00    -0.292 C  
HETATM   36  H   UNL     3     -12.127  12.887  67.359  1.00  0.00     0.000 HD 
HETATM   37  O   UNL     3     -12.224  12.685  68.282  1.00  0.00    -0.185 OA 
BRANCH  35  38
HETATM   38  C   UNL     3     -10.050  11.579  67.988  1.00  0.00    -0.186 C  
HETATM   39  C   UNL     3     -10.027  11.364  66.452  1.00  0.00    -0.214 C  
HETATM   40  O   UNL     3      -9.203  10.588  68.603  1.00  0.00    -0.156 OA 
HETATM   41  O   UNL     3     -11.159  11.236  65.889  1.00  0.00    -0.219 OA 
HETATM   42  O   UNL     3      -8.879  11.110  65.991  1.00  0.00    -0.184 OA 
HETATM   43  H   UNL     3      -8.315  10.645  68.270  1.00  0.00     0.000 HD 
ENDBRANCH  35  38
ENDBRANCH  32  35
ENDBRANCH  29  32
ENDBRANCH  26  29
ENDBRANCH   6  26
TORSDOF 10
ENDMDL
MODEL      295
REMARK 921   NORMALIZED FREE ENERGY PREDICTED BY IDOCK:   -4.84 KCAL/MOL
REMARK 922        TOTAL FREE ENERGY PREDICTED BY IDOCK:  -10.17 KCAL/MOL
REMARK 923 INTER-LIGAND FREE ENERGY PREDICTED BY IDOCK:   -8.60 KCAL/MOL
REMARK 924 INTRA-LIGAND FREE ENERGY PREDICTED BY IDOCK:   -1.56 KCAL/MOL
REMARK 927      BINDING AFFINITY PREDICTED BY RF-SCORE:    0.00 PKD
ROOT
HETATM    1 CA   UNL     1     -11.712  10.336  66.834  1.00  0.00    -0.176 Ca 
HETATM    2  O   UNL     2      -9.935   7.633  71.574  1.00  0.00    -0.173 OA 
HETATM    3  O   UNL     3     -11.098  15.935  64.037  1.00  0.00    -0.896 OA 
HETATM    4  H   UNL     2     -10.711   7.676  72.121  1.00  0.00     0.000 HD 
HETATM    5  C   UNL     2     -10.190   8.333  70.357  1.00  0.00    -0.201 C  
HETATM    6  C   UNL     3     -11.973  15.208  64.895  1.00  0.00    -0.185 C  
HETATM    7  H   UNL     3     -11.581  16.287  63.298  1.00  0.00     0.000 HD 
ENDROOT
BRANCH   5   8
HETATM    8  C   UNL     2      -8.930   8.265  69.468  1.00  0.00    -0.150 C  
HETATM    9  O   UNL     2      -7.792   8.192  70.320  1.00  0.00    -0.089 OA 
HETATM   10  H   UNL     2      -7.016   8.150  69.773  1.00  0.00     0.000 HD 
BRANCH   8  11
HETATM   11  C   UNL     2      -8.941   7.010  68.579  1.00  0.00    -0.122 C  
HETATM   12  H   UNL     2      -9.936   5.270  68.441  1.00  0.00     0.000 HD 
HETATM   13  O   UNL     2      -9.929   6.045  68.991  1.00  0.00    -0.143 OA 
BRANCH  11  14
HETATM   14  C   UNL     2      -9.004   7.165  67.040  1.00  0.00    -0.129 C  
HETATM   15  O   UNL     2     -10.049   8.054  66.683  1.00  0.00    -0.289 OA 
HETATM   16  H   UNL     2     -10.088   8.149  65.738  1.00  0.00     0.000 HD 
BRANCH  14  17
HETATM   17  C   UNL     2      -8.913   5.889  66.181  1.00  0.00    -0.151 C  
HETATM   18  H   UNL     2      -7.639   4.417  66.019  1.00  0.00     0.000 HD 
HETATM   19  O   UNL     2      -7.695   5.204  66.549  1.00  0.00    -0.091 OA 
BRANCH  17  20
HETATM   20  C   UNL     2     -10.125   4.958  66.235  1.00  0.00    -0.257 C  
HETATM   21  O   UNL     2     -11.352   5.698  66.415  1.00  0.00    -0.689 OA 
HETATM   22  C   UNL     2     -10.178   4.182  64.889  1.00  0.00    -0.204 C  
HETATM   23  H   UNL     2     -12.105   5.120  66.449  1.00  0.00     0.000 HD 
HETATM   24  O   UNL     2      -9.052   3.817  64.458  1.00  0.00    -0.125 OA 
HETATM   25  O   UNL     2     -11.344   4.062  64.426  1.00  0.00    -0.293 OA 
ENDBRANCH  17  20
ENDBRANCH  14  17
ENDBRANCH  11  14
ENDBRANCH   8  11
ENDBRANCH   5   8
BRANCH   6  26
HETATM   26  C   UNL     3     -11.192  14.639  66.088  1.00  0.00    -0.341 C  
HETATM   27  H   UNL     3     -10.337  15.402  67.628  1.00  0.00     0.000 HD 
HETATM   28  O   UNL     3     -10.819  15.753  66.889  1.00  0.00    -0.319 OA 
BRANCH  26  29
HETATM   29  C   UNL     3     -12.003  13.569  66.866  1.00  0.00    -0.399 C  
HETATM   30  O   UNL     3     -11.979  12.287  66.097  1.00  0.00    -0.579 OA 
HETATM   31  H   UNL     3     -12.475  11.632  66.573  1.00  0.00     0.000 HD 
BRANCH  29  32
HETATM   32  C   UNL     3     -11.379  13.157  68.217  1.00  0.00    -0.297 C  
HETATM   33  H   UNL     3     -10.162  11.723  68.802  1.00  0.00     0.000 HD 
HETATM   34  O   UNL     3     -10.546  11.977  67.971  1.00  0.00    -0.196 OA 
BRANCH  32  35
HETATM   35  C   UNL     3     -12.114  13.155  69.566  1.00  0.00    -0.238 C  
HETATM   36  H   UNL     3     -12.170  11.958  71.084  1.00  0.00     0.000 HD 
HETATM   37  O   UNL     3     -11.715  11.960  70.249  1.00  0.00    -0.303 OA 
BRANCH  35  38
HETATM   38  C   UNL     3     -11.957  14.398  70.434  1.00  0.00    -0.325 C  
HETATM   39  C   UNL     3     -13.158  14.543  71.405  1.00  0.00    -0.353 C  
HETATM   40  O   UNL     3     -11.876  15.587  69.622  1.00  0.00    -0.325 OA 
HETATM   41  O   UNL     3     -14.007  13.597  71.386  1.00  0.00    -0.132 OA 
HETATM   42  O   UNL     3     -13.261  15.691  71.918  1.00  0.00    -0.434 OA 
HETATM   43  H   UNL     3     -11.778  16.362  70.164  1.00  0.00     0.000 HD 
ENDBRANCH  35  38
ENDBRANCH  32  35
ENDBRANCH  29  32
ENDBRANCH  26  29
ENDBRANCH   6  26
TORSDOF 10
ENDMDL
MODEL      296
REMARK 921   NORMALIZED FREE ENERGY PREDICTED BY IDOCK:   -4.82 KCAL/MOL
REMARK 922        TOTAL FREE ENERGY PREDICTED BY IDOCK:  -10.14 KCAL/MOL
REMARK 923 INTER-LIGAND FREE ENERGY PREDICTED BY IDOCK:   -8.25 KCAL/MOL
REMARK 924 INTRA-LIGAND FREE ENERGY PREDICTED BY IDOCK:   -1.89 KCAL/MOL
REMARK 927      BINDING AFFINITY PREDICTED BY RF-SCORE:    0.00 PKD
ROOT
HETATM    1 CA   UNL     1      -8.521  13.351  66.473  1.00  0.00    -0.248 Ca 
HETATM    2  O   UNL     2     -10.454   7.950  66.374  1.00  0.00    -0.464 OA 
HETATM    3  O   UNL     3     -10.783  19.218  66.342  1.00  0.00    -0.422 OA 
HETATM    4  H   UNL     2     -10.273   7.698  65.476  1.00  0.00     0.000 HD 
HETATM    5  C   UNL     2     -10.087   9.317  66.552  1.00  0.00    -0.273 C  
HETATM    6  C   UNL     3     -10.244  18.212  65.488  1.00  0.00     0.264 C  
HETATM    7  H   UNL     3     -10.312  20.034  66.224  1.00  0.00     0.000 HD 
ENDROOT
BRANCH   5   8
HETATM    8  C   UNL     2     -10.381   9.727  68.011  1.00  0.00    -0.207 C  
HETATM    9  O   UNL     2     -11.734  10.164  68.083  1.00  0.00    -0.694 OA 
HETATM   10  H   UNL     2     -11.915  10.416  68.981  1.00  0.00     0.000 HD 
BRANCH   8  11
HETATM   11  C   UNL     2     -10.213   8.537  68.970  1.00  0.00    -0.207 C  
HETATM   12  H   UNL     2      -8.919   7.034  69.293  1.00  0.00     0.000 HD 
HETATM   13  O   UNL     2      -9.023   7.769  68.701  1.00  0.00    -0.134 OA 
BRANCH  11  14
HETATM   14  C   UNL     2     -10.325   8.765  70.498  1.00  0.00    -0.203 C  
HETATM   15  O   UNL     2      -9.104   8.419  71.132  1.00  0.00    -0.149 OA 
HETATM   16  H   UNL     2      -9.173   8.558  72.069  1.00  0.00     0.000 HD 
BRANCH  14  17
HETATM   17  C   UNL     2     -11.595   8.263  71.212  1.00  0.00    -0.281 C  
HETATM   18  H   UNL     2     -13.429   8.911  71.392  1.00  0.00     0.000 HD 
HETATM   19  O   UNL     2     -12.646   9.220  70.952  1.00  0.00    -0.231 OA 
BRANCH  17  20
HETATM   20  C   UNL     2     -12.032   6.837  70.878  1.00  0.00    -0.383 C  
HETATM   21  O   UNL     2     -11.921   6.568  69.463  1.00  0.00    -0.601 OA 
HETATM   22  C   UNL     2     -11.106   5.868  71.666  1.00  0.00    -0.258 C  
HETATM   23  H   UNL     2     -12.193   5.681  69.255  1.00  0.00     0.000 HD 
HETATM   24  O   UNL     2     -10.840   6.246  72.838  1.00  0.00    -0.235 OA 
HETATM   25  O   UNL     2     -10.747   4.863  70.995  1.00  0.00    -0.086 OA 
ENDBRANCH  17  20
ENDBRANCH  14  17
ENDBRANCH  11  14
ENDBRANCH   8  11
ENDBRANCH   5   8
BRANCH   6  26
HETATM   26  C   UNL     3     -11.006  16.893  65.679  1.00  0.00     0.026 C  
HETATM   27  H   UNL     3     -11.996  15.726  64.520  1.00  0.00     0.000 HD 
HETATM   28  O   UNL     3     -11.525  16.542  64.402  1.00  0.00    -0.873 OA 
BRANCH  26  29
HETATM   29  C   UNL     3     -10.117  15.785  66.305  1.00  0.00    -0.303 C  
HETATM   30  O   UNL     3      -9.556  14.936  65.210  1.00  0.00    -0.427 OA 
HETATM   31  H   UNL     3      -9.012  14.258  65.593  1.00  0.00     0.000 HD 
BRANCH  29  32
HETATM   32  C   UNL     3      -8.844  16.312  67.001  1.00  0.00    -0.205 C  
HETATM   33  H   UNL     3      -6.924  15.883  66.891  1.00  0.00     0.000 HD 
HETATM   34  O   UNL     3      -7.708  15.559  66.463  1.00  0.00    -0.084 OA 
BRANCH  32  35
HETATM   35  C   UNL     3      -8.733  16.660  68.494  1.00  0.00    -0.242 C  
HETATM   36  H   UNL     3      -9.894  17.518  69.781  1.00  0.00     0.000 HD 
HETATM   37  O   UNL     3      -9.962  17.303  68.858  1.00  0.00    -0.296 OA 
BRANCH  35  38
HETATM   38  C   UNL     3      -8.374  15.519  69.439  1.00  0.00    -0.249 C  
HETATM   39  C   UNL     3      -6.848  15.496  69.713  1.00  0.00    -0.146 C  
HETATM   40  O   UNL     3      -8.761  14.248  68.882  1.00  0.00    -0.311 OA 
HETATM   41  O   UNL     3      -6.174  16.443  69.198  1.00  0.00    -0.148 OA 
HETATM   42  O   UNL     3      -6.439  14.413  70.215  1.00  0.00    -0.175 OA 
HETATM   43  H   UNL     3      -8.537  13.536  69.471  1.00  0.00     0.000 HD 
ENDBRANCH  35  38
ENDBRANCH  32  35
ENDBRANCH  29  32
ENDBRANCH  26  29
ENDBRANCH   6  26
TORSDOF 10
ENDMDL
MODEL      297
REMARK 921   NORMALIZED FREE ENERGY PREDICTED BY IDOCK:   -4.81 KCAL/MOL
REMARK 922        TOTAL FREE ENERGY PREDICTED BY IDOCK:  -10.12 KCAL/MOL
REMARK 923 INTER-LIGAND FREE ENERGY PREDICTED BY IDOCK:   -6.69 KCAL/MOL
REMARK 924 INTRA-LIGAND FREE ENERGY PREDICTED BY IDOCK:   -3.44 KCAL/MOL
REMARK 927      BINDING AFFINITY PREDICTED BY RF-SCORE:    0.00 PKD
ROOT
HETATM    1 CA   UNL     1     -12.655  11.418  68.956  1.00  0.00    -0.313 Ca 
HETATM    2  O   UNL     2     -12.018   6.745  72.224  1.00  0.00    -0.396 OA 
HETATM    3  O   UNL     3     -10.037  17.086  68.197  1.00  0.00    -0.279 OA 
HETATM    4  H   UNL     2     -12.731   6.845  72.843  1.00  0.00     0.000 HD 
HETATM    5  C   UNL     2     -11.992   7.882  71.362  1.00  0.00    -0.303 C  
HETATM    6  C   UNL     3     -11.123  16.439  68.854  1.00  0.00    -0.328 C  
HETATM    7  H   UNL     3     -10.353  17.824  67.689  1.00  0.00     0.000 HD 
ENDROOT
BRANCH   5   8
HETATM    8  C   UNL     2     -10.832   7.719  70.356  1.00  0.00    -0.244 C  
HETATM    9  O   UNL     2     -11.392   7.437  69.078  1.00  0.00    -0.433 OA 
HETATM   10  H   UNL     2     -10.678   7.337  68.459  1.00  0.00     0.000 HD 
BRANCH   8  11
HETATM   11  C   UNL     2     -10.008   9.011  70.241  1.00  0.00    -0.195 C  
HETATM   12  H   UNL     2      -8.359   9.824  71.052  1.00  0.00     0.000 HD 
HETATM   13  O   UNL     2      -8.868   9.025  71.123  1.00  0.00    -0.208 OA 
BRANCH  11  14
HETATM   14  C   UNL     2      -9.564   9.513  68.844  1.00  0.00    -0.156 C  
HETATM   15  O   UNL     2     -10.641  10.174  68.200  1.00  0.00    -0.193 OA 
HETATM   16  H   UNL     2     -10.369  10.482  67.343  1.00  0.00     0.000 HD 
BRANCH  14  17
HETATM   17  C   UNL     2      -8.764   8.547  67.950  1.00  0.00    -0.138 C  
HETATM   18  H   UNL     2      -8.980   7.831  66.145  1.00  0.00     0.000 HD 
HETATM   19  O   UNL     2      -9.473   8.428  66.697  1.00  0.00    -0.172 OA 
BRANCH  17  20
HETATM   20  C   UNL     2      -7.292   8.895  67.737  1.00  0.00    -0.085 C  
HETATM   21  O   UNL     2      -7.043  10.301  67.960  1.00  0.00    -0.081 OA 
HETATM   22  C   UNL     2      -6.461   8.054  68.747  1.00  0.00    -0.049 C  
HETATM   23  H   UNL     2      -6.128  10.517  67.828  1.00  0.00     0.000 HD 
HETATM   24  O   UNL     2      -6.871   6.872  68.894  1.00  0.00    -0.067 OA 
HETATM   25  O   UNL     2      -5.519   8.698  69.280  1.00  0.00    -0.034 OA 
ENDBRANCH  17  20
ENDBRANCH  14  17
ENDBRANCH  11  14
ENDBRANCH   8  11
ENDBRANCH   5   8
BRANCH   6  26
HETATM   26  C   UNL     3     -10.612  15.247  69.675  1.00  0.00    -0.276 C  
HETATM   27  H   UNL     3     -10.763  14.707  71.510  1.00  0.00     0.000 HD 
HETATM   28  O   UNL     3     -11.079  15.445  71.003  1.00  0.00    -0.344 OA 
BRANCH  26  29
HETATM   29  C   UNL     3     -11.046  13.886  69.069  1.00  0.00    -0.268 C  
HETATM   30  O   UNL     3     -12.537  13.851  68.971  1.00  0.00    -0.372 OA 
HETATM   31  H   UNL     3     -12.803  13.017  68.600  1.00  0.00     0.000 HD 
BRANCH  29  32
HETATM   32  C   UNL     3     -10.612  13.678  67.601  1.00  0.00    -0.241 C  
HETATM   33  H   UNL     3     -11.124  12.426  66.168  1.00  0.00     0.000 HD 
HETATM   34  O   UNL     3     -11.390  12.554  67.072  1.00  0.00    -0.290 OA 
BRANCH  32  35
HETATM   35  C   UNL     3      -9.167  13.757  67.087  1.00  0.00    -0.243 C  
HETATM   36  H   UNL     3      -7.923  12.490  66.320  1.00  0.00     0.000 HD 
HETATM   37  O   UNL     3      -8.817  12.441  66.638  1.00  0.00    -0.208 OA 
BRANCH  35  38
HETATM   38  C   UNL     3      -8.870  14.824  66.039  1.00  0.00     0.271 C  
HETATM   39  C   UNL     3      -7.891  15.887  66.603  1.00  0.00    -0.201 C  
HETATM   40  O   UNL     3     -10.079  15.488  65.623  1.00  0.00    -0.326 OA 
HETATM   41  O   UNL     3      -7.441  15.667  67.771  1.00  0.00    -0.124 OA 
HETATM   42  O   UNL     3      -7.851  16.951  65.925  1.00  0.00    -0.391 OA 
HETATM   43  H   UNL     3      -9.894  16.153  64.969  1.00  0.00     0.000 HD 
ENDBRANCH  35  38
ENDBRANCH  32  35
ENDBRANCH  29  32
ENDBRANCH  26  29
ENDBRANCH   6  26
TORSDOF 10
ENDMDL
MODEL      298
REMARK 921   NORMALIZED FREE ENERGY PREDICTED BY IDOCK:   -4.79 KCAL/MOL
REMARK 922        TOTAL FREE ENERGY PREDICTED BY IDOCK:  -10.09 KCAL/MOL
REMARK 923 INTER-LIGAND FREE ENERGY PREDICTED BY IDOCK:   -7.97 KCAL/MOL
REMARK 924 INTRA-LIGAND FREE ENERGY PREDICTED BY IDOCK:   -2.12 KCAL/MOL
REMARK 927      BINDING AFFINITY PREDICTED BY RF-SCORE:    0.00 PKD
ROOT
HETATM    1 CA   UNL     1      -8.074  10.847  70.442  1.00  0.00    -0.344 Ca 
HETATM    2  O   UNL     2     -12.647  14.093  69.227  1.00  0.00    -0.497 OA 
HETATM    3  O   UNL     3      -6.401   4.785  70.420  1.00  0.00    -0.024 OA 
HETATM    4  H   UNL     2     -12.979  14.290  70.095  1.00  0.00     0.000 HD 
HETATM    5  C   UNL     2     -11.525  13.220  69.348  1.00  0.00    -0.263 C  
HETATM    6  C   UNL     3      -6.888   5.804  71.289  1.00  0.00    -0.062 C  
HETATM    7  H   UNL     3      -5.625   4.381  70.790  1.00  0.00     0.000 HD 
ENDROOT
BRANCH   5   8
HETATM    8  C   UNL     2     -10.987  12.899  67.938  1.00  0.00    -0.241 C  
HETATM    9  O   UNL     2     -11.831  11.911  67.357  1.00  0.00    -0.571 OA 
HETATM   10  H   UNL     2     -11.500  11.713  66.489  1.00  0.00     0.000 HD 
BRANCH   8  11
HETATM   11  C   UNL     2     -11.016  14.142  67.033  1.00  0.00    -0.300 C  
HETATM   12  H   UNL     2     -12.347  15.182  65.945  1.00  0.00     0.000 HD 
HETATM   13  O   UNL     2     -12.329  14.414  66.504  1.00  0.00    -0.411 OA 
BRANCH  11  14
HETATM   14  C   UNL     2     -10.395  15.468  67.535  1.00  0.00    -0.271 C  
HETATM   15  O   UNL     2     -11.406  16.307  68.068  1.00  0.00    -0.313 OA 
HETATM   16  H   UNL     2     -11.024  17.121  68.377  1.00  0.00     0.000 HD 
BRANCH  14  17
HETATM   17  C   UNL     2      -9.372  16.177  66.626  1.00  0.00    -0.242 C  
HETATM   18  H   UNL     2      -9.447  17.068  64.889  1.00  0.00     0.000 HD 
HETATM   19  O   UNL     2     -10.078  16.631  65.450  1.00  0.00    -0.578 OA 
BRANCH  17  20
HETATM   20  C   UNL     2      -8.568  17.303  67.274  1.00  0.00    -0.203 C  
HETATM   21  O   UNL     2      -9.387  18.095  68.162  1.00  0.00    -0.272 OA 
HETATM   22  C   UNL     2      -7.411  16.647  68.080  1.00  0.00    -0.168 C  
HETATM   23  H   UNL     2      -8.887  18.795  68.565  1.00  0.00     0.000 HD 
HETATM   24  O   UNL     2      -6.873  15.664  67.505  1.00  0.00    -0.160 OA 
HETATM   25  O   UNL     2      -7.210  17.191  69.200  1.00  0.00    -0.246 OA 
ENDBRANCH  17  20
ENDBRANCH  14  17
ENDBRANCH  11  14
ENDBRANCH   8  11
ENDBRANCH   5   8
BRANCH   6  26
HETATM   26  C   UNL     3      -8.142   6.456  70.689  1.00  0.00    -0.113 C  
HETATM   27  H   UNL     3      -8.626   7.103  68.949  1.00  0.00     0.000 HD 
HETATM   28  O   UNL     3      -7.850   6.700  69.319  1.00  0.00    -0.106 OA 
BRANCH  26  29
HETATM   29  C   UNL     3      -9.413   5.593  70.902  1.00  0.00    -0.166 C  
HETATM   30  O   UNL     3      -9.084   4.460  71.821  1.00  0.00    -0.121 OA 
HETATM   31  H   UNL     3      -9.863   3.932  71.950  1.00  0.00     0.000 HD 
BRANCH  29  32
HETATM   32  C   UNL     3     -10.550   6.313  71.659  1.00  0.00    -0.227 C  
HETATM   33  H   UNL     3     -11.798   5.807  73.097  1.00  0.00     0.000 HD 
HETATM   34  O   UNL     3     -11.098   5.364  72.630  1.00  0.00    -0.253 OA 
BRANCH  32  35
HETATM   35  C   UNL     3     -11.589   7.244  71.014  1.00  0.00    -0.299 C  
HETATM   36  H   UNL     3     -13.460   7.621  71.329  1.00  0.00     0.000 HD 
HETATM   37  O   UNL     3     -12.817   7.046  71.727  1.00  0.00    -0.353 OA 
BRANCH  35  38
HETATM   38  C   UNL     3     -11.215   8.718  70.905  1.00  0.00    -0.270 C  
HETATM   39  C   UNL     3     -10.676   9.042  69.487  1.00  0.00    -0.206 C  
HETATM   40  O   UNL     3     -10.203   9.065  71.872  1.00  0.00    -0.343 OA 
HETATM   41  O   UNL     3     -10.709   8.089  68.646  1.00  0.00    -0.148 OA 
HETATM   42  O   UNL     3     -10.057  10.140  69.418  1.00  0.00    -0.205 OA 
HETATM   43  H   UNL     3      -9.970   9.984  71.804  1.00  0.00     0.000 HD 
ENDBRANCH  35  38
ENDBRANCH  32  35
ENDBRANCH  29  32
ENDBRANCH  26  29
ENDBRANCH   6  26
TORSDOF 10
ENDMDL
MODEL      299
REMARK 921   NORMALIZED FREE ENERGY PREDICTED BY IDOCK:   -4.79 KCAL/MOL
REMARK 922        TOTAL FREE ENERGY PREDICTED BY IDOCK:  -10.09 KCAL/MOL
REMARK 923 INTER-LIGAND FREE ENERGY PREDICTED BY IDOCK:   -7.18 KCAL/MOL
REMARK 924 INTRA-LIGAND FREE ENERGY PREDICTED BY IDOCK:   -2.91 KCAL/MOL
REMARK 927      BINDING AFFINITY PREDICTED BY RF-SCORE:    0.00 PKD
ROOT
HETATM    1 CA   UNL     1     -10.973   8.087  66.530  1.00  0.00    -0.315 Ca 
HETATM    2  O   UNL     2      -7.534  10.991  62.970  1.00  0.00    -0.353 OA 
HETATM    3  O   UNL     3     -13.213   8.523  72.390  1.00  0.00    -0.496 OA 
HETATM    4  H   UNL     2      -6.737  10.475  63.011  1.00  0.00     0.000 HD 
HETATM    5  C   UNL     2      -8.492  10.431  63.868  1.00  0.00    -0.161 C  
HETATM    6  C   UNL     3     -12.170   7.909  71.638  1.00  0.00    -0.308 C  
HETATM    7  H   UNL     3     -13.680   7.871  72.898  1.00  0.00     0.000 HD 
ENDROOT
BRANCH   5   8
HETATM    8  C   UNL     2      -9.787  11.268  63.801  1.00  0.00    -0.322 C  
HETATM    9  O   UNL     2     -10.610  10.727  62.773  1.00  0.00    -0.749 OA 
HETATM   10  H   UNL     2     -11.408  11.242  62.732  1.00  0.00     0.000 HD 
BRANCH   8  11
HETATM   11  C   UNL     2     -10.567  11.196  65.124  1.00  0.00    -0.253 C  
HETATM   12  H   UNL     2     -10.595  10.084  66.797  1.00  0.00     0.000 HD 
HETATM   13  O   UNL     2     -10.113  10.129  65.980  1.00  0.00    -0.246 OA 
BRANCH  11  14
HETATM   14  C   UNL     2     -10.748  12.476  65.976  1.00  0.00    -0.262 C  
HETATM   15  O   UNL     2     -10.835  13.613  65.132  1.00  0.00    -0.304 OA 
HETATM   16  H   UNL     2     -10.947  14.399  65.655  1.00  0.00     0.000 HD 
BRANCH  14  17
HETATM   17  C   UNL     2      -9.851  12.652  67.215  1.00  0.00    -0.206 C  
HETATM   18  H   UNL     2      -7.936  12.887  67.516  1.00  0.00     0.000 HD 
HETATM   19  O   UNL     2      -8.489  12.778  66.751  1.00  0.00    -0.144 OA 
BRANCH  17  20
HETATM   20  C   UNL     2     -10.234  13.789  68.163  1.00  0.00    -0.253 C  
HETATM   21  O   UNL     2     -10.337  15.049  67.464  1.00  0.00    -0.238 OA 
HETATM   22  C   UNL     2     -11.610  13.429  68.793  1.00  0.00    -0.325 C  
HETATM   23  H   UNL     2     -10.576  15.755  68.053  1.00  0.00     0.000 HD 
HETATM   24  O   UNL     2     -11.737  12.213  69.094  1.00  0.00    -0.288 OA 
HETATM   25  O   UNL     2     -12.393  14.413  68.879  1.00  0.00    -0.229 OA 
ENDBRANCH  17  20
ENDBRANCH  14  17
ENDBRANCH  11  14
ENDBRANCH   8  11
ENDBRANCH   5   8
BRANCH   6  26
HETATM   26  C   UNL     3     -11.417   8.965  70.817  1.00  0.00    -0.275 C  
HETATM   27  H   UNL     3      -9.857  10.043  71.111  1.00  0.00     0.000 HD 
HETATM   28  O   UNL     3     -10.323   9.390  71.619  1.00  0.00    -0.309 OA 
BRANCH  26  29
HETATM   29  C   UNL     3     -10.985   8.430  69.426  1.00  0.00    -0.002 C  
HETATM   30  O   UNL     3     -10.504   9.574  68.592  1.00  0.00    -0.200 OA 
HETATM   31  H   UNL     3     -10.240   9.247  67.741  1.00  0.00     0.000 HD 
BRANCH  29  32
HETATM   32  C   UNL     3      -9.752   7.501  69.457  1.00  0.00    -0.164 C  
HETATM   33  H   UNL     3      -7.839   7.721  69.040  1.00  0.00     0.000 HD 
HETATM   34  O   UNL     3      -8.599   8.292  69.020  1.00  0.00    -0.133 OA 
BRANCH  32  35
HETATM   35  C   UNL     3      -9.737   6.036  68.996  1.00  0.00    -0.133 C  
HETATM   36  H   UNL     3     -10.280   5.109  67.388  1.00  0.00     0.000 HD 
HETATM   37  O   UNL     3     -10.289   6.015  67.673  1.00  0.00    -0.160 OA 
BRANCH  35  38
HETATM   38  C   UNL     3      -8.402   5.305  69.078  1.00  0.00    -0.095 C  
HETATM   39  C   UNL     3      -8.609   3.837  69.535  1.00  0.00    -0.067 C  
HETATM   40  O   UNL     3      -7.514   5.956  70.009  1.00  0.00    -0.075 OA 
HETATM   41  O   UNL     3      -9.815   3.463  69.681  1.00  0.00    -0.071 OA 
HETATM   42  O   UNL     3      -7.550   3.274  69.929  1.00  0.00    -0.044 OA 
HETATM   43  H   UNL     3      -6.682   5.500  70.060  1.00  0.00     0.000 HD 
ENDBRANCH  35  38
ENDBRANCH  32  35
ENDBRANCH  29  32
ENDBRANCH  26  29
ENDBRANCH   6  26
TORSDOF 10
ENDMDL
MODEL      300
REMARK 921   NORMALIZED FREE ENERGY PREDICTED BY IDOCK:   -4.78 KCAL/MOL
REMARK 922        TOTAL FREE ENERGY PREDICTED BY IDOCK:  -10.08 KCAL/MOL
REMARK 923 INTER-LIGAND FREE ENERGY PREDICTED BY IDOCK:   -7.78 KCAL/MOL
REMARK 924 INTRA-LIGAND FREE ENERGY PREDICTED BY IDOCK:   -2.30 KCAL/MOL
REMARK 927      BINDING AFFINITY PREDICTED BY RF-SCORE:    0.00 PKD
ROOT
HETATM    1 CA   UNL     1      -6.910  10.297  70.499  1.00  0.00    -0.083 Ca 
HETATM    2  O   UNL     2      -5.805  15.911  70.066  1.00  0.00    -0.159 OA 
HETATM    3  O   UNL     3     -11.723   6.487  71.866  1.00  0.00    -0.296 OA 
HETATM    4  H   UNL     2      -5.338  16.078  70.877  1.00  0.00     0.000 HD 
HETATM    5  C   UNL     2      -6.219  14.546  70.044  1.00  0.00    -0.159 C  
HETATM    6  C   UNL     3     -10.588   7.107  72.463  1.00  0.00    -0.240 C  
HETATM    7  H   UNL     3     -11.712   5.552  72.033  1.00  0.00     0.000 HD 
ENDROOT
BRANCH   5   8
HETATM    8  C   UNL     2      -6.976  14.275  68.727  1.00  0.00    -0.102 C  
HETATM    9  O   UNL     2      -7.668  13.038  68.862  1.00  0.00    -0.296 OA 
HETATM   10  H   UNL     2      -8.135  12.872  68.051  1.00  0.00     0.000 HD 
BRANCH   8  11
HETATM   11  C   UNL     2      -8.014  15.373  68.444  1.00  0.00    -0.131 C  
HETATM   12  H   UNL     2      -8.399  16.756  67.037  1.00  0.00     0.000 HD 
HETATM   13  O   UNL     2      -7.757  16.077  67.212  1.00  0.00    -0.148 OA 
BRANCH  11  14
HETATM   14  C   UNL     2      -9.524  15.038  68.522  1.00  0.00    -0.203 C  
HETATM   15  O   UNL     2     -10.067  14.934  67.216  1.00  0.00    -0.234 OA 
HETATM   16  H   UNL     2     -10.993  14.728  67.264  1.00  0.00     0.000 HD 
BRANCH  14  17
HETATM   17  C   UNL     2     -10.388  15.824  69.526  1.00  0.00    -0.272 C  
HETATM   18  H   UNL     2     -11.433  17.473  69.461  1.00  0.00     0.000 HD 
HETATM   19  O   UNL     2     -10.899  16.988  68.841  1.00  0.00    -0.307 OA 
BRANCH  17  20
HETATM   20  C   UNL     2     -11.503  15.034  70.212  1.00  0.00    -0.269 C  
HETATM   21  O   UNL     2     -11.225  13.616  70.210  1.00  0.00    -0.480 OA 
HETATM   22  C   UNL     2     -11.603  15.543  71.677  1.00  0.00    -0.430 C  
HETATM   23  H   UNL     2     -11.918  13.126  70.636  1.00  0.00     0.000 HD 
HETATM   24  O   UNL     2     -11.470  16.789  71.802  1.00  0.00    -0.191 OA 
HETATM   25  O   UNL     2     -11.777  14.619  72.517  1.00  0.00    -0.149 OA 
ENDBRANCH  17  20
ENDBRANCH  14  17
ENDBRANCH  11  14
ENDBRANCH   8  11
ENDBRANCH   5   8
BRANCH   6  26
HETATM   26  C   UNL     3     -10.605   8.618  72.192  1.00  0.00    -0.341 C  
HETATM   27  H   UNL     3      -9.288   9.911  71.665  1.00  0.00     0.000 HD 
HETATM   28  O   UNL     3      -9.277   8.976  71.833  1.00  0.00    -0.353 OA 
BRANCH  26  29
HETATM   29  C   UNL     3     -11.657   9.011  71.122  1.00  0.00    -0.306 C  
HETATM   30  O   UNL     3     -12.974   9.238  71.794  1.00  0.00    -0.342 OA 
HETATM   31  H   UNL     3     -13.618   9.478  71.139  1.00  0.00     0.000 HD 
BRANCH  29  32
HETATM   32  C   UNL     3     -11.394  10.373  70.443  1.00  0.00    -0.337 C  
HETATM   33  H   UNL     3     -12.108  12.195  70.666  1.00  0.00     0.000 HD 
HETATM   34  O   UNL     3     -12.271  11.357  71.083  1.00  0.00    -0.319 OA 
BRANCH  32  35
HETATM   35  C   UNL     3     -11.186  10.583  68.936  1.00  0.00    -0.266 C  
HETATM   36  H   UNL     3     -12.058  11.647  67.576  1.00  0.00     0.000 HD 
HETATM   37  O   UNL     3     -12.186  11.517  68.509  1.00  0.00    -0.524 OA 
BRANCH  35  38
HETATM   38  C   UNL     3      -9.786  10.988  68.487  1.00  0.00    -0.192 C  
HETATM   39  C   UNL     3      -9.534  10.550  67.021  1.00  0.00    -0.163 C  
HETATM   40  O   UNL     3      -8.781  10.386  69.326  1.00  0.00    -0.159 OA 
HETATM   41  O   UNL     3     -10.520  10.020  66.419  1.00  0.00    -0.203 OA 
HETATM   42  O   UNL     3      -8.316  10.561  66.690  1.00  0.00    -0.125 OA 
HETATM   43  H   UNL     3      -7.909  10.639  69.046  1.00  0.00     0.000 HD 
ENDBRANCH  35  38
ENDBRANCH  32  35
ENDBRANCH  29  32
ENDBRANCH  26  29
ENDBRANCH   6  26
TORSDOF 10
ENDMDL
MODEL      301
REMARK 921   NORMALIZED FREE ENERGY PREDICTED BY IDOCK:   -4.76 KCAL/MOL
REMARK 922        TOTAL FREE ENERGY PREDICTED BY IDOCK:  -10.05 KCAL/MOL
REMARK 923 INTER-LIGAND FREE ENERGY PREDICTED BY IDOCK:   -9.05 KCAL/MOL
REMARK 924 INTRA-LIGAND FREE ENERGY PREDICTED BY IDOCK:   -1.00 KCAL/MOL
REMARK 927      BINDING AFFINITY PREDICTED BY RF-SCORE:    0.00 PKD
ROOT
HETATM    1 CA   UNL     1     -10.828   9.880  68.063  1.00  0.00    -0.176 Ca 
HETATM    2  O   UNL     2     -13.776   7.108  72.131  1.00  0.00    -0.537 OA 
HETATM    3  O   UNL     3      -8.230  15.522  67.079  1.00  0.00    -0.200 OA 
HETATM    4  H   UNL     2     -14.660   7.140  71.783  1.00  0.00     0.000 HD 
HETATM    5  C   UNL     2     -12.908   7.826  71.255  1.00  0.00    -0.233 C  
HETATM    6  C   UNL     3      -9.417  14.780  66.814  1.00  0.00    -0.254 C  
HETATM    7  H   UNL     3      -7.883  15.884  66.272  1.00  0.00     0.000 HD 
ENDROOT
BRANCH   5   8
HETATM    8  C   UNL     2     -11.473   7.774  71.820  1.00  0.00    -0.266 C  
HETATM    9  O   UNL     2     -11.559   7.725  73.240  1.00  0.00    -0.644 OA 
HETATM   10  H   UNL     2     -10.675   7.693  73.588  1.00  0.00     0.000 HD 
BRANCH   8  11
HETATM   11  C   UNL     2     -10.730   6.515  71.343  1.00  0.00    -0.238 C  
HETATM   12  H   UNL     2     -11.013   4.995  70.060  1.00  0.00     0.000 HD 
HETATM   13  O   UNL     2     -11.471   5.773  70.354  1.00  0.00    -0.166 OA 
BRANCH  11  14
HETATM   14  C   UNL     2      -9.256   6.625  70.884  1.00  0.00    -0.157 C  
HETATM   15  O   UNL     2      -8.386   6.363  71.973  1.00  0.00    -0.109 OA 
HETATM   16  H   UNL     2      -7.481   6.431  71.691  1.00  0.00     0.000 HD 
BRANCH  14  17
HETATM   17  C   UNL     2      -8.860   7.829  70.009  1.00  0.00    -0.142 C  
HETATM   18  H   UNL     2      -9.620   8.712  68.441  1.00  0.00     0.000 HD 
HETATM   19  O   UNL     2      -9.865   7.969  68.981  1.00  0.00    -0.171 OA 
BRANCH  17  20
HETATM   20  C   UNL     2      -8.620   9.145  70.750  1.00  0.00    -0.219 C  
HETATM   21  O   UNL     2      -8.340   8.921  72.149  1.00  0.00    -0.381 OA 
HETATM   22  C   UNL     2      -7.403   9.844  70.081  1.00  0.00    -0.160 C  
HETATM   23  H   UNL     2      -8.191   9.738  72.609  1.00  0.00     0.000 HD 
HETATM   24  O   UNL     2      -7.380   9.750  68.824  1.00  0.00    -0.071 OA 
HETATM   25  O   UNL     2      -6.614  10.374  70.908  1.00  0.00    -0.341 OA 
ENDBRANCH  17  20
ENDBRANCH  14  17
ENDBRANCH  11  14
ENDBRANCH   8  11
ENDBRANCH   5   8
BRANCH   6  26
HETATM   26  C   UNL     3      -9.979  14.195  68.117  1.00  0.00    -0.232 C  
HETATM   27  H   UNL     3      -9.711  14.554  69.983  1.00  0.00     0.000 HD 
HETATM   28  O   UNL     3      -9.363  14.916  69.177  1.00  0.00    -0.195 OA 
BRANCH  26  29
HETATM   29  C   UNL     3     -11.529  14.243  68.163  1.00  0.00    -0.308 C  
HETATM   30  O   UNL     3     -12.001  15.452  67.421  1.00  0.00    -0.191 OA 
HETATM   31  H   UNL     3     -12.950  15.481  67.450  1.00  0.00     0.000 HD 
BRANCH  29  32
HETATM   32  C   UNL     3     -12.222  13.094  67.400  1.00  0.00    -0.140 C  
HETATM   33  H   UNL     3     -12.353  11.144  67.647  1.00  0.00     0.000 HD 
HETATM   34  O   UNL     3     -11.926  11.851  68.117  1.00  0.00    -0.496 OA 
BRANCH  32  35
HETATM   35  C   UNL     3     -12.275  12.955  65.870  1.00  0.00    -0.407 C  
HETATM   36  H   UNL     3     -12.885  14.082  64.421  1.00  0.00     0.000 HD 
HETATM   37  O   UNL     3     -12.852  14.167  65.367  1.00  0.00    -0.637 OA 
BRANCH  35  38
HETATM   38  C   UNL     3     -10.968  12.602  65.169  1.00  0.00    -0.291 C  
HETATM   39  C   UNL     3     -11.226  12.238  63.683  1.00  0.00    -0.466 C  
HETATM   40  O   UNL     3     -10.324  11.483  65.811  1.00  0.00    -0.232 OA 
HETATM   41  O   UNL     3     -12.423  12.368  63.276  1.00  0.00    -0.604 OA 
HETATM   42  O   UNL     3     -10.262  11.636  63.133  1.00  0.00    -0.385 OA 
HETATM   43  H   UNL     3      -9.510  11.263  65.374  1.00  0.00     0.000 HD 
ENDBRANCH  35  38
ENDBRANCH  32  35
ENDBRANCH  29  32
ENDBRANCH  26  29
ENDBRANCH   6  26
TORSDOF 10
ENDMDL
MODEL      302
REMARK 921   NORMALIZED FREE ENERGY PREDICTED BY IDOCK:   -4.76 KCAL/MOL
REMARK 922        TOTAL FREE ENERGY PREDICTED BY IDOCK:  -10.04 KCAL/MOL
REMARK 923 INTER-LIGAND FREE ENERGY PREDICTED BY IDOCK:   -6.75 KCAL/MOL
REMARK 924 INTRA-LIGAND FREE ENERGY PREDICTED BY IDOCK:   -3.28 KCAL/MOL
REMARK 927      BINDING AFFINITY PREDICTED BY RF-SCORE:    0.00 PKD
ROOT
HETATM    1 CA   UNL     1      -9.677  10.128  71.183  1.00  0.00    -0.261 Ca 
HETATM    2  O   UNL     2     -13.009  14.678  70.124  1.00  0.00    -0.563 OA 
HETATM    3  O   UNL     3      -9.186   4.092  69.488  1.00  0.00    -0.119 OA 
HETATM    4  H   UNL     2     -13.547  14.708  70.907  1.00  0.00     0.000 HD 
HETATM    5  C   UNL     2     -12.151  13.540  70.197  1.00  0.00    -0.354 C  
HETATM    6  C   UNL     3      -9.724   4.921  70.514  1.00  0.00    -0.204 C  
HETATM    7  H   UNL     3      -8.645   3.410  69.867  1.00  0.00     0.000 HD 
ENDROOT
BRANCH   5   8
HETATM    8  C   UNL     2     -11.277  13.491  68.926  1.00  0.00    -0.275 C  
HETATM    9  O   UNL     2     -10.088  14.232  69.179  1.00  0.00    -0.382 OA 
HETATM   10  H   UNL     2      -9.550  14.202  68.396  1.00  0.00     0.000 HD 
BRANCH   8  11
HETATM   11  C   UNL     2     -10.875  12.049  68.580  1.00  0.00    -0.233 C  
HETATM   12  H   UNL     2     -11.744  10.357  67.931  1.00  0.00     0.000 HD 
HETATM   13  O   UNL     2     -11.992  11.249  68.145  1.00  0.00    -0.610 OA 
BRANCH  11  14
HETATM   14  C   UNL     2      -9.679  11.795  67.629  1.00  0.00    -0.182 C  
HETATM   15  O   UNL     2     -10.065  10.913  66.587  1.00  0.00    -0.204 OA 
HETATM   16  H   UNL     2      -9.331  10.758  66.004  1.00  0.00     0.000 HD 
BRANCH  14  17
HETATM   17  C   UNL     2      -8.305  11.499  68.258  1.00  0.00    -0.154 C  
HETATM   18  H   UNL     2      -7.632  10.222  69.575  1.00  0.00     0.000 HD 
HETATM   19  O   UNL     2      -8.480  10.405  69.186  1.00  0.00    -0.147 OA 
BRANCH  17  20
HETATM   20  C   UNL     2      -7.163  11.233  67.278  1.00  0.00    -0.114 C  
HETATM   21  O   UNL     2      -7.536  11.577  65.925  1.00  0.00    -0.351 OA 
HETATM   22  C   UNL     2      -5.954  12.104  67.722  1.00  0.00    -0.090 C  
HETATM   23  H   UNL     2      -6.826  11.412  65.316  1.00  0.00     0.000 HD 
HETATM   24  O   UNL     2      -5.787  12.159  68.969  1.00  0.00    -0.059 OA 
HETATM   25  O   UNL     2      -5.343  12.640  66.759  1.00  0.00    -0.298 OA 
ENDBRANCH  17  20
ENDBRANCH  14  17
ENDBRANCH  11  14
ENDBRANCH   8  11
ENDBRANCH   5   8
BRANCH   6  26
HETATM   26  C   UNL     3     -10.599   6.023  69.901  1.00  0.00    -0.279 C  
HETATM   27  H   UNL     3     -10.793   7.911  70.190  1.00  0.00     0.000 HD 
HETATM   28  O   UNL     3     -10.252   7.229  70.570  1.00  0.00    -0.195 OA 
BRANCH  26  29
HETATM   29  C   UNL     3     -10.442   6.110  68.360  1.00  0.00    -0.231 C  
HETATM   30  O   UNL     3     -11.770   6.430  67.752  1.00  0.00    -0.510 OA 
HETATM   31  H   UNL     3     -11.673   6.483  66.809  1.00  0.00     0.000 HD 
BRANCH  29  32
HETATM   32  C   UNL     3      -9.565   7.286  67.876  1.00  0.00    -0.139 C  
HETATM   33  H   UNL     3      -9.879   8.890  66.777  1.00  0.00     0.000 HD 
HETATM   34  O   UNL     3     -10.418   8.166  67.074  1.00  0.00    -0.312 OA 
BRANCH  32  35
HETATM   35  C   UNL     3      -8.119   7.161  67.374  1.00  0.00    -0.112 C  
HETATM   36  H   UNL     3      -7.098   7.975  65.947  1.00  0.00     0.000 HD 
HETATM   37  O   UNL     3      -7.993   8.052  66.258  1.00  0.00    -0.099 OA 
BRANCH  35  38
HETATM   38  C   UNL     3      -7.014   7.366  68.405  1.00  0.00    -0.079 C  
HETATM   39  C   UNL     3      -6.372   6.009  68.795  1.00  0.00    -0.041 C  
HETATM   40  O   UNL     3      -7.532   7.989  69.597  1.00  0.00    -0.086 OA 
HETATM   41  O   UNL     3      -6.789   4.991  68.158  1.00  0.00    -0.053 OA 
HETATM   42  O   UNL     3      -5.689   6.057  69.855  1.00  0.00    -0.015 OA 
HETATM   43  H   UNL     3      -6.844   8.116  70.240  1.00  0.00     0.000 HD 
ENDBRANCH  35  38
ENDBRANCH  32  35
ENDBRANCH  29  32
ENDBRANCH  26  29
ENDBRANCH   6  26
TORSDOF 10
ENDMDL
MODEL      303
REMARK 921   NORMALIZED FREE ENERGY PREDICTED BY IDOCK:   -4.75 KCAL/MOL
REMARK 922        TOTAL FREE ENERGY PREDICTED BY IDOCK:  -10.03 KCAL/MOL
REMARK 923 INTER-LIGAND FREE ENERGY PREDICTED BY IDOCK:   -8.95 KCAL/MOL
REMARK 924 INTRA-LIGAND FREE ENERGY PREDICTED BY IDOCK:   -1.08 KCAL/MOL
REMARK 927      BINDING AFFINITY PREDICTED BY RF-SCORE:    0.00 PKD
ROOT
HETATM    1 CA   UNL     1     -10.623  10.374  63.884  1.00  0.00    -0.335 Ca 
HETATM    2  O   UNL     2     -12.321  15.854  63.796  1.00  0.00    -1.121 OA 
HETATM    3  O   UNL     3      -7.059   6.553  67.384  1.00  0.00    -0.075 OA 
HETATM    4  H   UNL     2     -11.763  16.217  63.118  1.00  0.00     0.000 HD 
HETATM    5  C   UNL     2     -11.974  14.485  63.995  1.00  0.00    -0.209 C  
HETATM    6  C   UNL     3      -7.006   7.368  66.217  1.00  0.00    -0.069 C  
HETATM    7  H   UNL     3      -6.756   5.675  67.186  1.00  0.00     0.000 HD 
ENDROOT
BRANCH   5   8
HETATM    8  C   UNL     2     -12.881  13.896  65.097  1.00  0.00    -0.342 C  
HETATM    9  O   UNL     2     -13.267  12.585  64.698  1.00  0.00    -0.848 OA 
HETATM   10  H   UNL     2     -13.825  12.222  65.376  1.00  0.00     0.000 HD 
BRANCH   8  11
HETATM   11  C   UNL     2     -12.132  13.784  66.435  1.00  0.00    -0.444 C  
HETATM   12  H   UNL     2     -11.516  12.351  67.702  1.00  0.00     0.000 HD 
HETATM   13  O   UNL     2     -11.978  12.420  66.875  1.00  0.00    -0.550 OA 
BRANCH  11  14
HETATM   14  C   UNL     2     -10.785  14.524  66.622  1.00  0.00    -0.305 C  
HETATM   15  O   UNL     2      -9.710  13.682  66.236  1.00  0.00    -0.289 OA 
HETATM   16  H   UNL     2      -8.884  14.136  66.350  1.00  0.00     0.000 HD 
BRANCH  14  17
HETATM   17  C   UNL     2     -10.563  15.304  67.932  1.00  0.00    -0.260 C  
HETATM   18  H   UNL     2     -11.722  16.216  69.213  1.00  0.00     0.000 HD 
HETATM   19  O   UNL     2     -11.859  15.735  68.404  1.00  0.00    -0.338 OA 
BRANCH  17  20
HETATM   20  C   UNL     2      -9.778  14.573  69.021  1.00  0.00    -0.121 C  
HETATM   21  O   UNL     2      -9.851  13.140  68.855  1.00  0.00    -0.415 OA 
HETATM   22  C   UNL     2      -8.296  15.034  68.917  1.00  0.00    -0.183 C  
HETATM   23  H   UNL     2      -9.363  12.686  69.532  1.00  0.00     0.000 HD 
HETATM   24  O   UNL     2      -8.153  16.262  68.675  1.00  0.00    -0.188 OA 
HETATM   25  O   UNL     2      -7.469  14.095  69.067  1.00  0.00    -0.124 OA 
ENDBRANCH  17  20
ENDBRANCH  14  17
ENDBRANCH  11  14
ENDBRANCH   8  11
ENDBRANCH   5   8
BRANCH   6  26
HETATM   26  C   UNL     3      -7.495   8.787  66.538  1.00  0.00    -0.085 C  
HETATM   27  H   UNL     3      -7.116  10.535  65.843  1.00  0.00     0.000 HD 
HETATM   28  O   UNL     3      -6.813   9.657  65.644  1.00  0.00    -0.084 OA 
BRANCH  26  29
HETATM   29  C   UNL     3      -9.039   8.910  66.455  1.00  0.00    -0.174 C  
HETATM   30  O   UNL     3      -9.581   7.732  65.710  1.00  0.00    -0.417 OA 
HETATM   31  H   UNL     3     -10.527   7.807  65.659  1.00  0.00     0.000 HD 
BRANCH  29  32
HETATM   32  C   UNL     3      -9.759   8.800  67.816  1.00  0.00    -0.158 C  
HETATM   33  H   UNL     3      -9.349   9.384  69.652  1.00  0.00     0.000 HD 
HETATM   34  O   UNL     3      -8.906   9.451  68.815  1.00  0.00    -0.129 OA 
BRANCH  32  35
HETATM   35  C   UNL     3     -10.507   7.557  68.322  1.00  0.00    -0.180 C  
HETATM   36  H   UNL     3     -10.174   5.653  68.271  1.00  0.00     0.000 HD 
HETATM   37  O   UNL     3      -9.712   6.422  67.958  1.00  0.00    -0.121 OA 
BRANCH  35  38
HETATM   38  C   UNL     3     -10.894   7.544  69.797  1.00  0.00    -0.225 C  
HETATM   39  C   UNL     3      -9.793   6.854  70.645  1.00  0.00    -0.182 C  
HETATM   40  O   UNL     3     -12.136   6.841  69.998  1.00  0.00    -0.650 OA 
HETATM   41  O   UNL     3      -8.746   6.499  70.017  1.00  0.00    -0.138 OA 
HETATM   42  O   UNL     3     -10.176   6.522  71.801  1.00  0.00    -0.188 OA 
HETATM   43  H   UNL     3     -12.377   6.832  70.917  1.00  0.00     0.000 HD 
ENDBRANCH  35  38
ENDBRANCH  32  35
ENDBRANCH  29  32
ENDBRANCH  26  29
ENDBRANCH   6  26
TORSDOF 10
ENDMDL
MODEL      304
REMARK 921   NORMALIZED FREE ENERGY PREDICTED BY IDOCK:   -4.75 KCAL/MOL
REMARK 922        TOTAL FREE ENERGY PREDICTED BY IDOCK:  -10.02 KCAL/MOL
REMARK 923 INTER-LIGAND FREE ENERGY PREDICTED BY IDOCK:   -8.22 KCAL/MOL
REMARK 924 INTRA-LIGAND FREE ENERGY PREDICTED BY IDOCK:   -1.80 KCAL/MOL
REMARK 927      BINDING AFFINITY PREDICTED BY RF-SCORE:    0.00 PKD
ROOT
HETATM    1 CA   UNL     1      -8.475   9.954  68.767  1.00  0.00    -0.099 Ca 
HETATM    2  O   UNL     2     -12.517  13.982  68.166  1.00  0.00    -0.497 OA 
HETATM    3  O   UNL     3      -7.836   3.727  68.160  1.00  0.00    -0.071 OA 
HETATM    4  H   UNL     2     -12.752  14.154  69.070  1.00  0.00     0.000 HD 
HETATM    5  C   UNL     2     -11.549  12.934  68.132  1.00  0.00    -0.336 C  
HETATM    6  C   UNL     3      -8.088   4.731  69.139  1.00  0.00    -0.074 C  
HETATM    7  H   UNL     3      -7.115   3.173  68.437  1.00  0.00     0.000 HD 
ENDROOT
BRANCH   5   8
HETATM    8  C   UNL     2     -11.167  12.654  66.663  1.00  0.00    -0.300 C  
HETATM    9  O   UNL     2     -12.354  12.307  65.956  1.00  0.00    -0.609 OA 
HETATM   10  H   UNL     2     -12.119  12.134  65.052  1.00  0.00     0.000 HD 
BRANCH   8  11
HETATM   11  C   UNL     2     -10.563  13.900  65.996  1.00  0.00    -0.293 C  
HETATM   12  H   UNL     2     -11.139  15.746  65.450  1.00  0.00     0.000 HD 
HETATM   13  O   UNL     2     -11.513  14.976  65.862  1.00  0.00    -0.321 OA 
BRANCH  11  14
HETATM   14  C   UNL     2      -9.226  14.477  66.523  1.00  0.00    -0.255 C  
HETATM   15  O   UNL     2      -8.317  13.423  66.800  1.00  0.00    -0.410 OA 
HETATM   16  H   UNL     2      -7.497  13.778  67.123  1.00  0.00     0.000 HD 
BRANCH  14  17
HETATM   17  C   UNL     2      -9.288  15.582  67.594  1.00  0.00    -0.203 C  
HETATM   18  H   UNL     2      -8.333  15.954  69.257  1.00  0.00     0.000 HD 
HETATM   19  O   UNL     2      -8.294  15.272  68.596  1.00  0.00    -0.144 OA 
BRANCH  17  20
HETATM   20  C   UNL     2      -9.152  17.016  67.085  1.00  0.00    -0.223 C  
HETATM   21  O   UNL     2      -9.150  17.067  65.642  1.00  0.00    -0.500 OA 
HETATM   22  C   UNL     2     -10.364  17.823  67.632  1.00  0.00    -0.373 C  
HETATM   23  H   UNL     2      -9.065  17.959  65.325  1.00  0.00     0.000 HD 
HETATM   24  O   UNL     2     -10.676  17.545  68.820  1.00  0.00    -0.285 OA 
HETATM   25  O   UNL     2     -10.860  18.615  66.786  1.00  0.00    -0.330 OA 
ENDBRANCH  17  20
ENDBRANCH  14  17
ENDBRANCH  11  14
ENDBRANCH   8  11
ENDBRANCH   5   8
BRANCH   6  26
HETATM   26  C   UNL     3      -9.253   5.625  68.692  1.00  0.00    -0.122 C  
HETATM   27  H   UNL     3     -10.178   5.909  67.035  1.00  0.00     0.000 HD 
HETATM   28  O   UNL     3      -9.458   5.356  67.311  1.00  0.00    -0.117 OA 
BRANCH  26  29
HETATM   29  C   UNL     3     -10.525   5.409  69.554  1.00  0.00    -0.273 C  
HETATM   30  O   UNL     3     -10.274   4.296  70.521  1.00  0.00    -0.135 OA 
HETATM   31  H   UNL     3     -11.053   4.164  71.048  1.00  0.00     0.000 HD 
BRANCH  29  32
HETATM   32  C   UNL     3     -10.867   6.589  70.489  1.00  0.00    -0.271 C  
HETATM   33  H   UNL     3     -12.534   7.470  71.057  1.00  0.00     0.000 HD 
HETATM   34  O   UNL     3     -12.324   6.744  70.482  1.00  0.00    -0.326 OA 
BRANCH  32  35
HETATM   35  C   UNL     3     -10.081   7.907  70.571  1.00  0.00    -0.192 C  
HETATM   36  H   UNL     3     -10.151   9.594  69.628  1.00  0.00     0.000 HD 
HETATM   37  O   UNL     3     -10.636   8.779  69.577  1.00  0.00    -0.225 OA 
BRANCH  35  38
HETATM   38  C   UNL     3      -9.997   8.571  71.941  1.00  0.00    -0.294 C  
HETATM   39  C   UNL     3      -8.637   8.256  72.618  1.00  0.00    -0.198 C  
HETATM   40  O   UNL     3     -11.057   8.110  72.802  1.00  0.00    -0.382 OA 
HETATM   41  O   UNL     3      -7.806   7.595  71.920  1.00  0.00    -0.082 OA 
HETATM   42  O   UNL     3      -8.620   8.494  73.857  1.00  0.00    -0.279 OA 
HETATM   43  H   UNL     3     -11.004   8.523  73.656  1.00  0.00     0.000 HD 
ENDBRANCH  35  38
ENDBRANCH  32  35
ENDBRANCH  29  32
ENDBRANCH  26  29
ENDBRANCH   6  26
TORSDOF 10
ENDMDL
MODEL      305
REMARK 921   NORMALIZED FREE ENERGY PREDICTED BY IDOCK:   -4.74 KCAL/MOL
REMARK 922        TOTAL FREE ENERGY PREDICTED BY IDOCK:  -10.02 KCAL/MOL
REMARK 923 INTER-LIGAND FREE ENERGY PREDICTED BY IDOCK:   -7.44 KCAL/MOL
REMARK 924 INTRA-LIGAND FREE ENERGY PREDICTED BY IDOCK:   -2.58 KCAL/MOL
REMARK 927      BINDING AFFINITY PREDICTED BY RF-SCORE:    0.00 PKD
ROOT
HETATM    1 CA   UNL     1      -8.607  11.375  69.915  1.00  0.00    -0.355 Ca 
HETATM    2  O   UNL     2     -12.428  12.527  65.793  1.00  0.00    -0.626 OA 
HETATM    3  O   UNL     3      -7.426   6.924  74.199  1.00  0.00    -0.095 OA 
HETATM    4  H   UNL     2     -12.970  13.185  66.213  1.00  0.00     0.000 HD 
HETATM    5  C   UNL     2     -11.447  12.075  66.725  1.00  0.00    -0.345 C  
HETATM    6  C   UNL     3      -8.060   8.192  74.054  1.00  0.00    -0.253 C  
HETATM    7  H   UNL     3      -6.812   6.944  74.924  1.00  0.00     0.000 HD 
ENDROOT
BRANCH   5   8
HETATM    8  C   UNL     2     -10.566  11.006  66.044  1.00  0.00    -0.213 C  
HETATM    9  O   UNL     2      -9.401  11.650  65.539  1.00  0.00    -0.288 OA 
HETATM   10  H   UNL     2      -8.859  10.992  65.120  1.00  0.00     0.000 HD 
BRANCH   8  11
HETATM   11  C   UNL     2     -10.120   9.929  67.045  1.00  0.00    -0.218 C  
HETATM   12  H   UNL     2     -10.485   7.992  67.436  1.00  0.00     0.000 HD 
HETATM   13  O   UNL     2     -10.760   8.658  66.817  1.00  0.00    -0.221 OA 
BRANCH  11  14
HETATM   14  C   UNL     2      -8.610   9.690  67.289  1.00  0.00    -0.132 C  
HETATM   15  O   UNL     2      -7.994  10.887  67.737  1.00  0.00    -0.108 OA 
HETATM   16  H   UNL     2      -7.067  10.740  67.887  1.00  0.00     0.000 HD 
BRANCH  14  17
HETATM   17  C   UNL     2      -7.819   8.912  66.220  1.00  0.00    -0.102 C  
HETATM   18  H   UNL     2      -6.500   9.381  64.858  1.00  0.00     0.000 HD 
HETATM   19  O   UNL     2      -6.988   9.862  65.517  1.00  0.00    -0.097 OA 
BRANCH  17  20
HETATM   20  C   UNL     2      -7.012   7.716  66.724  1.00  0.00    -0.079 C  
HETATM   21  O   UNL     2      -6.697   7.843  68.128  1.00  0.00    -0.060 OA 
HETATM   22  C   UNL     2      -7.872   6.441  66.496  1.00  0.00    -0.104 C  
HETATM   23  H   UNL     2      -6.195   7.099  68.441  1.00  0.00     0.000 HD 
HETATM   24  O   UNL     2      -8.504   6.432  65.406  1.00  0.00    -0.151 OA 
HETATM   25  O   UNL     2      -7.822   5.626  67.456  1.00  0.00    -0.099 OA 
ENDBRANCH  17  20
ENDBRANCH  14  17
ENDBRANCH  11  14
ENDBRANCH   8  11
ENDBRANCH   5   8
BRANCH   6  26
HETATM   26  C   UNL     3      -9.051   8.158  72.883  1.00  0.00    -0.267 C  
HETATM   27  H   UNL     3      -8.903   8.385  70.983  1.00  0.00     0.000 HD 
HETATM   28  O   UNL     3      -8.289   8.406  71.708  1.00  0.00    -0.134 OA 
BRANCH  26  29
HETATM   29  C   UNL     3      -9.851   6.830  72.826  1.00  0.00    -0.166 C  
HETATM   30  O   UNL     3     -10.006   6.297  74.215  1.00  0.00    -0.242 OA 
HETATM   31  H   UNL     3     -10.496   5.484  74.180  1.00  0.00     0.000 HD 
BRANCH  29  32
HETATM   32  C   UNL     3     -11.316   6.991  72.368  1.00  0.00    -0.269 C  
HETATM   33  H   UNL     3     -12.883   5.800  72.288  1.00  0.00     0.000 HD 
HETATM   34  O   UNL     3     -11.981   5.701  72.570  1.00  0.00    -0.258 OA 
BRANCH  32  35
HETATM   35  C   UNL     3     -11.771   7.759  71.117  1.00  0.00    -0.284 C  
HETATM   36  H   UNL     3     -12.400   7.250  69.360  1.00  0.00     0.000 HD 
HETATM   37  O   UNL     3     -12.119   6.775  70.134  1.00  0.00    -0.289 OA 
BRANCH  35  38
HETATM   38  C   UNL     3     -12.872   8.796  71.312  1.00  0.00    -0.215 C  
HETATM   39  C   UNL     3     -12.317  10.229  71.100  1.00  0.00    -0.395 C  
HETATM   40  O   UNL     3     -13.431   8.711  72.638  1.00  0.00    -0.621 OA 
HETATM   41  O   UNL     3     -11.104  10.308  70.728  1.00  0.00    -0.326 OA 
HETATM   42  O   UNL     3     -13.070  11.136  71.550  1.00  0.00    -0.425 OA 
HETATM   43  H   UNL     3     -14.117   9.357  72.760  1.00  0.00     0.000 HD 
ENDBRANCH  35  38
ENDBRANCH  32  35
ENDBRANCH  29  32
ENDBRANCH  26  29
ENDBRANCH   6  26
TORSDOF 10
ENDMDL
MODEL      306
REMARK 921   NORMALIZED FREE ENERGY PREDICTED BY IDOCK:   -4.74 KCAL/MOL
REMARK 922        TOTAL FREE ENERGY PREDICTED BY IDOCK:  -10.00 KCAL/MOL
REMARK 923 INTER-LIGAND FREE ENERGY PREDICTED BY IDOCK:   -8.35 KCAL/MOL
REMARK 924 INTRA-LIGAND FREE ENERGY PREDICTED BY IDOCK:   -1.65 KCAL/MOL
REMARK 927      BINDING AFFINITY PREDICTED BY RF-SCORE:    0.00 PKD
ROOT
HETATM    1 CA   UNL     1      -9.077  14.530  70.279  1.00  0.00    -0.373 Ca 
HETATM    2  O   UNL     2      -8.322   9.024  68.853  1.00  0.00    -0.121 OA 
HETATM    3  O   UNL     3      -8.084  20.251  67.861  1.00  0.00    -0.262 OA 
HETATM    4  H   UNL     2      -7.553   8.797  69.365  1.00  0.00     0.000 HD 
HETATM    5  C   UNL     2      -8.611  10.408  69.045  1.00  0.00    -0.157 C  
HETATM    6  C   UNL     3      -7.494  19.292  68.735  1.00  0.00    -0.352 C  
HETATM    7  H   UNL     3      -8.140  21.096  68.291  1.00  0.00     0.000 HD 
ENDROOT
BRANCH   5   8
HETATM    8  C   UNL     2      -9.859  10.776  68.214  1.00  0.00    -0.166 C  
HETATM    9  O   UNL     2     -10.265   9.620  67.490  1.00  0.00    -0.191 OA 
HETATM   10  H   UNL     2     -11.033   9.847  66.979  1.00  0.00     0.000 HD 
BRANCH   8  11
HETATM   11  C   UNL     2     -11.025  11.207  69.119  1.00  0.00    -0.242 C  
HETATM   12  H   UNL     2     -12.487  12.585  69.139  1.00  0.00     0.000 HD 
HETATM   13  O   UNL     2     -11.766  12.319  68.580  1.00  0.00    -0.297 OA 
BRANCH  11  14
HETATM   14  C   UNL     2     -12.026  10.143  69.634  1.00  0.00     0.017 C  
HETATM   15  O   UNL     2     -13.354  10.624  69.507  1.00  0.00    -0.295 OA 
HETATM   16  H   UNL     2     -13.968   9.971  69.823  1.00  0.00     0.000 HD 
BRANCH  14  17
HETATM   17  C   UNL     2     -11.712   9.442  70.969  1.00  0.00    -0.323 C  
HETATM   18  H   UNL     2     -12.669   9.171  72.650  1.00  0.00     0.000 HD 
HETATM   19  O   UNL     2     -12.864   9.603  71.826  1.00  0.00    -0.358 OA 
BRANCH  17  20
HETATM   20  C   UNL     2     -11.278   7.980  70.872  1.00  0.00    -0.266 C  
HETATM   21  O   UNL     2     -11.154   7.555  69.496  1.00  0.00    -0.416 OA 
HETATM   22  C   UNL     2      -9.901   7.852  71.581  1.00  0.00    -0.167 C  
HETATM   23  H   UNL     2     -10.885   6.646  69.436  1.00  0.00     0.000 HD 
HETATM   24  O   UNL     2      -9.801   8.527  72.640  1.00  0.00    -0.281 OA 
HETATM   25  O   UNL     2      -9.089   7.108  70.968  1.00  0.00    -0.150 OA 
ENDBRANCH  17  20
ENDBRANCH  14  17
ENDBRANCH  11  14
ENDBRANCH   8  11
ENDBRANCH   5   8
BRANCH   6  26
HETATM   26  C   UNL     3      -7.403  17.926  68.040  1.00  0.00    -0.230 C  
HETATM   27  H   UNL     3      -7.066  16.131  68.629  1.00  0.00     0.000 HD 
HETATM   28  O   UNL     3      -7.121  16.976  69.059  1.00  0.00    -0.220 OA 
BRANCH  26  29
HETATM   29  C   UNL     3      -8.683  17.593  67.229  1.00  0.00    -0.235 C  
HETATM   30  O   UNL     3      -8.446  17.924  65.790  1.00  0.00    -0.513 OA 
HETATM   31  H   UNL     3      -9.230  17.720  65.293  1.00  0.00     0.000 HD 
BRANCH  29  32
HETATM   32  C   UNL     3      -9.024  16.089  67.171  1.00  0.00    -0.202 C  
HETATM   33  H   UNL     3      -8.408  14.568  66.081  1.00  0.00     0.000 HD 
HETATM   34  O   UNL     3      -8.198  15.494  66.117  1.00  0.00    -0.044 OA 
BRANCH  32  35
HETATM   35  C   UNL     3     -10.438  15.498  67.289  1.00  0.00    -0.279 C  
HETATM   36  H   UNL     3     -12.176  16.209  67.751  1.00  0.00     0.000 HD 
HETATM   37  O   UNL     3     -11.302  16.574  67.678  1.00  0.00    -0.119 OA 
BRANCH  35  38
HETATM   38  C   UNL     3     -10.968  14.741  66.076  1.00  0.00    -0.328 C  
HETATM   39  C   UNL     3     -11.262  15.717  64.908  1.00  0.00    -0.350 C  
HETATM   40  O   UNL     3     -12.181  14.033  66.401  1.00  0.00    -0.442 OA 
HETATM   41  O   UNL     3     -10.948  16.933  65.104  1.00  0.00    -0.508 OA 
HETATM   42  O   UNL     3     -11.990  15.222  64.003  1.00  0.00    -0.484 OA 
HETATM   43  H   UNL     3     -12.512  13.561  65.645  1.00  0.00     0.000 HD 
ENDBRANCH  35  38
ENDBRANCH  32  35
ENDBRANCH  29  32
ENDBRANCH  26  29
ENDBRANCH   6  26
TORSDOF 10
ENDMDL
MODEL      307
REMARK 921   NORMALIZED FREE ENERGY PREDICTED BY IDOCK:   -4.73 KCAL/MOL
REMARK 922        TOTAL FREE ENERGY PREDICTED BY IDOCK:   -9.99 KCAL/MOL
REMARK 923 INTER-LIGAND FREE ENERGY PREDICTED BY IDOCK:   -8.45 KCAL/MOL
REMARK 924 INTRA-LIGAND FREE ENERGY PREDICTED BY IDOCK:   -1.55 KCAL/MOL
REMARK 927      BINDING AFFINITY PREDICTED BY RF-SCORE:    0.00 PKD
ROOT
HETATM    1 CA   UNL     1     -10.406   7.260  66.379  1.00  0.00    -0.209 Ca 
HETATM    2  O   UNL     2      -6.390   9.848  63.202  1.00  0.00    -0.110 OA 
HETATM    3  O   UNL     3     -12.062   6.697  72.420  1.00  0.00    -0.479 OA 
HETATM    4  H   UNL     2      -5.808   9.123  63.001  1.00  0.00     0.000 HD 
HETATM    5  C   UNL     2      -7.430   9.380  64.060  1.00  0.00    -0.113 C  
HETATM    6  C   UNL     3     -11.324   6.030  71.400  1.00  0.00    -0.236 C  
HETATM    7  H   UNL     3     -12.692   6.103  72.811  1.00  0.00     0.000 HD 
ENDROOT
BRANCH   5   8
HETATM    8  C   UNL     2      -8.374  10.556  64.387  1.00  0.00    -0.097 C  
HETATM    9  O   UNL     2      -8.611  11.280  63.184  1.00  0.00    -0.436 OA 
HETATM   10  H   UNL     2      -9.192  12.004  63.385  1.00  0.00     0.000 HD 
BRANCH   8  11
HETATM   11  C   UNL     2      -9.728  10.055  64.916  1.00  0.00    -0.307 C  
HETATM   12  H   UNL     2     -10.444   9.030  66.489  1.00  0.00     0.000 HD 
HETATM   13  O   UNL     2      -9.608   9.340  66.162  1.00  0.00    -0.217 OA 
BRANCH  11  14
HETATM   14  C   UNL     2     -10.921  11.038  65.017  1.00  0.00    -0.047 C  
HETATM   15  O   UNL     2     -11.574  11.140  63.762  1.00  0.00    -0.408 OA 
HETATM   16  H   UNL     2     -12.306  11.743  63.824  1.00  0.00     0.000 HD 
BRANCH  14  17
HETATM   17  C   UNL     2     -10.694  12.376  65.744  1.00  0.00    -0.267 C  
HETATM   18  H   UNL     2      -9.307  13.100  66.913  1.00  0.00     0.000 HD 
HETATM   19  O   UNL     2      -9.446  12.274  66.464  1.00  0.00    -0.226 OA 
BRANCH  17  20
HETATM   20  C   UNL     2     -10.743  13.630  64.870  1.00  0.00    -0.391 C  
HETATM   21  O   UNL     2     -10.119  13.405  63.587  1.00  0.00    -0.526 OA 
HETATM   22  C   UNL     2     -12.240  13.997  64.664  1.00  0.00    -0.435 C  
HETATM   23  H   UNL     2     -10.149  14.184  63.044  1.00  0.00     0.000 HD 
HETATM   24  O   UNL     2     -12.955  13.849  65.690  1.00  0.00    -0.599 OA 
HETATM   25  O   UNL     2     -12.507  14.364  63.488  1.00  0.00    -0.770 OA 
ENDBRANCH  17  20
ENDBRANCH  14  17
ENDBRANCH  11  14
ENDBRANCH   8  11
ENDBRANCH   5   8
BRANCH   6  26
HETATM   26  C   UNL     3     -10.307   6.990  70.768  1.00  0.00    -0.206 C  
HETATM   27  H   UNL     3      -9.968   7.617  68.987  1.00  0.00     0.000 HD 
HETATM   28  O   UNL     3     -10.598   7.023  69.377  1.00  0.00    -0.216 OA 
BRANCH  26  29
HETATM   29  C   UNL     3     -10.329   8.392  71.433  1.00  0.00    -0.222 C  
HETATM   30  O   UNL     3      -9.433   8.377  72.630  1.00  0.00    -0.269 OA 
HETATM   31  H   UNL     3      -9.447   9.235  73.037  1.00  0.00     0.000 HD 
BRANCH  29  32
HETATM   32  C   UNL     3      -9.711   9.513  70.570  1.00  0.00    -0.263 C  
HETATM   33  H   UNL     3     -10.193  10.378  68.867  1.00  0.00     0.000 HD 
HETATM   34  O   UNL     3     -10.573   9.687  69.398  1.00  0.00    -0.209 OA 
BRANCH  32  35
HETATM   35  C   UNL     3      -8.210   9.690  70.295  1.00  0.00    -0.191 C  
HETATM   36  H   UNL     3      -6.760   8.496  69.833  1.00  0.00     0.000 HD 
HETATM   37  O   UNL     3      -7.688   8.387  70.003  1.00  0.00    -0.085 OA 
BRANCH  35  38
HETATM   38  C   UNL     3      -7.823  10.718  69.238  1.00  0.00    -0.122 C  
HETATM   39  C   UNL     3      -6.494  11.422  69.619  1.00  0.00    -0.133 C  
HETATM   40  O   UNL     3      -8.849  11.721  69.095  1.00  0.00    -0.360 OA 
HETATM   41  O   UNL     3      -5.914  10.989  70.665  1.00  0.00    -0.225 OA 
HETATM   42  O   UNL     3      -6.280  12.486  68.976  1.00  0.00    -0.074 OA 
HETATM   43  H   UNL     3      -8.608  12.362  68.436  1.00  0.00     0.000 HD 
ENDBRANCH  35  38
ENDBRANCH  32  35
ENDBRANCH  29  32
ENDBRANCH  26  29
ENDBRANCH   6  26
TORSDOF 10
ENDMDL
MODEL      308
REMARK 921   NORMALIZED FREE ENERGY PREDICTED BY IDOCK:   -4.72 KCAL/MOL
REMARK 922        TOTAL FREE ENERGY PREDICTED BY IDOCK:   -9.98 KCAL/MOL
REMARK 923 INTER-LIGAND FREE ENERGY PREDICTED BY IDOCK:   -8.03 KCAL/MOL
REMARK 924 INTRA-LIGAND FREE ENERGY PREDICTED BY IDOCK:   -1.95 KCAL/MOL
REMARK 927      BINDING AFFINITY PREDICTED BY RF-SCORE:    0.00 PKD
ROOT
HETATM    1 CA   UNL     1      -8.391  10.709  68.161  1.00  0.00    -0.104 Ca 
HETATM    2  O   UNL     2     -11.814  15.287  68.662  1.00  0.00    -0.429 OA 
HETATM    3  O   UNL     3      -8.382   4.592  69.623  1.00  0.00    -0.070 OA 
HETATM    4  H   UNL     2     -11.409  15.750  69.386  1.00  0.00     0.000 HD 
HETATM    5  C   UNL     2     -11.110  14.065  68.445  1.00  0.00    -0.253 C  
HETATM    6  C   UNL     3      -7.932   5.855  70.106  1.00  0.00    -0.101 C  
HETATM    7  H   UNL     3      -7.661   3.975  69.594  1.00  0.00     0.000 HD 
ENDROOT
BRANCH   5   8
HETATM    8  C   UNL     2     -11.766  13.313  67.269  1.00  0.00    -0.377 C  
HETATM    9  O   UNL     2     -12.625  14.221  66.587  1.00  0.00    -0.555 OA 
HETATM   10  H   UNL     2     -13.029  13.757  65.863  1.00  0.00     0.000 HD 
BRANCH   8  11
HETATM   11  C   UNL     2     -10.712  12.812  66.268  1.00  0.00    -0.270 C  
HETATM   12  H   UNL     2      -8.711  12.765  66.085  1.00  0.00     0.000 HD 
HETATM   13  O   UNL     2      -9.363  13.074  66.704  1.00  0.00    -0.245 OA 
BRANCH  11  14
HETATM   14  C   UNL     2     -10.791  11.360  65.736  1.00  0.00    -0.230 C  
HETATM   15  O   UNL     2     -10.396  10.449  66.749  1.00  0.00    -0.223 OA 
HETATM   16  H   UNL     2     -10.445   9.558  66.422  1.00  0.00     0.000 HD 
BRANCH  14  17
HETATM   17  C   UNL     2     -10.214  11.070  64.338  1.00  0.00    -0.346 C  
HETATM   18  H   UNL     2     -10.258  11.975  62.607  1.00  0.00     0.000 HD 
HETATM   19  O   UNL     2     -10.614  12.154  63.470  1.00  0.00    -0.414 OA 
BRANCH  17  20
HETATM   20  C   UNL     2      -8.708  10.819  64.274  1.00  0.00    -0.075 C  
HETATM   21  O   UNL     2      -8.096  10.939  65.577  1.00  0.00    -0.295 OA 
HETATM   22  C   UNL     2      -8.496   9.378  63.730  1.00  0.00    -0.195 C  
HETATM   23  H   UNL     2      -7.160  10.783  65.538  1.00  0.00     0.000 HD 
HETATM   24  O   UNL     2      -9.284   9.056  62.802  1.00  0.00     0.020 OA 
HETATM   25  O   UNL     2      -7.580   8.749  64.324  1.00  0.00    -0.107 OA 
ENDBRANCH  17  20
ENDBRANCH  14  17
ENDBRANCH  11  14
ENDBRANCH   8  11
ENDBRANCH   5   8
BRANCH   6  26
HETATM   26  C   UNL     3      -9.098   6.852  70.152  1.00  0.00    -0.152 C  
HETATM   27  H   UNL     3     -10.933   6.758  70.707  1.00  0.00     0.000 HD 
HETATM   28  O   UNL     3     -10.212   6.141  70.678  1.00  0.00    -0.187 OA 
BRANCH  26  29
HETATM   29  C   UNL     3      -8.749   8.129  70.961  1.00  0.00    -0.139 C  
HETATM   30  O   UNL     3      -8.184   9.154  70.030  1.00  0.00    -0.113 OA 
HETATM   31  H   UNL     3      -7.970   9.936  70.525  1.00  0.00     0.000 HD 
BRANCH  29  32
HETATM   32  C   UNL     3      -9.973   8.859  71.554  1.00  0.00    -0.320 C  
HETATM   33  H   UNL     3     -10.906   8.817  73.288  1.00  0.00     0.000 HD 
HETATM   34  O   UNL     3     -10.153   8.368  72.923  1.00  0.00    -0.262 OA 
BRANCH  32  35
HETATM   35  C   UNL     3     -11.279   9.151  70.799  1.00  0.00    -0.277 C  
HETATM   36  H   UNL     3     -11.823   9.085  68.944  1.00  0.00     0.000 HD 
HETATM   37  O   UNL     3     -11.016   8.905  69.411  1.00  0.00    -0.173 OA 
BRANCH  35  38
HETATM   38  C   UNL     3     -12.529   8.427  71.288  1.00  0.00    -0.244 C  
HETATM   39  C   UNL     3     -13.485   9.413  72.009  1.00  0.00    -0.449 C  
HETATM   40  O   UNL     3     -12.187   7.367  72.202  1.00  0.00    -0.366 OA 
HETATM   41  O   UNL     3     -13.133  10.635  72.006  1.00  0.00    -0.481 OA 
HETATM   42  O   UNL     3     -14.368   8.844  72.708  1.00  0.00    -0.600 OA 
HETATM   43  H   UNL     3     -12.966   6.916  72.507  1.00  0.00     0.000 HD 
ENDBRANCH  35  38
ENDBRANCH  32  35
ENDBRANCH  29  32
ENDBRANCH  26  29
ENDBRANCH   6  26
TORSDOF 10
ENDMDL
MODEL      309
REMARK 921   NORMALIZED FREE ENERGY PREDICTED BY IDOCK:   -4.71 KCAL/MOL
REMARK 922        TOTAL FREE ENERGY PREDICTED BY IDOCK:   -9.96 KCAL/MOL
REMARK 923 INTER-LIGAND FREE ENERGY PREDICTED BY IDOCK:   -7.82 KCAL/MOL
REMARK 924 INTRA-LIGAND FREE ENERGY PREDICTED BY IDOCK:   -2.14 KCAL/MOL
REMARK 927      BINDING AFFINITY PREDICTED BY RF-SCORE:    0.00 PKD
ROOT
HETATM    1 CA   UNL     1     -12.239   9.363  71.010  1.00  0.00    -0.263 Ca 
HETATM    2  O   UNL     2      -9.001   4.627  70.949  1.00  0.00    -0.114 OA 
HETATM    3  O   UNL     3     -12.640  14.891  68.037  1.00  0.00    -0.333 OA 
HETATM    4  H   UNL     2      -8.455   4.758  71.715  1.00  0.00     0.000 HD 
HETATM    5  C   UNL     2      -9.837   5.770  70.777  1.00  0.00    -0.183 C  
HETATM    6  C   UNL     3     -12.106  14.296  69.216  1.00  0.00    -0.313 C  
HETATM    7  H   UNL     3     -13.165  15.650  68.262  1.00  0.00     0.000 HD 
ENDROOT
BRANCH   5   8
HETATM    8  C   UNL     2     -10.725   5.557  69.532  1.00  0.00    -0.262 C  
HETATM    9  O   UNL     2     -11.502   6.733  69.337  1.00  0.00    -0.551 OA 
HETATM   10  H   UNL     2     -12.048   6.602  68.571  1.00  0.00     0.000 HD 
BRANCH   8  11
HETATM   11  C   UNL     2      -9.874   5.333  68.272  1.00  0.00    -0.155 C  
HETATM   12  H   UNL     2      -9.606   3.921  66.867  1.00  0.00     0.000 HD 
HETATM   13  O   UNL     2     -10.132   4.060  67.646  1.00  0.00    -0.020 OA 
BRANCH  11  14
HETATM   14  C   UNL     2      -9.827   6.427  67.177  1.00  0.00    -0.146 C  
HETATM   15  O   UNL     2     -10.162   5.868  65.917  1.00  0.00    -0.399 OA 
HETATM   16  H   UNL     2     -10.133   6.539  65.245  1.00  0.00     0.000 HD 
BRANCH  14  17
HETATM   17  C   UNL     2      -8.621   7.385  67.164  1.00  0.00    -0.118 C  
HETATM   18  H   UNL     2      -6.743   7.241  66.645  1.00  0.00     0.000 HD 
HETATM   19  O   UNL     2      -7.487   6.650  66.652  1.00  0.00    -0.076 OA 
BRANCH  17  20
HETATM   20  C   UNL     2      -8.822   8.705  66.422  1.00  0.00    -0.140 C  
HETATM   21  O   UNL     2      -9.138   8.486  65.029  1.00  0.00    -0.420 OA 
HETATM   22  C   UNL     2      -9.999   9.454  67.110  1.00  0.00    -0.204 C  
HETATM   23  H   UNL     2      -9.263   9.307  64.568  1.00  0.00     0.000 HD 
HETATM   24  O   UNL     2     -10.001   9.367  68.367  1.00  0.00    -0.160 OA 
HETATM   25  O   UNL     2     -10.782  10.012  66.295  1.00  0.00    -0.090 OA 
ENDBRANCH  17  20
ENDBRANCH  14  17
ENDBRANCH  11  14
ENDBRANCH   8  11
ENDBRANCH   5   8
BRANCH   6  26
HETATM   26  C   UNL     3     -11.258  13.069  68.853  1.00  0.00    -0.278 C  
HETATM   27  H   UNL     3     -11.325  11.744  67.466  1.00  0.00     0.000 HD 
HETATM   28  O   UNL     3     -11.850  12.503  67.691  1.00  0.00    -0.362 OA 
BRANCH  26  29
HETATM   29  C   UNL     3      -9.759  13.424  68.666  1.00  0.00    -0.080 C  
HETATM   30  O   UNL     3      -8.935  12.202  68.920  1.00  0.00    -0.380 OA 
HETATM   31  H   UNL     3      -8.017  12.420  68.806  1.00  0.00     0.000 HD 
BRANCH  29  32
HETATM   32  C   UNL     3      -9.369  13.792  67.218  1.00  0.00    -0.239 C  
HETATM   33  H   UNL     3      -8.102  13.066  65.896  1.00  0.00     0.000 HD 
HETATM   34  O   UNL     3      -8.342  12.840  66.787  1.00  0.00    -0.113 OA 
BRANCH  32  35
HETATM   35  C   UNL     3      -9.181  15.222  66.690  1.00  0.00    -0.274 C  
HETATM   36  H   UNL     3      -7.651  16.336  66.290  1.00  0.00     0.000 HD 
HETATM   37  O   UNL     3      -7.768  15.451  66.617  1.00  0.00    -0.116 OA 
BRANCH  35  38
HETATM   38  C   UNL     3      -9.892  15.571  65.387  1.00  0.00    -0.256 C  
HETATM   39  C   UNL     3     -10.433  17.024  65.431  1.00  0.00    -0.112 C  
HETATM   40  O   UNL     3     -10.997  14.677  65.148  1.00  0.00    -0.339 OA 
HETATM   41  O   UNL     3     -10.137  17.698  66.468  1.00  0.00    -0.319 OA 
HETATM   42  O   UNL     3     -11.292  17.273  64.541  1.00  0.00    -1.007 OA 
HETATM   43  H   UNL     3     -11.440  14.894  64.336  1.00  0.00     0.000 HD 
ENDBRANCH  35  38
ENDBRANCH  32  35
ENDBRANCH  29  32
ENDBRANCH  26  29
ENDBRANCH   6  26
TORSDOF 10
ENDMDL
MODEL      310
REMARK 921   NORMALIZED FREE ENERGY PREDICTED BY IDOCK:   -4.70 KCAL/MOL
REMARK 922        TOTAL FREE ENERGY PREDICTED BY IDOCK:   -9.95 KCAL/MOL
REMARK 923 INTER-LIGAND FREE ENERGY PREDICTED BY IDOCK:   -7.55 KCAL/MOL
REMARK 924 INTRA-LIGAND FREE ENERGY PREDICTED BY IDOCK:   -2.40 KCAL/MOL
REMARK 927      BINDING AFFINITY PREDICTED BY RF-SCORE:    0.00 PKD
ROOT
HETATM    1 CA   UNL     1      -6.440  10.471  68.265  1.00  0.00    -0.052 Ca 
HETATM    2  O   UNL     2      -5.901  16.064  69.428  1.00  0.00    -0.118 OA 
HETATM    3  O   UNL     3     -10.955   6.115  67.833  1.00  0.00    -0.312 OA 
HETATM    4  H   UNL     2      -5.574  16.044  70.320  1.00  0.00     0.000 HD 
HETATM    5  C   UNL     2      -6.157  14.727  69.000  1.00  0.00    -0.093 C  
HETATM    6  C   UNL     3      -9.990   6.633  68.744  1.00  0.00    -0.144 C  
HETATM    7  H   UNL     3     -10.867   5.172  67.763  1.00  0.00     0.000 HD 
ENDROOT
BRANCH   5   8
HETATM    8  C   UNL     2      -6.688  14.760  67.551  1.00  0.00    -0.130 C  
HETATM    9  O   UNL     2      -6.830  13.417  67.102  1.00  0.00    -0.409 OA 
HETATM   10  H   UNL     2      -7.157  13.437  66.210  1.00  0.00     0.000 HD 
BRANCH   8  11
HETATM   11  C   UNL     2      -8.067  15.436  67.476  1.00  0.00    -0.167 C  
HETATM   12  H   UNL     2      -9.008  16.820  66.364  1.00  0.00     0.000 HD 
HETATM   13  O   UNL     2      -8.156  16.402  66.411  1.00  0.00    -0.288 OA 
BRANCH  11  14
HETATM   14  C   UNL     2      -9.346  14.564  67.468  1.00  0.00    -0.193 C  
HETATM   15  O   UNL     2      -9.496  13.933  66.206  1.00  0.00    -0.371 OA 
HETATM   16  H   UNL     2     -10.282  13.398  66.201  1.00  0.00     0.000 HD 
BRANCH  14  17
HETATM   17  C   UNL     2     -10.637  15.169  68.051  1.00  0.00    -0.258 C  
HETATM   18  H   UNL     2     -11.856  16.602  67.525  1.00  0.00     0.000 HD 
HETATM   19  O   UNL     2     -11.059  16.229  67.165  1.00  0.00    -0.179 OA 
BRANCH  17  20
HETATM   20  C   UNL     2     -11.770  14.183  68.336  1.00  0.00    -0.345 C  
HETATM   21  O   UNL     2     -11.566  12.930  67.646  1.00  0.00    -0.312 OA 
HETATM   22  C   UNL     2     -11.799  13.933  69.870  1.00  0.00    -0.328 C  
HETATM   23  H   UNL     2     -12.270  12.317  67.822  1.00  0.00     0.000 HD 
HETATM   24  O   UNL     2     -11.598  14.964  70.565  1.00  0.00    -0.262 OA 
HETATM   25  O   UNL     2     -11.995  12.727  70.177  1.00  0.00    -0.342 OA 
ENDBRANCH  17  20
ENDBRANCH  14  17
ENDBRANCH  11  14
ENDBRANCH   8  11
ENDBRANCH   5   8
BRANCH   6  26
HETATM   26  C   UNL     3     -10.133   8.157  68.858  1.00  0.00    -0.202 C  
HETATM   27  H   UNL     3      -8.906   9.615  69.084  1.00  0.00     0.000 HD 
HETATM   28  O   UNL     3      -8.817   8.672  69.014  1.00  0.00    -0.136 OA 
BRANCH  26  29
HETATM   29  C   UNL     3     -10.892   8.768  67.650  1.00  0.00    -0.022 C  
HETATM   30  O   UNL     3     -11.403  10.121  68.032  1.00  0.00    -0.498 OA 
HETATM   31  H   UNL     3     -11.868  10.495  67.292  1.00  0.00     0.000 HD 
BRANCH  29  32
HETATM   32  C   UNL     3      -9.996   9.084  66.433  1.00  0.00    -0.300 C  
HETATM   33  H   UNL     3      -8.445   8.211  65.588  1.00  0.00     0.000 HD 
HETATM   34  O   UNL     3      -8.996   8.017  66.338  1.00  0.00    -0.151 OA 
BRANCH  32  35
HETATM   35  C   UNL     3      -9.483  10.481  66.052  1.00  0.00    -0.183 C  
HETATM   36  H   UNL     3      -7.854  11.470  66.383  1.00  0.00     0.000 HD 
HETATM   37  O   UNL     3      -8.172  10.606  66.618  1.00  0.00    -0.125 OA 
BRANCH  35  38
HETATM   38  C   UNL     3      -9.510  10.842  64.571  1.00  0.00    -0.252 C  
HETATM   39  C   UNL     3     -10.714  11.767  64.256  1.00  0.00    -0.342 C  
HETATM   40  O   UNL     3      -9.615   9.658  63.755  1.00  0.00    -0.455 OA 
HETATM   41  O   UNL     3     -11.411  12.136  65.253  1.00  0.00    -0.337 OA 
HETATM   42  O   UNL     3     -10.986  11.846  63.026  1.00  0.00    -0.240 OA 
HETATM   43  H   UNL     3      -9.632   9.883  62.832  1.00  0.00     0.000 HD 
ENDBRANCH  35  38
ENDBRANCH  32  35
ENDBRANCH  29  32
ENDBRANCH  26  29
ENDBRANCH   6  26
TORSDOF 10
ENDMDL
MODEL      311
REMARK 921   NORMALIZED FREE ENERGY PREDICTED BY IDOCK:   -4.70 KCAL/MOL
REMARK 922        TOTAL FREE ENERGY PREDICTED BY IDOCK:   -9.95 KCAL/MOL
REMARK 923 INTER-LIGAND FREE ENERGY PREDICTED BY IDOCK:   -7.35 KCAL/MOL
REMARK 924 INTRA-LIGAND FREE ENERGY PREDICTED BY IDOCK:   -2.59 KCAL/MOL
REMARK 927      BINDING AFFINITY PREDICTED BY RF-SCORE:    0.00 PKD
ROOT
HETATM    1 CA   UNL     1      -8.299  11.229  68.705  1.00  0.00    -0.108 Ca 
HETATM    2  O   UNL     2     -12.937  14.473  69.646  1.00  0.00    -0.494 OA 
HETATM    3  O   UNL     3      -6.874   5.311  67.125  1.00  0.00    -0.057 OA 
HETATM    4  H   UNL     2     -12.952  14.515  70.595  1.00  0.00     0.000 HD 
HETATM    5  C   UNL     2     -11.860  13.631  69.238  1.00  0.00    -0.346 C  
HETATM    6  C   UNL     3      -7.016   6.157  68.262  1.00  0.00    -0.080 C  
HETATM    7  H   UNL     3      -6.028   4.878  67.142  1.00  0.00     0.000 HD 
ENDROOT
BRANCH   5   8
HETATM    8  C   UNL     2     -11.836  13.562  67.697  1.00  0.00    -0.363 C  
HETATM    9  O   UNL     2     -11.797  14.894  67.195  1.00  0.00    -0.338 OA 
HETATM   10  H   UNL     2     -11.782  14.852  66.246  1.00  0.00     0.000 HD 
BRANCH   8  11
HETATM   11  C   UNL     2     -10.585  12.825  67.190  1.00  0.00    -0.237 C  
HETATM   12  H   UNL     2      -8.707  12.453  67.799  1.00  0.00     0.000 HD 
HETATM   13  O   UNL     2      -9.480  12.908  68.112  1.00  0.00    -0.210 OA 
BRANCH  11  14
HETATM   14  C   UNL     2     -10.708  11.366  66.688  1.00  0.00    -0.269 C  
HETATM   15  O   UNL     2     -10.137  10.476  67.633  1.00  0.00    -0.168 OA 
HETATM   16  H   UNL     2     -10.212   9.581  67.325  1.00  0.00     0.000 HD 
BRANCH  14  17
HETATM   17  C   UNL     2     -10.348  11.075  65.219  1.00  0.00    -0.275 C  
HETATM   18  H   UNL     2      -9.609  12.118  63.741  1.00  0.00     0.000 HD 
HETATM   19  O   UNL     2      -9.831  12.297  64.648  1.00  0.00    -0.205 OA 
BRANCH  17  20
HETATM   20  C   UNL     2      -9.404   9.896  64.982  1.00  0.00    -0.264 C  
HETATM   21  O   UNL     2      -9.521   9.387  63.635  1.00  0.00    -0.432 OA 
HETATM   22  C   UNL     2      -7.954  10.402  65.222  1.00  0.00    -0.143 C  
HETATM   23  H   UNL     2      -8.935   8.654  63.488  1.00  0.00     0.000 HD 
HETATM   24  O   UNL     2      -7.837  11.188  66.200  1.00  0.00    -0.149 OA 
HETATM   25  O   UNL     2      -7.125   9.963  64.381  1.00  0.00    -0.125 OA 
ENDBRANCH  17  20
ENDBRANCH  14  17
ENDBRANCH  11  14
ENDBRANCH   8  11
ENDBRANCH   5   8
BRANCH   6  26
HETATM   26  C   UNL     3      -8.383   6.856  68.234  1.00  0.00    -0.123 C  
HETATM   27  H   UNL     3     -10.185   6.286  67.902  1.00  0.00     0.000 HD 
HETATM   28  O   UNL     3      -9.339   5.853  67.919  1.00  0.00    -0.109 OA 
BRANCH  26  29
HETATM   29  C   UNL     3      -8.690   7.602  69.560  1.00  0.00    -0.136 C  
HETATM   30  O   UNL     3      -8.373   9.053  69.387  1.00  0.00    -0.113 OA 
HETATM   31  H   UNL     3      -8.561   9.509  70.199  1.00  0.00     0.000 HD 
BRANCH  29  32
HETATM   32  C   UNL     3     -10.186   7.632  69.939  1.00  0.00    -0.215 C  
HETATM   33  H   UNL     3     -11.829   8.263  69.054  1.00  0.00     0.000 HD 
HETATM   34  O   UNL     3     -10.908   8.245  68.821  1.00  0.00    -0.098 OA 
BRANCH  32  35
HETATM   35  C   UNL     3     -10.738   7.983  71.329  1.00  0.00    -0.229 C  
HETATM   36  H   UNL     3     -10.159   7.659  73.146  1.00  0.00     0.000 HD 
HETATM   37  O   UNL     3      -9.818   7.441  72.286  1.00  0.00    -0.162 OA 
BRANCH  35  38
HETATM   38  C   UNL     3     -11.048   9.453  71.593  1.00  0.00    -0.339 C  
HETATM   39  C   UNL     3     -12.580   9.685  71.661  1.00  0.00    -0.402 C  
HETATM   40  O   UNL     3     -10.502  10.288  70.552  1.00  0.00    -0.416 OA 
HETATM   41  O   UNL     3     -13.306   8.645  71.577  1.00  0.00    -0.336 OA 
HETATM   42  O   UNL     3     -12.915  10.897  71.556  1.00  0.00    -0.412 OA 
HETATM   43  H   UNL     3     -10.695  11.204  70.716  1.00  0.00     0.000 HD 
ENDBRANCH  35  38
ENDBRANCH  32  35
ENDBRANCH  29  32
ENDBRANCH  26  29
ENDBRANCH   6  26
TORSDOF 10
ENDMDL
MODEL      312
REMARK 921   NORMALIZED FREE ENERGY PREDICTED BY IDOCK:   -4.69 KCAL/MOL
REMARK 922        TOTAL FREE ENERGY PREDICTED BY IDOCK:   -9.93 KCAL/MOL
REMARK 923 INTER-LIGAND FREE ENERGY PREDICTED BY IDOCK:   -8.39 KCAL/MOL
REMARK 924 INTRA-LIGAND FREE ENERGY PREDICTED BY IDOCK:   -1.54 KCAL/MOL
REMARK 927      BINDING AFFINITY PREDICTED BY RF-SCORE:    0.00 PKD
ROOT
HETATM    1 CA   UNL     1      -6.224  12.519  67.650  1.00  0.00    -0.059 Ca 
HETATM    2  O   UNL     2     -10.270  16.467  68.633  1.00  0.00    -0.235 OA 
HETATM    3  O   UNL     3      -5.770   6.553  65.711  1.00  0.00    -0.023 OA 
HETATM    4  H   UNL     2     -10.327  16.452  69.581  1.00  0.00     0.000 HD 
HETATM    5  C   UNL     2      -9.336  15.475  68.210  1.00  0.00    -0.192 C  
HETATM    6  C   UNL     3      -5.822   7.338  66.899  1.00  0.00    -0.030 C  
HETATM    7  H   UNL     3      -5.015   5.977  65.731  1.00  0.00     0.000 HD 
ENDROOT
BRANCH   5   8
HETATM    8  C   UNL     2      -9.243  15.500  66.670  1.00  0.00    -0.271 C  
HETATM    9  O   UNL     2      -9.105  14.159  66.213  1.00  0.00    -0.467 OA 
HETATM   10  H   UNL     2      -9.048  14.175  65.265  1.00  0.00     0.000 HD 
BRANCH   8  11
HETATM   11  C   UNL     2     -10.518  16.088  66.043  1.00  0.00    -0.345 C  
HETATM   12  H   UNL     2     -11.337  17.892  65.706  1.00  0.00     0.000 HD 
HETATM   13  O   UNL     2     -10.549  17.529  66.093  1.00  0.00    -0.313 OA 
BRANCH  11  14
HETATM   14  C   UNL     2     -10.959  15.628  64.632  1.00  0.00    -0.325 C  
HETATM   15  O   UNL     2     -11.356  16.748  63.857  1.00  0.00    -1.436 OA 
HETATM   16  H   UNL     2     -11.626  16.466  62.991  1.00  0.00     0.000 HD 
BRANCH  14  17
HETATM   17  C   UNL     2     -11.887  14.403  64.528  1.00  0.00    -0.449 C  
HETATM   18  H   UNL     2     -13.754  14.118  64.031  1.00  0.00     0.000 HD 
HETATM   19  O   UNL     2     -13.182  14.874  64.095  1.00  0.00    -0.013 OA 
BRANCH  17  20
HETATM   20  C   UNL     2     -11.382  13.252  63.658  1.00  0.00    -0.166 C  
HETATM   21  O   UNL     2      -9.942  13.144  63.707  1.00  0.00    -0.741 OA 
HETATM   22  C   UNL     2     -12.021  11.942  64.198  1.00  0.00    -0.307 C  
HETATM   23  H   UNL     2      -9.629  12.429  63.166  1.00  0.00     0.000 HD 
HETATM   24  O   UNL     2     -13.226  12.060  64.547  1.00  0.00    -0.606 OA 
HETATM   25  O   UNL     2     -11.220  10.969  64.226  1.00  0.00    -0.155 OA 
ENDBRANCH  17  20
ENDBRANCH  14  17
ENDBRANCH  11  14
ENDBRANCH   8  11
ENDBRANCH   5   8
BRANCH   6  26
HETATM   26  C   UNL     3      -7.043   8.269  66.866  1.00  0.00    -0.078 C  
HETATM   27  H   UNL     3      -7.602   9.723  65.745  1.00  0.00     0.000 HD 
HETATM   28  O   UNL     3      -6.847   9.147  65.766  1.00  0.00    -0.075 OA 
BRANCH  26  29
HETATM   29  C   UNL     3      -8.379   7.484  66.794  1.00  0.00    -0.126 C  
HETATM   30  O   UNL     3      -8.128   6.060  67.175  1.00  0.00    -0.105 OA 
HETATM   31  H   UNL     3      -8.947   5.580  67.131  1.00  0.00     0.000 HD 
BRANCH  29  32
HETATM   32  C   UNL     3      -9.431   7.925  67.834  1.00  0.00    -0.145 C  
HETATM   33  H   UNL     3     -11.336   7.523  68.137  1.00  0.00     0.000 HD 
HETATM   34  O   UNL     3     -10.688   7.252  67.497  1.00  0.00    -0.254 OA 
BRANCH  32  35
HETATM   35  C   UNL     3      -9.593   9.354  68.376  1.00  0.00    -0.146 C  
HETATM   36  H   UNL     3     -10.671  10.882  67.883  1.00  0.00     0.000 HD 
HETATM   37  O   UNL     3     -10.571   9.999  67.548  1.00  0.00    -0.242 OA 
BRANCH  35  38
HETATM   38  C   UNL     3      -9.910   9.492  69.861  1.00  0.00    -0.226 C  
HETATM   39  C   UNL     3      -8.631   9.291  70.714  1.00  0.00    -0.203 C  
HETATM   40  O   UNL     3     -10.893   8.520  70.270  1.00  0.00    -0.235 OA 
HETATM   41  O   UNL     3      -7.547   9.135  70.067  1.00  0.00    -0.062 OA 
HETATM   42  O   UNL     3      -8.864   9.075  71.935  1.00  0.00    -0.360 OA 
HETATM   43  H   UNL     3     -11.090   8.606  71.196  1.00  0.00     0.000 HD 
ENDBRANCH  35  38
ENDBRANCH  32  35
ENDBRANCH  29  32
ENDBRANCH  26  29
ENDBRANCH   6  26
TORSDOF 10
ENDMDL
MODEL      313
REMARK 921   NORMALIZED FREE ENERGY PREDICTED BY IDOCK:   -4.69 KCAL/MOL
REMARK 922        TOTAL FREE ENERGY PREDICTED BY IDOCK:   -9.93 KCAL/MOL
REMARK 923 INTER-LIGAND FREE ENERGY PREDICTED BY IDOCK:   -7.71 KCAL/MOL
REMARK 924 INTRA-LIGAND FREE ENERGY PREDICTED BY IDOCK:   -2.22 KCAL/MOL
REMARK 927      BINDING AFFINITY PREDICTED BY RF-SCORE:    0.00 PKD
ROOT
HETATM    1 CA   UNL     1      -7.635   8.740  70.982  1.00  0.00    -0.053 Ca 
HETATM    2  O   UNL     2      -8.384  13.346  67.644  1.00  0.00    -0.153 OA 
HETATM    3  O   UNL     3     -11.060   4.191  73.651  1.00  0.00    -0.251 OA 
HETATM    4  H   UNL     2      -8.315  14.054  68.274  1.00  0.00     0.000 HD 
HETATM    5  C   UNL     2      -8.285  12.101  68.333  1.00  0.00    -0.145 C  
HETATM    6  C   UNL     3     -10.481   5.462  73.934  1.00  0.00    -0.280 C  
HETATM    7  H   UNL     3     -10.798   3.557  74.309  1.00  0.00     0.000 HD 
ENDROOT
BRANCH   5   8
HETATM    8  C   UNL     2      -8.398  10.952  67.309  1.00  0.00    -0.123 C  
HETATM    9  O   UNL     2      -8.011   9.744  67.955  1.00  0.00    -0.096 OA 
HETATM   10  H   UNL     2      -8.080   9.037  67.324  1.00  0.00     0.000 HD 
BRANCH   8  11
HETATM   11  C   UNL     2      -9.843  10.786  66.814  1.00  0.00    -0.193 C  
HETATM   12  H   UNL     2     -11.270   9.371  66.778  1.00  0.00     0.000 HD 
HETATM   13  O   UNL     2     -10.376   9.474  67.084  1.00  0.00    -0.229 OA 
BRANCH  11  14
HETATM   14  C   UNL     2     -10.908  11.845  67.191  1.00  0.00    -0.255 C  
HETATM   15  O   UNL     2     -11.917  11.256  67.995  1.00  0.00    -0.621 OA 
HETATM   16  H   UNL     2     -12.570  11.906  68.227  1.00  0.00     0.000 HD 
BRANCH  14  17
HETATM   17  C   UNL     2     -11.423  12.779  66.080  1.00  0.00    -0.350 C  
HETATM   18  H   UNL     2     -12.826  12.677  64.725  1.00  0.00     0.000 HD 
HETATM   19  O   UNL     2     -12.509  12.100  65.410  1.00  0.00    -0.523 OA 
BRANCH  17  20
HETATM   20  C   UNL     2     -11.822  14.188  66.520  1.00  0.00    -0.419 C  
HETATM   21  O   UNL     2     -11.692  14.351  67.950  1.00  0.00    -0.325 OA 
HETATM   22  C   UNL     2     -10.880  15.189  65.795  1.00  0.00    -0.353 C  
HETATM   23  H   UNL     2     -11.940  15.226  68.224  1.00  0.00     0.000 HD 
HETATM   24  O   UNL     2     -10.633  14.890  64.596  1.00  0.00    -0.360 OA 
HETATM   25  O   UNL     2     -10.490  16.133  66.532  1.00  0.00    -0.299 OA 
ENDBRANCH  17  20
ENDBRANCH  14  17
ENDBRANCH  11  14
ENDBRANCH   8  11
ENDBRANCH   5   8
BRANCH   6  26
HETATM   26  C   UNL     3     -10.905   6.485  72.871  1.00  0.00    -0.258 C  
HETATM   27  H   UNL     3     -11.389   8.342  72.902  1.00  0.00     0.000 HD 
HETATM   28  O   UNL     3     -11.127   7.709  73.559  1.00  0.00    -0.315 OA 
BRANCH  26  29
HETATM   29  C   UNL     3      -9.866   6.606  71.724  1.00  0.00    -0.161 C  
HETATM   30  O   UNL     3      -8.886   5.482  71.835  1.00  0.00    -0.134 OA 
HETATM   31  H   UNL     3      -8.250   5.557  71.133  1.00  0.00     0.000 HD 
BRANCH  29  32
HETATM   32  C   UNL     3     -10.453   6.396  70.312  1.00  0.00    -0.219 C  
HETATM   33  H   UNL     3     -12.267   6.139  69.588  1.00  0.00     0.000 HD 
HETATM   34  O   UNL     3     -11.906   6.268  70.457  1.00  0.00    -0.319 OA 
BRANCH  32  35
HETATM   35  C   UNL     3      -9.836   5.506  69.222  1.00  0.00    -0.172 C  
HETATM   36  H   UNL     3      -9.651   3.598  68.966  1.00  0.00     0.000 HD 
HETATM   37  O   UNL     3     -10.033   4.149  69.639  1.00  0.00    -0.195 OA 
BRANCH  35  38
HETATM   38  C   UNL     3     -10.308   5.746  67.792  1.00  0.00    -0.213 C  
HETATM   39  C   UNL     3      -9.107   6.077  66.868  1.00  0.00    -0.125 C  
HETATM   40  O   UNL     3     -11.246   6.839  67.736  1.00  0.00    -0.536 OA 
HETATM   41  O   UNL     3      -7.956   6.015  67.405  1.00  0.00    -0.101 OA 
HETATM   42  O   UNL     3      -9.441   6.593  65.766  1.00  0.00     0.063 OA 
HETATM   43  H   UNL     3     -11.540   6.989  66.845  1.00  0.00     0.000 HD 
ENDBRANCH  35  38
ENDBRANCH  32  35
ENDBRANCH  29  32
ENDBRANCH  26  29
ENDBRANCH   6  26
TORSDOF 10
ENDMDL
MODEL      314
REMARK 921   NORMALIZED FREE ENERGY PREDICTED BY IDOCK:   -4.66 KCAL/MOL
REMARK 922        TOTAL FREE ENERGY PREDICTED BY IDOCK:   -9.88 KCAL/MOL
REMARK 923 INTER-LIGAND FREE ENERGY PREDICTED BY IDOCK:   -7.48 KCAL/MOL
REMARK 924 INTRA-LIGAND FREE ENERGY PREDICTED BY IDOCK:   -2.40 KCAL/MOL
REMARK 927      BINDING AFFINITY PREDICTED BY RF-SCORE:    0.00 PKD
ROOT
HETATM    1 CA   UNL     1     -12.757  11.619  68.909  1.00  0.00    -0.264 Ca 
HETATM    2  O   UNL     2     -12.412   7.191  72.542  1.00  0.00    -0.493 OA 
HETATM    3  O   UNL     3      -9.762  17.012  67.684  1.00  0.00    -0.249 OA 
HETATM    4  H   UNL     2     -13.112   7.390  73.154  1.00  0.00     0.000 HD 
HETATM    5  C   UNL     2     -12.316   8.250  71.591  1.00  0.00    -0.315 C  
HETATM    6  C   UNL     3     -10.884  16.497  68.395  1.00  0.00    -0.348 C  
HETATM    7  H   UNL     3     -10.031  17.727  67.119  1.00  0.00     0.000 HD 
ENDROOT
BRANCH   5   8
HETATM    8  C   UNL     2     -11.180   7.927  70.597  1.00  0.00    -0.263 C  
HETATM    9  O   UNL     2     -11.459   6.664  70.003  1.00  0.00    -0.375 OA 
HETATM   10  H   UNL     2     -10.759   6.465  69.391  1.00  0.00     0.000 HD 
BRANCH   8  11
HETATM   11  C   UNL     2     -11.105   8.975  69.475  1.00  0.00    -0.024 C  
HETATM   12  H   UNL     2     -10.646  10.919  69.258  1.00  0.00     0.000 HD 
HETATM   13  O   UNL     2     -10.692  10.272  69.952  1.00  0.00    -0.262 OA 
BRANCH  11  14
HETATM   14  C   UNL     2     -10.327   8.650  68.176  1.00  0.00    -0.216 C  
HETATM   15  O   UNL     2     -11.091   7.779  67.358  1.00  0.00    -0.525 OA 
HETATM   16  H   UNL     2     -10.613   7.580  66.560  1.00  0.00     0.000 HD 
BRANCH  14  17
HETATM   17  C   UNL     2      -8.835   8.288  68.299  1.00  0.00    -0.140 C  
HETATM   18  H   UNL     2      -7.524   8.289  69.747  1.00  0.00     0.000 HD 
HETATM   19  O   UNL     2      -8.445   8.513  69.672  1.00  0.00    -0.125 OA 
BRANCH  17  20
HETATM   20  C   UNL     2      -8.444   6.889  67.821  1.00  0.00    -0.123 C  
HETATM   21  O   UNL     2      -9.384   5.892  68.278  1.00  0.00    -0.116 OA 
HETATM   22  C   UNL     2      -8.428   6.914  66.267  1.00  0.00    -0.131 C  
HETATM   23  H   UNL     2      -9.141   5.023  67.981  1.00  0.00     0.000 HD 
HETATM   24  O   UNL     2      -7.945   7.967  65.772  1.00  0.00    -0.099 OA 
HETATM   25  O   UNL     2      -8.926   5.881  65.744  1.00  0.00    -0.157 OA 
ENDBRANCH  17  20
ENDBRANCH  14  17
ENDBRANCH  11  14
ENDBRANCH   8  11
ENDBRANCH   5   8
BRANCH   6  26
HETATM   26  C   UNL     3     -10.448  15.342  69.308  1.00  0.00    -0.258 C  
HETATM   27  H   UNL     3     -10.419  15.058  71.206  1.00  0.00     0.000 HD 
HETATM   28  O   UNL     3     -10.689  15.773  70.641  1.00  0.00    -0.303 OA 
BRANCH  26  29
HETATM   29  C   UNL     3     -11.164  14.011  68.955  1.00  0.00    -0.276 C  
HETATM   30  O   UNL     3     -12.637  14.258  68.876  1.00  0.00    -0.526 OA 
HETATM   31  H   UNL     3     -13.075  13.443  68.660  1.00  0.00     0.000 HD 
BRANCH  29  32
HETATM   32  C   UNL     3     -10.842  13.472  67.545  1.00  0.00    -0.264 C  
HETATM   33  H   UNL     3     -11.920  12.857  66.015  1.00  0.00     0.000 HD 
HETATM   34  O   UNL     3     -12.118  13.188  66.883  1.00  0.00    -0.379 OA 
BRANCH  32  35
HETATM   35  C   UNL     3      -9.714  12.482  67.214  1.00  0.00    -0.202 C  
HETATM   36  H   UNL     3      -9.592  10.854  66.178  1.00  0.00     0.000 HD 
HETATM   37  O   UNL     3     -10.289  11.466  66.383  1.00  0.00    -0.226 OA 
BRANCH  35  38
HETATM   38  C   UNL     3      -8.442  13.070  66.614  1.00  0.00     0.106 C  
HETATM   39  C   UNL     3      -7.190  12.553  67.371  1.00  0.00    -0.146 C  
HETATM   40  O   UNL     3      -8.457  14.509  66.681  1.00  0.00    -0.415 OA 
HETATM   41  O   UNL     3      -7.404  11.690  68.279  1.00  0.00    -0.081 OA 
HETATM   42  O   UNL     3      -6.147  13.227  67.147  1.00  0.00    -0.288 OA 
HETATM   43  H   UNL     3      -7.664  14.875  66.306  1.00  0.00     0.000 HD 
ENDBRANCH  35  38
ENDBRANCH  32  35
ENDBRANCH  29  32
ENDBRANCH  26  29
ENDBRANCH   6  26
TORSDOF 10
ENDMDL
MODEL      315
REMARK 921   NORMALIZED FREE ENERGY PREDICTED BY IDOCK:   -4.66 KCAL/MOL
REMARK 922        TOTAL FREE ENERGY PREDICTED BY IDOCK:   -9.88 KCAL/MOL
REMARK 923 INTER-LIGAND FREE ENERGY PREDICTED BY IDOCK:   -8.61 KCAL/MOL
REMARK 924 INTRA-LIGAND FREE ENERGY PREDICTED BY IDOCK:   -1.27 KCAL/MOL
REMARK 927      BINDING AFFINITY PREDICTED BY RF-SCORE:    0.00 PKD
ROOT
HETATM    1 CA   UNL     1      -8.432  11.821  65.121  1.00  0.00    -0.366 Ca 
HETATM    2  O   UNL     2      -8.115  17.325  66.710  1.00  0.00    -0.211 OA 
HETATM    3  O   UNL     3      -7.273   6.111  67.490  1.00  0.00    -0.072 OA 
HETATM    4  H   UNL     2      -7.327  17.609  66.261  1.00  0.00     0.000 HD 
HETATM    5  C   UNL     2      -8.306  15.932  66.470  1.00  0.00    -0.295 C  
HETATM    6  C   UNL     3      -6.680   7.124  66.681  1.00  0.00    -0.060 C  
HETATM    7  H   UNL     3      -7.247   5.275  67.040  1.00  0.00     0.000 HD 
ENDROOT
BRANCH   5   8
HETATM    8  C   UNL     2      -9.586  15.471  67.199  1.00  0.00    -0.222 C  
HETATM    9  O   UNL     2      -9.753  16.284  68.355  1.00  0.00    -0.213 OA 
HETATM   10  H   UNL     2     -10.541  16.000  68.804  1.00  0.00     0.000 HD 
BRANCH   8  11
HETATM   11  C   UNL     2     -10.828  15.644  66.310  1.00  0.00    -0.262 C  
HETATM   12  H   UNL     2     -11.268  16.175  64.422  1.00  0.00     0.000 HD 
HETATM   13  O   UNL     2     -10.500  16.067  64.972  1.00  0.00    -0.558 OA 
BRANCH  11  14
HETATM   14  C   UNL     2     -11.877  14.508  66.231  1.00  0.00    -0.344 C  
HETATM   15  O   UNL     2     -11.528  13.462  67.123  1.00  0.00    -0.307 OA 
HETATM   16  H   UNL     2     -12.172  12.764  67.075  1.00  0.00     0.000 HD 
BRANCH  14  17
HETATM   17  C   UNL     2     -12.340  14.047  64.836  1.00  0.00    -0.427 C  
HETATM   18  H   UNL     2     -13.173  14.915  63.297  1.00  0.00     0.000 HD 
HETATM   19  O   UNL     2     -12.888  15.199  64.158  1.00  0.00    -0.604 OA 
BRANCH  17  20
HETATM   20  C   UNL     2     -11.290  13.334  63.984  1.00  0.00    -0.363 C  
HETATM   21  O   UNL     2     -10.027  13.229  64.678  1.00  0.00    -0.589 OA 
HETATM   22  C   UNL     2     -11.831  11.910  63.671  1.00  0.00    -0.473 C  
HETATM   23  H   UNL     2      -9.375  12.786  64.149  1.00  0.00     0.000 HD 
HETATM   24  O   UNL     2     -13.064  11.870  63.415  1.00  0.00    -0.710 OA 
HETATM   25  O   UNL     2     -10.950  11.012  63.748  1.00  0.00    -0.298 OA 
ENDBRANCH  17  20
ENDBRANCH  14  17
ENDBRANCH  11  14
ENDBRANCH   8  11
ENDBRANCH   5   8
BRANCH   6  26
HETATM   26  C   UNL     3      -6.723   8.475  67.409  1.00  0.00    -0.063 C  
HETATM   27  H   UNL     3      -7.513  10.184  67.037  1.00  0.00     0.000 HD 
HETATM   28  O   UNL     3      -7.486   9.348  66.586  1.00  0.00    -0.092 OA 
BRANCH  26  29
HETATM   29  C   UNL     3      -7.279   8.349  68.852  1.00  0.00    -0.078 C  
HETATM   30  O   UNL     3      -6.674   9.420  69.701  1.00  0.00    -0.044 OA 
HETATM   31  H   UNL     3      -7.014   9.343  70.585  1.00  0.00     0.000 HD 
BRANCH  29  32
HETATM   32  C   UNL     3      -8.790   8.641  68.977  1.00  0.00    -0.138 C  
HETATM   33  H   UNL     3      -9.863  10.232  69.423  1.00  0.00     0.000 HD 
HETATM   34  O   UNL     3      -8.933  10.052  69.346  1.00  0.00    -0.169 OA 
BRANCH  32  35
HETATM   35  C   UNL     3      -9.821   7.701  69.621  1.00  0.00    -0.181 C  
HETATM   36  H   UNL     3     -10.304   5.843  69.385  1.00  0.00     0.000 HD 
HETATM   37  O   UNL     3      -9.667   6.425  68.986  1.00  0.00    -0.134 OA 
BRANCH  35  38
HETATM   38  C   UNL     3      -9.797   7.597  71.142  1.00  0.00    -0.173 C  
HETATM   39  C   UNL     3     -11.220   7.317  71.693  1.00  0.00    -0.245 C  
HETATM   40  O   UNL     3      -9.307   8.817  71.734  1.00  0.00    -0.254 OA 
HETATM   41  O   UNL     3     -12.130   7.140  70.824  1.00  0.00    -0.331 OA 
HETATM   42  O   UNL     3     -11.337   7.534  72.931  1.00  0.00    -0.339 OA 
HETATM   43  H   UNL     3      -9.292   8.752  72.682  1.00  0.00     0.000 HD 
ENDBRANCH  35  38
ENDBRANCH  32  35
ENDBRANCH  29  32
ENDBRANCH  26  29
ENDBRANCH   6  26
TORSDOF 10
ENDMDL
MODEL      316
REMARK 921   NORMALIZED FREE ENERGY PREDICTED BY IDOCK:   -4.65 KCAL/MOL
REMARK 922        TOTAL FREE ENERGY PREDICTED BY IDOCK:   -9.87 KCAL/MOL
REMARK 923 INTER-LIGAND FREE ENERGY PREDICTED BY IDOCK:   -7.71 KCAL/MOL
REMARK 924 INTRA-LIGAND FREE ENERGY PREDICTED BY IDOCK:   -2.16 KCAL/MOL
REMARK 927      BINDING AFFINITY PREDICTED BY RF-SCORE:    0.00 PKD
ROOT
HETATM    1 CA   UNL     1     -12.152   9.059  69.568  1.00  0.00    -0.443 Ca 
HETATM    2  O   UNL     2      -9.384  11.826  65.372  1.00  0.00    -0.360 OA 
HETATM    3  O   UNL     3     -10.948   4.888  74.118  1.00  0.00    -0.310 OA 
HETATM    4  H   UNL     2      -9.658  11.335  64.606  1.00  0.00     0.000 HD 
HETATM    5  C   UNL     2      -9.942  11.215  66.535  1.00  0.00    -0.214 C  
HETATM    6  C   UNL     3     -11.437   4.970  72.783  1.00  0.00    -0.164 C  
HETATM    7  H   UNL     3     -11.561   4.409  74.663  1.00  0.00     0.000 HD 
ENDROOT
BRANCH   5   8
HETATM    8  C   UNL     2      -9.497  12.012  67.780  1.00  0.00    -0.190 C  
HETATM    9  O   UNL     2      -8.074  12.045  67.798  1.00  0.00    -0.131 OA 
HETATM   10  H   UNL     2      -7.800  12.535  68.564  1.00  0.00     0.000 HD 
BRANCH   8  11
HETATM   11  C   UNL     2     -10.007  13.461  67.727  1.00  0.00    -0.233 C  
HETATM   12  H   UNL     2     -10.909  14.786  68.939  1.00  0.00     0.000 HD 
HETATM   13  O   UNL     2     -10.594  13.890  68.972  1.00  0.00    -0.233 OA 
BRANCH  11  14
HETATM   14  C   UNL     2      -9.075  14.581  67.202  1.00  0.00    -0.225 C  
HETATM   15  O   UNL     2      -8.446  15.239  68.290  1.00  0.00    -0.147 OA 
HETATM   16  H   UNL     2      -7.874  15.927  67.967  1.00  0.00     0.000 HD 
BRANCH  14  17
HETATM   17  C   UNL     2      -9.614  15.512  66.100  1.00  0.00    -0.330 C  
HETATM   18  H   UNL     2     -10.812  15.300  64.572  1.00  0.00     0.000 HD 
HETATM   19  O   UNL     2     -10.480  14.725  65.251  1.00  0.00    -0.346 OA 
BRANCH  17  20
HETATM   20  C   UNL     2     -10.301  16.790  66.581  1.00  0.00    -0.297 C  
HETATM   21  O   UNL     2     -10.930  16.601  67.868  1.00  0.00    -0.342 OA 
HETATM   22  C   UNL     2      -9.212  17.894  66.691  1.00  0.00    -0.278 C  
HETATM   23  H   UNL     2     -11.357  17.395  68.166  1.00  0.00     0.000 HD 
HETATM   24  O   UNL     2      -8.367  17.880  65.757  1.00  0.00    -0.521 OA 
HETATM   25  O   UNL     2      -9.333  18.616  67.716  1.00  0.00    -0.285 OA 
ENDBRANCH  17  20
ENDBRANCH  14  17
ENDBRANCH  11  14
ENDBRANCH   8  11
ENDBRANCH   5   8
BRANCH   6  26
HETATM   26  C   UNL     3     -10.446   5.744  71.902  1.00  0.00    -0.221 C  
HETATM   27  H   UNL     3     -10.231   5.996  70.012  1.00  0.00     0.000 HD 
HETATM   28  O   UNL     3     -10.845   5.517  70.556  1.00  0.00    -0.269 OA 
BRANCH  26  29
HETATM   29  C   UNL     3     -10.377   7.248  72.276  1.00  0.00    -0.210 C  
HETATM   30  O   UNL     3     -11.218   7.486  73.490  1.00  0.00    -0.603 OA 
HETATM   31  H   UNL     3     -11.176   8.407  73.718  1.00  0.00     0.000 HD 
BRANCH  29  32
HETATM   32  C   UNL     3      -8.984   7.724  72.740  1.00  0.00    -0.181 C  
HETATM   33  H   UNL     3      -8.194   8.222  74.474  1.00  0.00     0.000 HD 
HETATM   34  O   UNL     3      -9.052   7.930  74.189  1.00  0.00    -0.209 OA 
BRANCH  32  35
HETATM   35  C   UNL     3      -8.099   8.732  71.989  1.00  0.00     0.007 C  
HETATM   36  H   UNL     3      -6.407   9.594  72.354  1.00  0.00     0.000 HD 
HETATM   37  O   UNL     3      -6.954   8.971  72.818  1.00  0.00    -0.323 OA 
BRANCH  35  38
HETATM   38  C   UNL     3      -7.714   8.373  70.558  1.00  0.00    -0.080 C  
HETATM   39  C   UNL     3      -8.775   8.899  69.558  1.00  0.00    -0.142 C  
HETATM   40  O   UNL     3      -7.600   6.945  70.398  1.00  0.00    -0.084 OA 
HETATM   41  O   UNL     3      -9.717   9.593  70.056  1.00  0.00    -0.213 OA 
HETATM   42  O   UNL     3      -8.697   8.376  68.412  1.00  0.00    -0.135 OA 
HETATM   43  H   UNL     3      -7.360   6.721  69.507  1.00  0.00     0.000 HD 
ENDBRANCH  35  38
ENDBRANCH  32  35
ENDBRANCH  29  32
ENDBRANCH  26  29
ENDBRANCH   6  26
TORSDOF 10
ENDMDL
MODEL      317
REMARK 921   NORMALIZED FREE ENERGY PREDICTED BY IDOCK:   -4.65 KCAL/MOL
REMARK 922        TOTAL FREE ENERGY PREDICTED BY IDOCK:   -9.87 KCAL/MOL
REMARK 923 INTER-LIGAND FREE ENERGY PREDICTED BY IDOCK:   -8.33 KCAL/MOL
REMARK 924 INTRA-LIGAND FREE ENERGY PREDICTED BY IDOCK:   -1.54 KCAL/MOL
REMARK 927      BINDING AFFINITY PREDICTED BY RF-SCORE:    0.00 PKD
ROOT
HETATM    1 CA   UNL     1     -12.472  11.572  68.945  1.00  0.00    -0.310 Ca 
HETATM    2  O   UNL     2     -12.283   7.483  72.966  1.00  0.00    -0.422 OA 
HETATM    3  O   UNL     3     -10.043  17.266  67.832  1.00  0.00    -0.289 OA 
HETATM    4  H   UNL     2     -13.113   7.613  73.411  1.00  0.00     0.000 HD 
HETATM    5  C   UNL     2     -12.138   8.482  71.958  1.00  0.00    -0.364 C  
HETATM    6  C   UNL     3     -11.207  16.634  68.358  1.00  0.00    -0.239 C  
HETATM    7  H   UNL     3     -10.285  17.895  67.163  1.00  0.00     0.000 HD 
ENDROOT
BRANCH   5   8
HETATM    8  C   UNL     2     -10.790   8.272  71.237  1.00  0.00    -0.237 C  
HETATM    9  O   UNL     2      -9.745   8.562  72.159  1.00  0.00    -0.267 OA 
HETATM   10  H   UNL     2      -8.915   8.432  71.714  1.00  0.00     0.000 HD 
BRANCH   8  11
HETATM   11  C   UNL     2     -10.627   6.815  70.773  1.00  0.00    -0.222 C  
HETATM   12  H   UNL     2     -11.651   5.447  69.717  1.00  0.00     0.000 HD 
HETATM   13  O   UNL     2     -11.752   6.347  70.003  1.00  0.00    -0.429 OA 
BRANCH  11  14
HETATM   14  C   UNL     2      -9.321   6.381  70.063  1.00  0.00    -0.156 C  
HETATM   15  O   UNL     2      -8.354   5.987  71.023  1.00  0.00    -0.121 OA 
HETATM   16  H   UNL     2      -7.552   5.720  70.588  1.00  0.00     0.000 HD 
BRANCH  14  17
HETATM   17  C   UNL     2      -8.785   7.272  68.927  1.00  0.00    -0.128 C  
HETATM   18  H   UNL     2      -7.602   8.823  68.824  1.00  0.00     0.000 HD 
HETATM   19  O   UNL     2      -7.932   8.274  69.526  1.00  0.00    -0.107 OA 
BRANCH  17  20
HETATM   20  C   UNL     2      -8.085   6.545  67.779  1.00  0.00    -0.115 C  
HETATM   21  O   UNL     2      -7.169   5.541  68.269  1.00  0.00    -0.069 OA 
HETATM   22  C   UNL     2      -9.185   5.867  66.915  1.00  0.00    -0.124 C  
HETATM   23  H   UNL     2      -6.734   5.090  67.556  1.00  0.00     0.000 HD 
HETATM   24  O   UNL     2     -10.219   6.568  66.753  1.00  0.00    -0.192 OA 
HETATM   25  O   UNL     2      -8.877   4.707  66.532  1.00  0.00    -0.112 OA 
ENDBRANCH  17  20
ENDBRANCH  14  17
ENDBRANCH  11  14
ENDBRANCH   8  11
ENDBRANCH   5   8
BRANCH   6  26
HETATM   26  C   UNL     3     -10.815  15.617  69.439  1.00  0.00    -0.264 C  
HETATM   27  H   UNL     3     -10.831  15.614  71.358  1.00  0.00     0.000 HD 
HETATM   28  O   UNL     3     -11.073  16.243  70.689  1.00  0.00    -0.341 OA 
BRANCH  26  29
HETATM   29  C   UNL     3     -11.553  14.263  69.268  1.00  0.00    -0.306 C  
HETATM   30  O   UNL     3     -13.012  14.525  69.074  1.00  0.00    -0.055 OA 
HETATM   31  H   UNL     3     -13.464  13.695  68.969  1.00  0.00     0.000 HD 
BRANCH  29  32
HETATM   32  C   UNL     3     -11.180  13.495  67.981  1.00  0.00    -0.271 C  
HETATM   33  H   UNL     3     -10.096  11.899  67.582  1.00  0.00     0.000 HD 
HETATM   34  O   UNL     3     -10.325  12.372  68.374  1.00  0.00    -0.221 OA 
BRANCH  32  35
HETATM   35  C   UNL     3     -10.808  14.147  66.640  1.00  0.00    -0.299 C  
HETATM   36  H   UNL     3      -9.308  14.004  65.427  1.00  0.00     0.000 HD 
HETATM   37  O   UNL     3      -9.539  13.601  66.257  1.00  0.00    -0.276 OA 
BRANCH  35  38
HETATM   38  C   UNL     3     -11.840  14.053  65.522  1.00  0.00    -0.365 C  
HETATM   39  C   UNL     3     -11.769  15.302  64.606  1.00  0.00    -0.308 C  
HETATM   40  O   UNL     3     -13.174  13.953  66.060  1.00  0.00    -0.445 OA 
HETATM   41  O   UNL     3     -10.844  16.134  64.867  1.00  0.00    -0.582 OA 
HETATM   42  O   UNL     3     -12.782  15.449  63.868  1.00  0.00    -0.695 OA 
HETATM   43  H   UNL     3     -13.817  13.894  65.363  1.00  0.00     0.000 HD 
ENDBRANCH  35  38
ENDBRANCH  32  35
ENDBRANCH  29  32
ENDBRANCH  26  29
ENDBRANCH   6  26
TORSDOF 10
ENDMDL
MODEL      318
REMARK 921   NORMALIZED FREE ENERGY PREDICTED BY IDOCK:   -4.65 KCAL/MOL
REMARK 922        TOTAL FREE ENERGY PREDICTED BY IDOCK:   -9.87 KCAL/MOL
REMARK 923 INTER-LIGAND FREE ENERGY PREDICTED BY IDOCK:   -8.26 KCAL/MOL
REMARK 924 INTRA-LIGAND FREE ENERGY PREDICTED BY IDOCK:   -1.61 KCAL/MOL
REMARK 927      BINDING AFFINITY PREDICTED BY RF-SCORE:    0.00 PKD
ROOT
HETATM    1 CA   UNL     1      -8.850  14.164  65.258  1.00  0.00    -0.440 Ca 
HETATM    2  O   UNL     2     -11.572   9.874  67.925  1.00  0.00    -0.583 OA 
HETATM    3  O   UNL     3      -6.651  19.918  66.523  1.00  0.00    -0.190 OA 
HETATM    4  H   UNL     2     -12.458   9.977  67.598  1.00  0.00     0.000 HD 
HETATM    5  C   UNL     2     -10.762  10.924  67.400  1.00  0.00    -0.257 C  
HETATM    6  C   UNL     3      -7.787  19.254  65.975  1.00  0.00    -0.258 C  
HETATM    7  H   UNL     3      -6.335  20.580  65.919  1.00  0.00     0.000 HD 
ENDROOT
BRANCH   5   8
HETATM    8  C   UNL     2      -9.322  10.758  67.931  1.00  0.00    -0.150 C  
HETATM    9  O   UNL     2      -9.373  10.760  69.353  1.00  0.00    -0.388 OA 
HETATM   10  H   UNL     2      -8.486  10.657  69.680  1.00  0.00     0.000 HD 
BRANCH   8  11
HETATM   11  C   UNL     2      -8.711   9.422  67.477  1.00  0.00    -0.122 C  
HETATM   12  H   UNL     2      -7.102   8.767  66.468  1.00  0.00     0.000 HD 
HETATM   13  O   UNL     2      -7.480   9.592  66.748  1.00  0.00    -0.093 OA 
BRANCH  11  14
HETATM   14  C   UNL     2      -8.529   8.277  68.504  1.00  0.00    -0.126 C  
HETATM   15  O   UNL     2      -7.155   8.119  68.817  1.00  0.00    -0.068 OA 
HETATM   16  H   UNL     2      -7.043   7.416  69.447  1.00  0.00     0.000 HD 
BRANCH  14  17
HETATM   17  C   UNL     2      -9.298   6.964  68.266  1.00  0.00    -0.125 C  
HETATM   18  H   UNL     2     -11.140   6.370  68.532  1.00  0.00     0.000 HD 
HETATM   19  O   UNL     2     -10.666   7.181  68.679  1.00  0.00    -0.210 OA 
BRANCH  17  20
HETATM   20  C   UNL     2      -9.218   6.388  66.852  1.00  0.00    -0.135 C  
HETATM   21  O   UNL     2      -9.473   7.400  65.853  1.00  0.00    -0.401 OA 
HETATM   22  C   UNL     2      -7.785   5.816  66.661  1.00  0.00    -0.100 C  
HETATM   23  H   UNL     2      -9.423   7.042  64.975  1.00  0.00     0.000 HD 
HETATM   24  O   UNL     2      -7.328   5.219  67.671  1.00  0.00    -0.074 OA 
HETATM   25  O   UNL     2      -7.295   6.064  65.527  1.00  0.00    -0.072 OA 
ENDBRANCH  17  20
ENDBRANCH  14  17
ENDBRANCH  11  14
ENDBRANCH   8  11
ENDBRANCH   5   8
BRANCH   6  26
HETATM   26  C   UNL     3      -8.297  18.185  66.951  1.00  0.00    -0.245 C  
HETATM   27  H   UNL     3      -7.915  17.731  68.776  1.00  0.00     0.000 HD 
HETATM   28  O   UNL     3      -7.599  18.392  68.172  1.00  0.00    -0.257 OA 
BRANCH  26  29
HETATM   29  C   UNL     3      -9.840  18.224  67.112  1.00  0.00    -0.324 C  
HETATM   30  O   UNL     3     -10.474  17.893  65.800  1.00  0.00    -0.564 OA 
HETATM   31  H   UNL     3     -11.419  17.917  65.899  1.00  0.00     0.000 HD 
BRANCH  29  32
HETATM   32  C   UNL     3     -10.408  17.130  68.041  1.00  0.00    -0.353 C  
HETATM   33  H   UNL     3     -10.822  17.019  69.964  1.00  0.00     0.000 HD 
HETATM   34  O   UNL     3     -10.471  17.692  69.392  1.00  0.00    -0.242 OA 
BRANCH  32  35
HETATM   35  C   UNL     3     -10.036  15.640  67.982  1.00  0.00    -0.222 C  
HETATM   36  H   UNL     3      -9.064  14.433  69.140  1.00  0.00     0.000 HD 
HETATM   37  O   UNL     3      -9.294  15.355  69.176  1.00  0.00    -0.213 OA 
BRANCH  35  38
HETATM   38  C   UNL     3     -11.179  14.656  67.762  1.00  0.00    -0.308 C  
HETATM   39  C   UNL     3     -11.529  14.553  66.254  1.00  0.00    -0.358 C  
HETATM   40  O   UNL     3     -12.359  15.067  68.480  1.00  0.00    -0.586 OA 
HETATM   41  O   UNL     3     -10.784  15.212  65.462  1.00  0.00    -0.318 OA 
HETATM   42  O   UNL     3     -12.649  14.018  66.028  1.00  0.00    -0.481 OA 
HETATM   43  H   UNL     3     -13.071  14.453  68.343  1.00  0.00     0.000 HD 
ENDBRANCH  35  38
ENDBRANCH  32  35
ENDBRANCH  29  32
ENDBRANCH  26  29
ENDBRANCH   6  26
TORSDOF 10
ENDMDL
MODEL      319
REMARK 921   NORMALIZED FREE ENERGY PREDICTED BY IDOCK:   -4.64 KCAL/MOL
REMARK 922        TOTAL FREE ENERGY PREDICTED BY IDOCK:   -9.84 KCAL/MOL
REMARK 923 INTER-LIGAND FREE ENERGY PREDICTED BY IDOCK:   -7.55 KCAL/MOL
REMARK 924 INTRA-LIGAND FREE ENERGY PREDICTED BY IDOCK:   -2.30 KCAL/MOL
REMARK 927      BINDING AFFINITY PREDICTED BY RF-SCORE:    0.00 PKD
ROOT
HETATM    1 CA   UNL     1      -7.146   8.234  68.886  1.00  0.00    -0.054 Ca 
HETATM    2  O   UNL     2      -9.072  12.590  65.687  1.00  0.00    -0.427 OA 
HETATM    3  O   UNL     3      -8.143   5.685  74.549  1.00  0.00    -0.103 OA 
HETATM    4  H   UNL     2      -8.370  13.223  65.782  1.00  0.00     0.000 HD 
HETATM    5  C   UNL     2      -8.777  11.449  66.490  1.00  0.00    -0.181 C  
HETATM    6  C   UNL     3      -7.282   6.598  73.873  1.00  0.00    -0.083 C  
HETATM    7  H   UNL     3      -7.632   5.026  75.003  1.00  0.00     0.000 HD 
ENDROOT
BRANCH   5   8
HETATM    8  C   UNL     2      -9.917  10.420  66.335  1.00  0.00    -0.221 C  
HETATM    9  O   UNL     2      -9.331   9.131  66.182  1.00  0.00    -0.190 OA 
HETATM   10  H   UNL     2     -10.033   8.498  66.086  1.00  0.00     0.000 HD 
BRANCH   8  11
HETATM   11  C   UNL     2     -10.816  10.390  67.581  1.00  0.00    -0.306 C  
HETATM   12  H   UNL     2     -11.272   9.132  69.080  1.00  0.00     0.000 HD 
HETATM   13  O   UNL     2     -10.716   9.151  68.310  1.00  0.00    -0.199 OA 
BRANCH  11  14
HETATM   14  C   UNL     2     -10.768  11.566  68.587  1.00  0.00    -0.207 C  
HETATM   15  O   UNL     2     -10.041  11.187  69.744  1.00  0.00    -0.398 OA 
HETATM   16  H   UNL     2     -10.012  11.909  70.361  1.00  0.00     0.000 HD 
BRANCH  14  17
HETATM   17  C   UNL     2     -12.074  12.336  68.861  1.00  0.00    -0.126 C  
HETATM   18  H   UNL     2     -13.670  12.015  69.940  1.00  0.00     0.000 HD 
HETATM   19  O   UNL     2     -12.865  11.540  69.771  1.00  0.00     0.110 OA 
BRANCH  17  20
HETATM   20  C   UNL     2     -11.913  13.773  69.358  1.00  0.00    -0.347 C  
HETATM   21  O   UNL     2     -11.318  13.813  70.674  1.00  0.00    -0.484 OA 
HETATM   22  C   UNL     2     -10.993  14.516  68.349  1.00  0.00    -0.245 C  
HETATM   23  H   UNL     2     -11.218  14.706  70.983  1.00  0.00     0.000 HD 
HETATM   24  O   UNL     2     -11.212  14.229  67.142  1.00  0.00    -0.301 OA 
HETATM   25  O   UNL     2     -10.152  15.274  68.902  1.00  0.00    -0.208 OA 
ENDBRANCH  17  20
ENDBRANCH  14  17
ENDBRANCH  11  14
ENDBRANCH   8  11
ENDBRANCH   5   8
BRANCH   6  26
HETATM   26  C   UNL     3      -8.110   7.663  73.140  1.00  0.00    -0.123 C  
HETATM   27  H   UNL     3      -7.763   9.440  72.505  1.00  0.00     0.000 HD 
HETATM   28  O   UNL     3      -7.251   8.782  72.959  1.00  0.00    -0.341 OA 
BRANCH  26  29
HETATM   29  C   UNL     3      -8.711   7.130  71.812  1.00  0.00    -0.117 C  
HETATM   30  O   UNL     3      -8.055   5.831  71.469  1.00  0.00    -0.114 OA 
HETATM   31  H   UNL     3      -8.423   5.505  70.656  1.00  0.00     0.000 HD 
BRANCH  29  32
HETATM   32  C   UNL     3     -10.201   6.734  71.904  1.00  0.00    -0.189 C  
HETATM   33  H   UNL     3     -11.188   5.222  72.690  1.00  0.00     0.000 HD 
HETATM   34  O   UNL     3     -10.272   5.466  72.634  1.00  0.00    -0.175 OA 
BRANCH  32  35
HETATM   35  C   UNL     3     -11.225   6.880  70.768  1.00  0.00    -0.294 C  
HETATM   36  H   UNL     3     -11.737   5.797  69.250  1.00  0.00     0.000 HD 
HETATM   37  O   UNL     3     -11.104   5.708  69.952  1.00  0.00    -0.321 OA 
BRANCH  35  38
HETATM   38  C   UNL     3     -12.668   7.154  71.177  1.00  0.00    -0.315 C  
HETATM   39  C   UNL     3     -12.830   8.619  71.662  1.00  0.00    -0.345 C  
HETATM   40  O   UNL     3     -13.078   6.271  72.240  1.00  0.00    -0.489 OA 
HETATM   41  O   UNL     3     -11.799   9.356  71.565  1.00  0.00    -0.333 OA 
HETATM   42  O   UNL     3     -13.896   8.825  72.306  1.00  0.00    -0.422 OA 
HETATM   43  H   UNL     3     -13.978   6.441  72.495  1.00  0.00     0.000 HD 
ENDBRANCH  35  38
ENDBRANCH  32  35
ENDBRANCH  29  32
ENDBRANCH  26  29
ENDBRANCH   6  26
TORSDOF 10
ENDMDL
MODEL      320
REMARK 921   NORMALIZED FREE ENERGY PREDICTED BY IDOCK:   -4.62 KCAL/MOL
REMARK 922        TOTAL FREE ENERGY PREDICTED BY IDOCK:   -9.82 KCAL/MOL
REMARK 923 INTER-LIGAND FREE ENERGY PREDICTED BY IDOCK:   -8.78 KCAL/MOL
REMARK 924 INTRA-LIGAND FREE ENERGY PREDICTED BY IDOCK:   -1.05 KCAL/MOL
REMARK 927      BINDING AFFINITY PREDICTED BY RF-SCORE:    0.00 PKD
ROOT
HETATM    1 CA   UNL     1      -8.908  14.446  69.453  1.00  0.00    -0.228 Ca 
HETATM    2  O   UNL     2      -6.832   9.127  68.884  1.00  0.00    -0.055 OA 
HETATM    3  O   UNL     3      -9.434  19.733  66.087  1.00  0.00    -0.388 OA 
HETATM    4  H   UNL     2      -6.020   9.185  69.374  1.00  0.00     0.000 HD 
HETATM    5  C   UNL     2      -7.454  10.411  68.869  1.00  0.00    -0.099 C  
HETATM    6  C   UNL     3      -8.603  19.111  67.063  1.00  0.00    -0.290 C  
HETATM    7  H   UNL     3      -9.690  20.600  66.378  1.00  0.00     0.000 HD 
ENDROOT
BRANCH   5   8
HETATM    8  C   UNL     2      -8.773  10.317  68.073  1.00  0.00    -0.122 C  
HETATM    9  O   UNL     2      -8.678   9.205  67.190  1.00  0.00    -0.122 OA 
HETATM   10  H   UNL     2      -9.490   9.147  66.700  1.00  0.00     0.000 HD 
BRANCH   8  11
HETATM   11  C   UNL     2      -9.973  10.084  69.006  1.00  0.00    -0.196 C  
HETATM   12  H   UNL     2     -11.978  10.186  68.934  1.00  0.00     0.000 HD 
HETATM   13  O   UNL     2     -11.237  10.330  68.358  1.00  0.00    -0.265 OA 
BRANCH  11  14
HETATM   14  C   UNL     2     -10.072   8.763  69.808  1.00  0.00    -0.196 C  
HETATM   15  O   UNL     2      -9.198   7.792  69.257  1.00  0.00    -0.146 OA 
HETATM   16  H   UNL     2      -9.259   6.982  69.749  1.00  0.00     0.000 HD 
BRANCH  14  17
HETATM   17  C   UNL     2     -11.475   8.244  70.174  1.00  0.00     0.010 C  
HETATM   18  H   UNL     2     -12.337   6.491  70.211  1.00  0.00     0.000 HD 
HETATM   19  O   UNL     2     -11.471   6.811  69.986  1.00  0.00    -0.338 OA 
BRANCH  17  20
HETATM   20  C   UNL     2     -11.993   8.632  71.559  1.00  0.00    -0.306 C  
HETATM   21  O   UNL     2     -11.914  10.058  71.773  1.00  0.00    -0.354 OA 
HETATM   22  C   UNL     2     -13.476   8.174  71.649  1.00  0.00    -0.332 C  
HETATM   23  H   UNL     2     -12.235  10.299  72.634  1.00  0.00     0.000 HD 
HETATM   24  O   UNL     2     -13.703   7.052  71.122  1.00  0.00    -0.255 OA 
HETATM   25  O   UNL     2     -14.225   9.013  72.217  1.00  0.00    -0.436 OA 
ENDBRANCH  17  20
ENDBRANCH  14  17
ENDBRANCH  11  14
ENDBRANCH   8  11
ENDBRANCH   5   8
BRANCH   6  26
HETATM   26  C   UNL     3      -8.190  17.710  66.592  1.00  0.00    -0.260 C  
HETATM   27  H   UNL     3      -6.518  16.785  66.409  1.00  0.00     0.000 HD 
HETATM   28  O   UNL     3      -6.774  17.652  66.700  1.00  0.00    -0.170 OA 
BRANCH  26  29
HETATM   29  C   UNL     3      -8.911  16.587  67.384  1.00  0.00    -0.199 C  
HETATM   30  O   UNL     3      -8.815  16.884  68.846  1.00  0.00    -0.262 OA 
HETATM   31  H   UNL     3      -9.256  16.196  69.331  1.00  0.00     0.000 HD 
BRANCH  29  32
HETATM   32  C   UNL     3     -10.437  16.530  67.157  1.00  0.00    -0.300 C  
HETATM   33  H   UNL     3     -12.009  16.373  68.334  1.00  0.00     0.000 HD 
HETATM   34  O   UNL     3     -11.070  16.408  68.473  1.00  0.00    -0.341 OA 
BRANCH  32  35
HETATM   35  C   UNL     3     -11.135  15.748  66.034  1.00  0.00    -0.085 C  
HETATM   36  H   UNL     3     -11.115  15.830  64.102  1.00  0.00     0.000 HD 
HETATM   37  O   UNL     3     -10.684  16.314  64.797  1.00  0.00    -0.680 OA 
BRANCH  35  38
HETATM   38  C   UNL     3     -10.990  14.231  66.063  1.00  0.00    -0.312 C  
HETATM   39  C   UNL     3     -12.302  13.547  65.597  1.00  0.00    -0.476 C  
HETATM   40  O   UNL     3     -10.678  13.768  67.392  1.00  0.00    -0.270 OA 
HETATM   41  O   UNL     3     -13.225  14.324  65.198  1.00  0.00    -0.686 OA 
HETATM   42  O   UNL     3     -12.369  12.322  65.894  1.00  0.00    -0.618 OA 
HETATM   43  H   UNL     3     -10.587  12.822  67.410  1.00  0.00     0.000 HD 
ENDBRANCH  35  38
ENDBRANCH  32  35
ENDBRANCH  29  32
ENDBRANCH  26  29
ENDBRANCH   6  26
TORSDOF 10
ENDMDL
MODEL      321
REMARK 921   NORMALIZED FREE ENERGY PREDICTED BY IDOCK:   -4.62 KCAL/MOL
REMARK 922        TOTAL FREE ENERGY PREDICTED BY IDOCK:   -9.82 KCAL/MOL
REMARK 923 INTER-LIGAND FREE ENERGY PREDICTED BY IDOCK:   -8.60 KCAL/MOL
REMARK 924 INTRA-LIGAND FREE ENERGY PREDICTED BY IDOCK:   -1.22 KCAL/MOL
REMARK 927      BINDING AFFINITY PREDICTED BY RF-SCORE:    0.00 PKD
ROOT
HETATM    1 CA   UNL     1      -8.467  14.065  66.459  1.00  0.00    -0.231 Ca 
HETATM    2  O   UNL     2     -10.388   8.668  66.140  1.00  0.00    -0.382 OA 
HETATM    3  O   UNL     3     -10.746  19.924  66.628  1.00  0.00    -0.464 OA 
HETATM    4  H   UNL     2     -10.219   8.457  65.229  1.00  0.00     0.000 HD 
HETATM    5  C   UNL     2     -10.022  10.026  66.376  1.00  0.00    -0.237 C  
HETATM    6  C   UNL     3     -10.218  18.959  65.722  1.00  0.00    -0.147 C  
HETATM    7  H   UNL     3     -10.279  20.746  66.541  1.00  0.00     0.000 HD 
ENDROOT
BRANCH   5   8
HETATM    8  C   UNL     2     -10.296  10.368  67.856  1.00  0.00    -0.190 C  
HETATM    9  O   UNL     2     -11.692  10.213  68.093  1.00  0.00    -0.694 OA 
HETATM   10  H   UNL     2     -11.861  10.423  69.005  1.00  0.00     0.000 HD 
BRANCH   8  11
HETATM   11  C   UNL     2      -9.544   9.414  68.798  1.00  0.00    -0.154 C  
HETATM   12  H   UNL     2      -7.967   9.459  70.042  1.00  0.00     0.000 HD 
HETATM   13  O   UNL     2      -8.432  10.048  69.460  1.00  0.00    -0.150 OA 
BRANCH  11  14
HETATM   14  C   UNL     2     -10.336   8.584  69.838  1.00  0.00    -0.210 C  
HETATM   15  O   UNL     2     -10.181   9.148  71.130  1.00  0.00    -0.262 OA 
HETATM   16  H   UNL     2     -10.667   8.638  71.768  1.00  0.00     0.000 HD 
BRANCH  14  17
HETATM   17  C   UNL     2     -10.218   7.049  69.778  1.00  0.00    -0.201 C  
HETATM   18  H   UNL     2     -10.822   5.661  68.544  1.00  0.00     0.000 HD 
HETATM   19  O   UNL     2     -10.895   6.608  68.580  1.00  0.00    -0.240 OA 
BRANCH  17  20
HETATM   20  C   UNL     2      -8.802   6.482  69.871  1.00  0.00    -0.143 C  
HETATM   21  O   UNL     2      -8.073   7.057  70.978  1.00  0.00    -0.103 OA 
HETATM   22  C   UNL     2      -8.925   4.945  70.071  1.00  0.00    -0.103 C  
HETATM   23  H   UNL     2      -7.193   6.705  71.035  1.00  0.00     0.000 HD 
HETATM   24  O   UNL     2      -9.836   4.407  69.388  1.00  0.00    -0.203 OA 
HETATM   25  O   UNL     2      -8.106   4.483  70.911  1.00  0.00    -0.074 OA 
ENDBRANCH  17  20
ENDBRANCH  14  17
ENDBRANCH  11  14
ENDBRANCH   8  11
ENDBRANCH   5   8
BRANCH   6  26
HETATM   26  C   UNL     3     -10.973  17.630  65.863  1.00  0.00     0.223 C  
HETATM   27  H   UNL     3     -11.420  16.199  64.666  1.00  0.00     0.000 HD 
HETATM   28  O   UNL     3     -10.953  17.021  64.579  1.00  0.00    -1.031 OA 
BRANCH  26  29
HETATM   29  C   UNL     3     -10.377  16.730  66.978  1.00  0.00    -0.300 C  
HETATM   30  O   UNL     3      -9.179  17.408  67.561  1.00  0.00    -0.231 OA 
HETATM   31  H   UNL     3      -8.814  16.856  68.243  1.00  0.00     0.000 HD 
BRANCH  29  32
HETATM   32  C   UNL     3     -11.292  16.557  68.210  1.00  0.00    -0.180 C  
HETATM   33  H   UNL     3     -11.210  17.137  70.090  1.00  0.00     0.000 HD 
HETATM   34  O   UNL     3     -10.647  17.243  69.333  1.00  0.00    -0.300 OA 
BRANCH  32  35
HETATM   35  C   UNL     3     -12.031  15.264  68.586  1.00  0.00    -0.235 C  
HETATM   36  H   UNL     3     -12.392  13.591  67.686  1.00  0.00     0.000 HD 
HETATM   37  O   UNL     3     -11.935  14.391  67.453  1.00  0.00    -0.398 OA 
BRANCH  35  38
HETATM   38  C   UNL     3     -11.603  14.581  69.880  1.00  0.00    -0.287 C  
HETATM   39  C   UNL     3     -12.494  15.042  71.063  1.00  0.00    -0.338 C  
HETATM   40  O   UNL     3     -10.229  14.888  70.194  1.00  0.00    -0.477 OA 
HETATM   41  O   UNL     3     -13.457  15.817  70.767  1.00  0.00    -0.520 OA 
HETATM   42  O   UNL     3     -12.010  14.777  72.198  1.00  0.00    -0.338 OA 
HETATM   43  H   UNL     3      -9.962  14.462  71.000  1.00  0.00     0.000 HD 
ENDBRANCH  35  38
ENDBRANCH  32  35
ENDBRANCH  29  32
ENDBRANCH  26  29
ENDBRANCH   6  26
TORSDOF 10
ENDMDL
MODEL      322
REMARK 921   NORMALIZED FREE ENERGY PREDICTED BY IDOCK:   -4.62 KCAL/MOL
REMARK 922        TOTAL FREE ENERGY PREDICTED BY IDOCK:   -9.82 KCAL/MOL
REMARK 923 INTER-LIGAND FREE ENERGY PREDICTED BY IDOCK:   -7.62 KCAL/MOL
REMARK 924 INTRA-LIGAND FREE ENERGY PREDICTED BY IDOCK:   -2.20 KCAL/MOL
REMARK 927      BINDING AFFINITY PREDICTED BY RF-SCORE:    0.00 PKD
ROOT
HETATM    1 CA   UNL     1      -8.952  11.349  65.198  1.00  0.00    -0.189 Ca 
HETATM    2  O   UNL     2     -11.377   6.707  67.541  1.00  0.00    -0.662 OA 
HETATM    3  O   UNL     3      -7.966  17.407  66.571  1.00  0.00    -0.235 OA 
HETATM    4  H   UNL     2     -12.197   6.656  67.062  1.00  0.00     0.000 HD 
HETATM    5  C   UNL     2     -10.667   7.869  67.118  1.00  0.00    -0.236 C  
HETATM    6  C   UNL     3      -8.865  16.556  65.865  1.00  0.00    -0.113 C  
HETATM    7  H   UNL     3      -7.659  18.103  66.002  1.00  0.00     0.000 HD 
ENDROOT
BRANCH   5   8
HETATM    8  C   UNL     2      -9.336   7.952  67.895  1.00  0.00    -0.141 C  
HETATM    9  O   UNL     2      -8.356   8.520  67.034  1.00  0.00    -0.109 OA 
HETATM   10  H   UNL     2      -7.536   8.570  67.513  1.00  0.00     0.000 HD 
BRANCH   8  11
HETATM   11  C   UNL     2      -9.467   8.856  69.131  1.00  0.00    -0.157 C  
HETATM   12  H   UNL     2     -10.759  10.196  69.888  1.00  0.00     0.000 HD 
HETATM   13  O   UNL     2     -10.678   9.637  69.124  1.00  0.00    -0.217 OA 
BRANCH  11  14
HETATM   14  C   UNL     2      -9.269   8.254  70.544  1.00  0.00    -0.151 C  
HETATM   15  O   UNL     2      -8.957   9.281  71.471  1.00  0.00    -0.316 OA 
HETATM   16  H   UNL     2      -8.836   8.912  72.338  1.00  0.00     0.000 HD 
BRANCH  14  17
HETATM   17  C   UNL     2      -8.415   6.979  70.673  1.00  0.00    -0.139 C  
HETATM   18  H   UNL     2      -6.526   6.605  71.005  1.00  0.00     0.000 HD 
HETATM   19  O   UNL     2      -7.053   7.392  70.926  1.00  0.00    -0.061 OA 
BRANCH  17  20
HETATM   20  C   UNL     2      -8.895   5.952  71.699  1.00  0.00    -0.139 C  
HETATM   21  O   UNL     2      -9.067   6.548  73.003  1.00  0.00    -0.130 OA 
HETATM   22  C   UNL     2     -10.256   5.393  71.198  1.00  0.00    -0.221 C  
HETATM   23  H   UNL     2      -9.366   5.910  73.641  1.00  0.00     0.000 HD 
HETATM   24  O   UNL     2     -10.308   5.196  69.955  1.00  0.00    -0.277 OA 
HETATM   25  O   UNL     2     -11.106   5.248  72.117  1.00  0.00    -0.207 OA 
ENDBRANCH  17  20
ENDBRANCH  14  17
ENDBRANCH  11  14
ENDBRANCH   8  11
ENDBRANCH   5   8
BRANCH   6  26
HETATM   26  C   UNL     3      -9.362  15.431  66.784  1.00  0.00    -0.246 C  
HETATM   27  H   UNL     3      -8.967  14.882  68.581  1.00  0.00     0.000 HD 
HETATM   28  O   UNL     3      -8.660  15.578  68.012  1.00  0.00    -0.153 OA 
BRANCH  26  29
HETATM   29  C   UNL     3     -10.904  15.448  66.954  1.00  0.00    -0.313 C  
HETATM   30  O   UNL     3     -11.524  15.999  65.710  1.00  0.00     0.134 OA 
HETATM   31  H   UNL     3     -12.468  16.009  65.815  1.00  0.00     0.000 HD 
BRANCH  29  32
HETATM   32  C   UNL     3     -11.547  14.047  67.052  1.00  0.00    -0.371 C  
HETATM   33  H   UNL     3     -11.860  12.764  68.514  1.00  0.00     0.000 HD 
HETATM   34  O   UNL     3     -11.464  13.626  68.453  1.00  0.00    -0.270 OA 
BRANCH  32  35
HETATM   35  C   UNL     3     -11.359  12.916  66.029  1.00  0.00    -0.317 C  
HETATM   36  H   UNL     3     -10.859  11.051  66.139  1.00  0.00     0.000 HD 
HETATM   37  O   UNL     3     -10.975  11.751  66.771  1.00  0.00    -0.260 OA 
BRANCH  35  38
HETATM   38  C   UNL     3     -12.527  12.643  65.088  1.00  0.00    -0.463 C  
HETATM   39  C   UNL     3     -12.026  12.002  63.767  1.00  0.00    -0.490 C  
HETATM   40  O   UNL     3     -13.228  13.862  64.770  1.00  0.00    -0.479 OA 
HETATM   41  O   UNL     3     -10.785  11.736  63.712  1.00  0.00    -0.340 OA 
HETATM   42  O   UNL     3     -12.871  12.042  62.831  1.00  0.00    -0.355 OA 
HETATM   43  H   UNL     3     -13.956  13.692  64.183  1.00  0.00     0.000 HD 
ENDBRANCH  35  38
ENDBRANCH  32  35
ENDBRANCH  29  32
ENDBRANCH  26  29
ENDBRANCH   6  26
TORSDOF 10
ENDMDL
MODEL      323
REMARK 921   NORMALIZED FREE ENERGY PREDICTED BY IDOCK:   -4.61 KCAL/MOL
REMARK 922        TOTAL FREE ENERGY PREDICTED BY IDOCK:   -9.81 KCAL/MOL
REMARK 923 INTER-LIGAND FREE ENERGY PREDICTED BY IDOCK:   -9.15 KCAL/MOL
REMARK 924 INTRA-LIGAND FREE ENERGY PREDICTED BY IDOCK:   -0.65 KCAL/MOL
REMARK 927      BINDING AFFINITY PREDICTED BY RF-SCORE:    0.00 PKD
ROOT
HETATM    1 CA   UNL     1     -13.899  10.126  69.405  1.00  0.00    -0.468 Ca 
HETATM    2  O   UNL     2     -11.062   7.501  73.646  1.00  0.00    -0.573 OA 
HETATM    3  O   UNL     3     -12.678  13.398  64.175  1.00  0.00    -0.651 OA 
HETATM    4  H   UNL     2     -11.154   8.127  74.355  1.00  0.00     0.000 HD 
HETATM    5  C   UNL     2     -11.667   8.040  72.472  1.00  0.00    -0.387 C  
HETATM    6  C   UNL     3     -12.994  13.577  65.553  1.00  0.00    -0.209 C  
HETATM    7  H   UNL     3     -13.276  13.899  63.634  1.00  0.00     0.000 HD 
ENDROOT
BRANCH   5   8
HETATM    8  C   UNL     2     -11.518   7.024  71.320  1.00  0.00    -0.286 C  
HETATM    9  O   UNL     2     -12.608   7.207  70.424  1.00  0.00    -0.612 OA 
HETATM   10  H   UNL     2     -12.516   6.581  69.715  1.00  0.00     0.000 HD 
BRANCH   8  11
HETATM   11  C   UNL     2     -10.214   7.253  70.539  1.00  0.00    -0.196 C  
HETATM   12  H   UNL     2      -9.053   8.789  69.963  1.00  0.00     0.000 HD 
HETATM   13  O   UNL     2      -9.859   8.647  70.446  1.00  0.00    -0.175 OA 
BRANCH  11  14
HETATM   14  C   UNL     2      -8.949   6.439  70.906  1.00  0.00    -0.144 C  
HETATM   15  O   UNL     2      -9.221   5.587  72.006  1.00  0.00    -0.140 OA 
HETATM   16  H   UNL     2      -8.445   5.088  72.232  1.00  0.00     0.000 HD 
BRANCH  14  17
HETATM   17  C   UNL     2      -7.604   7.188  70.979  1.00  0.00    -0.085 C  
HETATM   18  H   UNL     2      -6.578   8.314  69.757  1.00  0.00     0.000 HD 
HETATM   19  O   UNL     2      -7.408   7.852  69.711  1.00  0.00    -0.074 OA 
BRANCH  17  20
HETATM   20  C   UNL     2      -7.436   8.149  72.155  1.00  0.00    -0.102 C  
HETATM   21  O   UNL     2      -8.238   7.745  73.287  1.00  0.00    -0.128 OA 
HETATM   22  C   UNL     2      -5.933   8.143  72.553  1.00  0.00    -0.051 C  
HETATM   23  H   UNL     2      -8.133   8.343  74.018  1.00  0.00     0.000 HD 
HETATM   24  O   UNL     2      -5.140   8.112  71.575  1.00  0.00    -0.030 OA 
HETATM   25  O   UNL     2      -5.746   8.146  73.799  1.00  0.00    -0.061 OA 
ENDBRANCH  17  20
ENDBRANCH  14  17
ENDBRANCH  11  14
ENDBRANCH   8  11
ENDBRANCH   5   8
BRANCH   6  26
HETATM   26  C   UNL     3     -12.026  12.767  66.428  1.00  0.00    -0.375 C  
HETATM   27  H   UNL     3     -10.563  11.576  66.076  1.00  0.00     0.000 HD 
HETATM   28  O   UNL     3     -11.162  12.076  65.535  1.00  0.00    -0.313 OA 
BRANCH  26  29
HETATM   29  C   UNL     3     -11.269  13.658  67.448  1.00  0.00    -0.302 C  
HETATM   30  O   UNL     3     -12.133  14.823  67.811  1.00  0.00    -0.548 OA 
HETATM   31  H   UNL     3     -11.669  15.369  68.435  1.00  0.00     0.000 HD 
BRANCH  29  32
HETATM   32  C   UNL     3     -11.025  12.987  68.817  1.00  0.00    -0.258 C  
HETATM   33  H   UNL     3      -9.750  11.649  69.499  1.00  0.00     0.000 HD 
HETATM   34  O   UNL     3      -9.901  12.062  68.656  1.00  0.00    -0.194 OA 
BRANCH  32  35
HETATM   35  C   UNL     3     -12.127  12.500  69.771  1.00  0.00    -0.224 C  
HETATM   36  H   UNL     3     -12.360  10.948  70.901  1.00  0.00     0.000 HD 
HETATM   37  O   UNL     3     -11.679  11.249  70.311  1.00  0.00    -0.316 OA 
BRANCH  35  38
HETATM   38  C   UNL     3     -12.573  13.473  70.857  1.00  0.00    -0.337 C  
HETATM   39  C   UNL     3     -13.417  12.741  71.933  1.00  0.00    -0.358 C  
HETATM   40  O   UNL     3     -13.366  14.540  70.299  1.00  0.00    -0.482 OA 
HETATM   41  O   UNL     3     -13.528  11.482  71.795  1.00  0.00    -0.312 OA 
HETATM   42  O   UNL     3     -14.078  13.519  72.676  1.00  0.00    -0.762 OA 
HETATM   43  H   UNL     3     -13.644  15.146  70.976  1.00  0.00     0.000 HD 
ENDBRANCH  35  38
ENDBRANCH  32  35
ENDBRANCH  29  32
ENDBRANCH  26  29
ENDBRANCH   6  26
TORSDOF 10
ENDMDL
MODEL      324
REMARK 921   NORMALIZED FREE ENERGY PREDICTED BY IDOCK:   -4.61 KCAL/MOL
REMARK 922        TOTAL FREE ENERGY PREDICTED BY IDOCK:   -9.80 KCAL/MOL
REMARK 923 INTER-LIGAND FREE ENERGY PREDICTED BY IDOCK:   -7.89 KCAL/MOL
REMARK 924 INTRA-LIGAND FREE ENERGY PREDICTED BY IDOCK:   -1.92 KCAL/MOL
REMARK 927      BINDING AFFINITY PREDICTED BY RF-SCORE:    0.00 PKD
ROOT
HETATM    1 CA   UNL     1     -13.456  10.210  69.306  1.00  0.00    -0.488 Ca 
HETATM    2  O   UNL     2     -10.811   7.694  73.733  1.00  0.00    -0.450 OA 
HETATM    3  O   UNL     3     -12.067  13.905  64.410  1.00  0.00    -0.419 OA 
HETATM    4  H   UNL     2     -11.060   8.262  74.453  1.00  0.00     0.000 HD 
HETATM    5  C   UNL     2     -11.343   8.226  72.521  1.00  0.00    -0.385 C  
HETATM    6  C   UNL     3     -12.556  13.963  65.747  1.00  0.00    -0.494 C  
HETATM    7  H   UNL     3     -12.658  14.363  63.824  1.00  0.00     0.000 HD 
ENDROOT
BRANCH   5   8
HETATM    8  C   UNL     2     -10.939   7.304  71.351  1.00  0.00    -0.232 C  
HETATM    9  O   UNL     2     -11.796   7.584  70.250  1.00  0.00    -0.494 OA 
HETATM   10  H   UNL     2     -11.547   7.016  69.530  1.00  0.00     0.000 HD 
BRANCH   8  11
HETATM   11  C   UNL     2      -9.491   7.567  70.907  1.00  0.00    -0.165 C  
HETATM   12  H   UNL     2      -7.650   7.603  71.713  1.00  0.00     0.000 HD 
HETATM   13  O   UNL     2      -8.545   7.440  71.988  1.00  0.00    -0.106 OA 
BRANCH  11  14
HETATM   14  C   UNL     2      -8.928   6.836  69.663  1.00  0.00    -0.143 C  
HETATM   15  O   UNL     2      -9.137   7.622  68.501  1.00  0.00    -0.133 OA 
HETATM   16  H   UNL     2      -8.791   7.173  67.738  1.00  0.00     0.000 HD 
BRANCH  14  17
HETATM   17  C   UNL     2      -9.244   5.337  69.501  1.00  0.00    -0.118 C  
HETATM   18  H   UNL     2     -10.475   4.292  68.401  1.00  0.00     0.000 HD 
HETATM   19  O   UNL     2     -10.280   5.217  68.501  1.00  0.00    -0.174 OA 
BRANCH  17  20
HETATM   20  C   UNL     2      -8.052   4.430  69.194  1.00  0.00    -0.068 C  
HETATM   21  O   UNL     2      -7.184   5.018  68.200  1.00  0.00    -0.061 OA 
HETATM   22  C   UNL     2      -7.265   4.228  70.519  1.00  0.00    -0.041 C  
HETATM   23  H   UNL     2      -6.443   4.454  68.009  1.00  0.00     0.000 HD 
HETATM   24  O   UNL     2      -7.994   4.080  71.536  1.00  0.00    -0.073 OA 
HETATM   25  O   UNL     2      -6.014   4.269  70.369  1.00  0.00    -0.016 OA 
ENDBRANCH  17  20
ENDBRANCH  14  17
ENDBRANCH  11  14
ENDBRANCH   8  11
ENDBRANCH   5   8
BRANCH   6  26
HETATM   26  C   UNL     3     -11.601  13.224  66.694  1.00  0.00    -0.365 C  
HETATM   27  H   UNL     3     -10.076  12.083  66.453  1.00  0.00     0.000 HD 
HETATM   28  O   UNL     3     -10.667  12.541  65.867  1.00  0.00    -0.255 OA 
BRANCH  26  29
HETATM   29  C   UNL     3     -10.930  14.178  67.717  1.00  0.00    -0.262 C  
HETATM   30  O   UNL     3     -10.563  13.400  68.940  1.00  0.00    -0.325 OA 
HETATM   31  H   UNL     3     -10.153  13.984  69.566  1.00  0.00     0.000 HD 
BRANCH  29  32
HETATM   32  C   UNL     3      -9.566  14.741  67.261  1.00  0.00    -0.223 C  
HETATM   33  H   UNL     3      -7.761  14.806  68.045  1.00  0.00     0.000 HD 
HETATM   34  O   UNL     3      -8.600  14.460  68.326  1.00  0.00    -0.156 OA 
BRANCH  32  35
HETATM   35  C   UNL     3      -9.360  16.084  66.544  1.00  0.00    -0.268 C  
HETATM   36  H   UNL     3      -9.725  16.748  64.765  1.00  0.00     0.000 HD 
HETATM   37  O   UNL     3      -9.852  15.917  65.208  1.00  0.00    -0.408 OA 
BRANCH  35  38
HETATM   38  C   UNL     3      -9.940  17.320  67.224  1.00  0.00    -0.283 C  
HETATM   39  C   UNL     3      -9.061  18.565  66.937  1.00  0.00    -0.290 C  
HETATM   40  O   UNL     3     -10.019  17.133  68.651  1.00  0.00    -0.278 OA 
HETATM   41  O   UNL     3      -8.085  18.388  66.142  1.00  0.00    -0.408 OA 
HETATM   42  O   UNL     3      -9.289  19.536  67.710  1.00  0.00    -0.307 OA 
HETATM   43  H   UNL     3     -10.380  17.903  69.075  1.00  0.00     0.000 HD 
ENDBRANCH  35  38
ENDBRANCH  32  35
ENDBRANCH  29  32
ENDBRANCH  26  29
ENDBRANCH   6  26
TORSDOF 10
ENDMDL
MODEL      325
REMARK 921   NORMALIZED FREE ENERGY PREDICTED BY IDOCK:   -4.61 KCAL/MOL
REMARK 922        TOTAL FREE ENERGY PREDICTED BY IDOCK:   -9.80 KCAL/MOL
REMARK 923 INTER-LIGAND FREE ENERGY PREDICTED BY IDOCK:   -8.08 KCAL/MOL
REMARK 924 INTRA-LIGAND FREE ENERGY PREDICTED BY IDOCK:   -1.71 KCAL/MOL
REMARK 927      BINDING AFFINITY PREDICTED BY RF-SCORE:    0.00 PKD
ROOT
HETATM    1 CA   UNL     1     -11.088  10.708  70.977  1.00  0.00    -0.291 Ca 
HETATM    2  O   UNL     2      -6.600   8.073  73.393  1.00  0.00    -0.085 OA 
HETATM    3  O   UNL     3     -12.638  13.426  65.521  1.00  0.00    -0.475 OA 
HETATM    4  H   UNL     2      -6.261   8.755  73.961  1.00  0.00     0.000 HD 
HETATM    5  C   UNL     2      -7.703   8.596  72.653  1.00  0.00     0.074 C  
HETATM    6  C   UNL     3     -12.159  13.739  66.826  1.00  0.00    -0.418 C  
HETATM    7  H   UNL     3     -13.400  13.955  65.315  1.00  0.00     0.000 HD 
ENDROOT
BRANCH   5   8
HETATM    8  C   UNL     2      -8.254   7.488  71.731  1.00  0.00    -0.106 C  
HETATM    9  O   UNL     2      -7.205   6.560  71.479  1.00  0.00    -0.079 OA 
HETATM   10  H   UNL     2      -7.545   5.878  70.910  1.00  0.00     0.000 HD 
BRANCH   8  11
HETATM   11  C   UNL     2      -9.412   6.729  72.400  1.00  0.00    -0.143 C  
HETATM   12  H   UNL     2      -9.848   5.917  74.185  1.00  0.00     0.000 HD 
HETATM   13  O   UNL     2      -9.133   6.386  73.771  1.00  0.00    -0.126 OA 
BRANCH  11  14
HETATM   14  C   UNL     2     -10.851   7.295  72.309  1.00  0.00    -0.238 C  
HETATM   15  O   UNL     2     -11.368   7.516  73.611  1.00  0.00    -0.561 OA 
HETATM   16  H   UNL     2     -12.251   7.864  73.555  1.00  0.00     0.000 HD 
BRANCH  14  17
HETATM   17  C   UNL     2     -11.829   6.627  71.324  1.00  0.00    -0.350 C  
HETATM   18  H   UNL     2     -13.770   6.435  71.216  1.00  0.00     0.000 HD 
HETATM   19  O   UNL     2     -13.166   6.847  71.824  1.00  0.00    -0.348 OA 
BRANCH  17  20
HETATM   20  C   UNL     2     -11.695   7.047  69.860  1.00  0.00    -0.073 C  
HETATM   21  O   UNL     2     -11.348   8.444  69.740  1.00  0.00    -0.451 OA 
HETATM   22  C   UNL     2     -10.575   6.176  69.225  1.00  0.00    -0.285 C  
HETATM   23  H   UNL     2     -11.265   8.705  68.830  1.00  0.00     0.000 HD 
HETATM   24  O   UNL     2     -10.584   4.972  69.594  1.00  0.00    -0.212 OA 
HETATM   25  O   UNL     2      -9.814   6.823  68.455  1.00  0.00    -0.138 OA 
ENDBRANCH  17  20
ENDBRANCH  14  17
ENDBRANCH  11  14
ENDBRANCH   8  11
ENDBRANCH   5   8
BRANCH   6  26
HETATM   26  C   UNL     3     -10.928  12.884  67.158  1.00  0.00    -0.262 C  
HETATM   27  H   UNL     3     -10.420  11.063  66.828  1.00  0.00     0.000 HD 
HETATM   28  O   UNL     3     -11.182  11.592  66.622  1.00  0.00    -0.306 OA 
BRANCH  26  29
HETATM   29  C   UNL     3      -9.613  13.518  66.632  1.00  0.00    -0.278 C  
HETATM   30  O   UNL     3      -9.832  14.005  65.235  1.00  0.00    -0.540 OA 
HETATM   31  H   UNL     3      -9.026  14.392  64.913  1.00  0.00     0.000 HD 
BRANCH  29  32
HETATM   32  C   UNL     3      -9.190  14.807  67.369  1.00  0.00    -0.196 C  
HETATM   33  H   UNL     3      -9.454  15.513  69.189  1.00  0.00     0.000 HD 
HETATM   34  O   UNL     3      -9.714  14.720  68.735  1.00  0.00    -0.214 OA 
BRANCH  32  35
HETATM   35  C   UNL     3      -9.209  16.218  66.763  1.00  0.00    -0.230 C  
HETATM   36  H   UNL     3     -10.549  17.307  65.891  1.00  0.00     0.000 HD 
HETATM   37  O   UNL     3     -10.537  16.434  66.266  1.00  0.00    -0.303 OA 
BRANCH  35  38
HETATM   38  C   UNL     3      -8.735  17.356  67.660  1.00  0.00    -0.221 C  
HETATM   39  C   UNL     3      -7.769  18.294  66.889  1.00  0.00    -0.224 C  
HETATM   40  O   UNL     3      -8.050  16.846  68.821  1.00  0.00    -0.243 OA 
HETATM   41  O   UNL     3      -7.598  18.029  65.657  1.00  0.00    -0.545 OA 
HETATM   42  O   UNL     3      -7.097  19.056  67.637  1.00  0.00    -0.216 OA 
HETATM   43  H   UNL     3      -7.754  17.555  69.380  1.00  0.00     0.000 HD 
ENDBRANCH  35  38
ENDBRANCH  32  35
ENDBRANCH  29  32
ENDBRANCH  26  29
ENDBRANCH   6  26
TORSDOF 10
ENDMDL
MODEL      326
REMARK 921   NORMALIZED FREE ENERGY PREDICTED BY IDOCK:   -4.60 KCAL/MOL
REMARK 922        TOTAL FREE ENERGY PREDICTED BY IDOCK:   -9.79 KCAL/MOL
REMARK 923 INTER-LIGAND FREE ENERGY PREDICTED BY IDOCK:   -7.93 KCAL/MOL
REMARK 924 INTRA-LIGAND FREE ENERGY PREDICTED BY IDOCK:   -1.86 KCAL/MOL
REMARK 927      BINDING AFFINITY PREDICTED BY RF-SCORE:    0.00 PKD
ROOT
HETATM    1 CA   UNL     1      -9.861   4.593  68.373  1.00  0.00    -0.122 Ca 
HETATM    2  O   UNL     2      -7.302   8.312  64.832  1.00  0.00    -0.081 OA 
HETATM    3  O   UNL     3     -10.737   3.729  74.541  1.00  0.00    -0.187 OA 
HETATM    4  H   UNL     2      -6.516   7.837  64.589  1.00  0.00     0.000 HD 
HETATM    5  C   UNL     2      -8.035   7.540  65.781  1.00  0.00    -0.117 C  
HETATM    6  C   UNL     3      -9.888   3.329  73.469  1.00  0.00    -0.110 C  
HETATM    7  H   UNL     3     -11.079   2.967  74.992  1.00  0.00     0.000 HD 
ENDROOT
BRANCH   5   8
HETATM    8  C   UNL     2      -9.312   8.312  66.174  1.00  0.00    -0.188 C  
HETATM    9  O   UNL     2      -9.918   7.635  67.270  1.00  0.00    -0.169 OA 
HETATM   10  H   UNL     2     -10.704   8.111  67.512  1.00  0.00     0.000 HD 
BRANCH   8  11
HETATM   11  C   UNL     2      -8.982   9.745  66.623  1.00  0.00    -0.142 C  
HETATM   12  H   UNL     2      -7.443  10.753  67.431  1.00  0.00     0.000 HD 
HETATM   13  O   UNL     2      -7.647   9.868  67.153  1.00  0.00    -0.091 OA 
BRANCH  11  14
HETATM   14  C   UNL     2      -9.248  10.928  65.660  1.00  0.00    -0.203 C  
HETATM   15  O   UNL     2      -8.131  11.121  64.807  1.00  0.00    -0.344 OA 
HETATM   16  H   UNL     2      -8.295  11.848  64.217  1.00  0.00     0.000 HD 
BRANCH  14  17
HETATM   17  C   UNL     2      -9.848  12.219  66.250  1.00  0.00    -0.241 C  
HETATM   18  H   UNL     2      -9.166  13.692  67.336  1.00  0.00     0.000 HD 
HETATM   19  O   UNL     2      -8.796  12.896  66.972  1.00  0.00    -0.205 OA 
BRANCH  17  20
HETATM   20  C   UNL     2     -10.543  13.149  65.257  1.00  0.00    -0.313 C  
HETATM   21  O   UNL     2      -9.995  13.008  63.928  1.00  0.00    -0.713 OA 
HETATM   22  C   UNL     2     -12.051  12.772  65.239  1.00  0.00    -0.457 C  
HETATM   23  H   UNL     2     -10.427  13.586  63.310  1.00  0.00     0.000 HD 
HETATM   24  O   UNL     2     -12.529  12.500  66.373  1.00  0.00    -0.436 OA 
HETATM   25  O   UNL     2     -12.554  12.773  64.084  1.00  0.00    -0.609 OA 
ENDBRANCH  17  20
ENDBRANCH  14  17
ENDBRANCH  11  14
ENDBRANCH   8  11
ENDBRANCH   5   8
BRANCH   6  26
HETATM   26  C   UNL     3      -9.336   4.562  72.740  1.00  0.00    -0.128 C  
HETATM   27  H   UNL     3      -8.366   4.844  71.109  1.00  0.00     0.000 HD 
HETATM   28  O   UNL     3      -8.707   4.081  71.560  1.00  0.00    -0.101 OA 
BRANCH  26  29
HETATM   29  C   UNL     3     -10.435   5.621  72.462  1.00  0.00    -0.213 C  
HETATM   30  O   UNL     3     -10.830   6.264  73.753  1.00  0.00    -0.418 OA 
HETATM   31  H   UNL     3     -11.503   6.913  73.582  1.00  0.00     0.000 HD 
BRANCH  29  32
HETATM   32  C   UNL     3      -9.956   6.827  71.624  1.00  0.00    -0.172 C  
HETATM   33  H   UNL     3      -8.198   7.596  71.180  1.00  0.00     0.000 HD 
HETATM   34  O   UNL     3      -8.493   6.855  71.696  1.00  0.00    -0.116 OA 
BRANCH  32  35
HETATM   35  C   UNL     3     -10.625   8.210  71.605  1.00  0.00    -0.232 C  
HETATM   36  H   UNL     3     -10.060   9.988  71.094  1.00  0.00     0.000 HD 
HETATM   37  O   UNL     3      -9.647   9.133  71.106  1.00  0.00    -0.267 OA 
BRANCH  35  38
HETATM   38  C   UNL     3     -11.953   8.319  70.866  1.00  0.00    -0.180 C  
HETATM   39  C   UNL     3     -13.130   8.438  71.870  1.00  0.00    -0.358 C  
HETATM   40  O   UNL     3     -12.176   7.165  70.032  1.00  0.00    -0.535 OA 
HETATM   41  O   UNL     3     -12.810   8.510  73.098  1.00  0.00    -0.104 OA 
HETATM   42  O   UNL     3     -14.260   8.212  71.356  1.00  0.00    -0.381 OA 
HETATM   43  H   UNL     3     -13.004   7.232  69.571  1.00  0.00     0.000 HD 
ENDBRANCH  35  38
ENDBRANCH  32  35
ENDBRANCH  29  32
ENDBRANCH  26  29
ENDBRANCH   6  26
TORSDOF 10
ENDMDL
MODEL      327
REMARK 921   NORMALIZED FREE ENERGY PREDICTED BY IDOCK:   -4.59 KCAL/MOL
REMARK 922        TOTAL FREE ENERGY PREDICTED BY IDOCK:   -9.78 KCAL/MOL
REMARK 923 INTER-LIGAND FREE ENERGY PREDICTED BY IDOCK:   -8.90 KCAL/MOL
REMARK 924 INTRA-LIGAND FREE ENERGY PREDICTED BY IDOCK:   -0.88 KCAL/MOL
REMARK 927      BINDING AFFINITY PREDICTED BY RF-SCORE:    0.00 PKD
ROOT
HETATM    1 CA   UNL     1      -8.741   7.394  65.741  1.00  0.00    -0.118 Ca 
HETATM    2  O   UNL     2     -10.107   4.050  70.199  1.00  0.00    -0.119 OA 
HETATM    3  O   UNL     3     -10.007  13.151  63.548  1.00  0.00    -0.566 OA 
HETATM    4  H   UNL     2     -10.735   3.455  69.807  1.00  0.00     0.000 HD 
HETATM    5  C   UNL     2      -9.708   5.010  69.222  1.00  0.00    -0.179 C  
HETATM    6  C   UNL     3     -10.411  11.792  63.409  1.00  0.00    -0.439 C  
HETATM    7  H   UNL     3      -9.803  13.521  62.697  1.00  0.00     0.000 HD 
ENDROOT
BRANCH   5   8
HETATM    8  C   UNL     2      -8.687   5.977  69.859  1.00  0.00    -0.131 C  
HETATM    9  O   UNL     2      -7.392   5.630  69.381  1.00  0.00    -0.067 OA 
HETATM   10  H   UNL     2      -6.764   6.226  69.773  1.00  0.00     0.000 HD 
BRANCH   8  11
HETATM   11  C   UNL     2      -8.970   7.433  69.455  1.00  0.00    -0.139 C  
HETATM   12  H   UNL     2      -9.585   8.456  67.838  1.00  0.00     0.000 HD 
HETATM   13  O   UNL     2      -9.410   7.556  68.087  1.00  0.00    -0.137 OA 
BRANCH  11  14
HETATM   14  C   UNL     2      -9.876   8.313  70.351  1.00  0.00    -0.186 C  
HETATM   15  O   UNL     2      -9.169   9.468  70.772  1.00  0.00    -0.236 OA 
HETATM   16  H   UNL     2      -9.725  10.008  71.322  1.00  0.00     0.000 HD 
BRANCH  14  17
HETATM   17  C   UNL     2     -10.700   7.616  71.451  1.00  0.00    -0.222 C  
HETATM   18  H   UNL     2     -10.807   7.753  73.397  1.00  0.00     0.000 HD 
HETATM   19  O   UNL     2     -10.299   8.183  72.718  1.00  0.00    -0.313 OA 
BRANCH  17  20
HETATM   20  C   UNL     2     -12.217   7.646  71.271  1.00  0.00    -0.315 C  
HETATM   21  O   UNL     2     -12.868   6.656  72.098  1.00  0.00    -0.544 OA 
HETATM   22  C   UNL     2     -12.708   9.065  71.676  1.00  0.00    -0.358 C  
HETATM   23  H   UNL     2     -13.811   6.675  71.986  1.00  0.00     0.000 HD 
HETATM   24  O   UNL     2     -11.955  10.000  71.296  1.00  0.00    -0.347 OA 
HETATM   25  O   UNL     2     -13.776   9.053  72.345  1.00  0.00    -0.453 OA 
ENDBRANCH  17  20
ENDBRANCH  14  17
ENDBRANCH  11  14
ENDBRANCH   8  11
ENDBRANCH   5   8
BRANCH   6  26
HETATM   26  C   UNL     3     -10.740  11.194  64.784  1.00  0.00    -0.264 C  
HETATM   27  H   UNL     3      -9.837  10.004  65.990  1.00  0.00     0.000 HD 
HETATM   28  O   UNL     3      -9.634  10.374  65.139  1.00  0.00    -0.225 OA 
BRANCH  26  29
HETATM   29  C   UNL     3     -11.058  12.285  65.839  1.00  0.00    -0.322 C  
HETATM   30  O   UNL     3     -12.505  12.650  65.740  1.00  0.00    -0.607 OA 
HETATM   31  H   UNL     3     -12.700  13.319  66.386  1.00  0.00     0.000 HD 
BRANCH  29  32
HETATM   32  C   UNL     3     -10.937  11.808  67.302  1.00  0.00    -0.267 C  
HETATM   33  H   UNL     3     -12.155  10.938  68.583  1.00  0.00     0.000 HD 
HETATM   34  O   UNL     3     -12.230  11.232  67.683  1.00  0.00    -0.423 OA 
BRANCH  32  35
HETATM   35  C   UNL     3     -10.220  12.574  68.425  1.00  0.00    -0.228 C  
HETATM   36  H   UNL     3      -8.369  12.906  68.879  1.00  0.00     0.000 HD 
HETATM   37  O   UNL     3      -8.813  12.432  68.186  1.00  0.00    -0.182 OA 
BRANCH  35  38
HETATM   38  C   UNL     3     -10.628  14.028  68.631  1.00  0.00    -0.257 C  
HETATM   39  C   UNL     3     -11.761  14.134  69.685  1.00  0.00    -0.316 C  
HETATM   40  O   UNL     3     -11.092  14.613  67.398  1.00  0.00    -0.304 OA 
HETATM   41  O   UNL     3     -12.099  13.047  70.252  1.00  0.00    -0.348 OA 
HETATM   42  O   UNL     3     -12.362  15.244  69.676  1.00  0.00    -0.286 OA 
HETATM   43  H   UNL     3     -11.346  15.520  67.527  1.00  0.00     0.000 HD 
ENDBRANCH  35  38
ENDBRANCH  32  35
ENDBRANCH  29  32
ENDBRANCH  26  29
ENDBRANCH   6  26
TORSDOF 10
ENDMDL
MODEL      328
REMARK 921   NORMALIZED FREE ENERGY PREDICTED BY IDOCK:   -4.59 KCAL/MOL
REMARK 922        TOTAL FREE ENERGY PREDICTED BY IDOCK:   -9.78 KCAL/MOL
REMARK 923 INTER-LIGAND FREE ENERGY PREDICTED BY IDOCK:   -6.41 KCAL/MOL
REMARK 924 INTRA-LIGAND FREE ENERGY PREDICTED BY IDOCK:   -3.37 KCAL/MOL
REMARK 927      BINDING AFFINITY PREDICTED BY RF-SCORE:    0.00 PKD
ROOT
HETATM    1 CA   UNL     1      -7.644   8.646  71.067  1.00  0.00    -0.052 Ca 
HETATM    2  O   UNL     2      -8.031  13.414  67.899  1.00  0.00    -0.127 OA 
HETATM    3  O   UNL     3     -11.373   4.095  73.291  1.00  0.00    -0.238 OA 
HETATM    4  H   UNL     2      -7.985  14.090  68.565  1.00  0.00     0.000 HD 
HETATM    5  C   UNL     2      -8.015  12.137  68.537  1.00  0.00    -0.119 C  
HETATM    6  C   UNL     3     -10.779   5.334  73.669  1.00  0.00    -0.294 C  
HETATM    7  H   UNL     3     -11.175   3.426  73.935  1.00  0.00     0.000 HD 
ENDROOT
BRANCH   5   8
HETATM    8  C   UNL     2      -8.089  11.038  67.456  1.00  0.00    -0.117 C  
HETATM    9  O   UNL     2      -8.639   9.868  68.053  1.00  0.00    -0.120 OA 
HETATM   10  H   UNL     2      -8.685   9.191  67.387  1.00  0.00     0.000 HD 
BRANCH   8  11
HETATM   11  C   UNL     2      -9.007  11.457  66.296  1.00  0.00    -0.200 C  
HETATM   12  H   UNL     2      -9.053  11.332  64.291  1.00  0.00     0.000 HD 
HETATM   13  O   UNL     2      -8.486  11.073  65.008  1.00  0.00    -0.076 OA 
BRANCH  11  14
HETATM   14  C   UNL     2     -10.515  11.108  66.349  1.00  0.00    -0.260 C  
HETATM   15  O   UNL     2     -10.964  10.698  65.068  1.00  0.00    -0.017 OA 
HETATM   16  H   UNL     2     -11.890  10.484  65.101  1.00  0.00     0.000 HD 
BRANCH  14  17
HETATM   17  C   UNL     2     -11.455  12.077  67.090  1.00  0.00    -0.335 C  
HETATM   18  H   UNL     2     -12.983  13.184  66.583  1.00  0.00     0.000 HD 
HETATM   19  O   UNL     2     -12.402  12.586  66.125  1.00  0.00    -0.596 OA 
BRANCH  17  20
HETATM   20  C   UNL     2     -12.154  11.516  68.328  1.00  0.00    -0.002 C  
HETATM   21  O   UNL     2     -11.796  10.136  68.558  1.00  0.00    -0.655 OA 
HETATM   22  C   UNL     2     -11.712  12.378  69.545  1.00  0.00    -0.322 C  
HETATM   23  H   UNL     2     -12.230   9.787  69.328  1.00  0.00     0.000 HD 
HETATM   24  O   UNL     2     -11.633  13.611  69.303  1.00  0.00    -0.272 OA 
HETATM   25  O   UNL     2     -11.478  11.699  70.580  1.00  0.00     0.013 OA 
ENDBRANCH  17  20
ENDBRANCH  14  17
ENDBRANCH  11  14
ENDBRANCH   8  11
ENDBRANCH   5   8
BRANCH   6  26
HETATM   26  C   UNL     3     -11.099   6.415  72.628  1.00  0.00    -0.261 C  
HETATM   27  H   UNL     3     -11.577   8.272  72.712  1.00  0.00     0.000 HD 
HETATM   28  O   UNL     3     -11.379   7.603  73.357  1.00  0.00    -0.289 OA 
BRANCH  26  29
HETATM   29  C   UNL     3      -9.960   6.587  71.589  1.00  0.00    -0.177 C  
HETATM   30  O   UNL     3      -9.118   5.351  71.582  1.00  0.00    -0.137 OA 
HETATM   31  H   UNL     3      -8.420   5.457  70.946  1.00  0.00     0.000 HD 
BRANCH  29  32
HETATM   32  C   UNL     3     -10.443   6.666  70.124  1.00  0.00    -0.210 C  
HETATM   33  H   UNL     3     -12.204   6.641  69.241  1.00  0.00     0.000 HD 
HETATM   34  O   UNL     3     -11.906   6.592  70.142  1.00  0.00    -0.416 OA 
BRANCH  32  35
HETATM   35  C   UNL     3      -9.779   5.956  68.935  1.00  0.00    -0.135 C  
HETATM   36  H   UNL     3      -9.773   4.142  68.263  1.00  0.00     0.000 HD 
HETATM   37  O   UNL     3     -10.184   4.582  68.998  1.00  0.00    -0.079 OA 
BRANCH  35  38
HETATM   38  C   UNL     3     -10.011   6.564  67.556  1.00  0.00    -0.137 C  
HETATM   39  C   UNL     3      -8.659   6.864  66.857  1.00  0.00    -0.116 C  
HETATM   40  O   UNL     3     -10.760   7.792  67.655  1.00  0.00    -0.404 OA 
HETATM   41  O   UNL     3      -7.615   6.493  67.478  1.00  0.00    -0.100 OA 
HETATM   42  O   UNL     3      -8.760   7.647  65.872  1.00  0.00    -0.157 OA 
HETATM   43  H   UNL     3     -10.905   8.171  66.795  1.00  0.00     0.000 HD 
ENDBRANCH  35  38
ENDBRANCH  32  35
ENDBRANCH  29  32
ENDBRANCH  26  29
ENDBRANCH   6  26
TORSDOF 10
ENDMDL
MODEL      329
REMARK 921   NORMALIZED FREE ENERGY PREDICTED BY IDOCK:   -4.56 KCAL/MOL
REMARK 922        TOTAL FREE ENERGY PREDICTED BY IDOCK:   -9.73 KCAL/MOL
REMARK 923 INTER-LIGAND FREE ENERGY PREDICTED BY IDOCK:   -7.77 KCAL/MOL
REMARK 924 INTRA-LIGAND FREE ENERGY PREDICTED BY IDOCK:   -1.96 KCAL/MOL
REMARK 927      BINDING AFFINITY PREDICTED BY RF-SCORE:    0.00 PKD
ROOT
HETATM    1 CA   UNL     1      -8.428  10.180  67.362  1.00  0.00    -0.114 Ca 
HETATM    2  O   UNL     2     -10.974  14.791  69.638  1.00  0.00    -0.265 OA 
HETATM    3  O   UNL     3      -9.738   4.161  66.097  1.00  0.00    -0.185 OA 
HETATM    4  H   UNL     2     -10.584  14.818  70.504  1.00  0.00     0.000 HD 
HETATM    5  C   UNL     2     -10.489  13.640  68.949  1.00  0.00    -0.150 C  
HETATM    6  C   UNL     3      -9.123   4.984  67.084  1.00  0.00    -0.114 C  
HETATM    7  H   UNL     3      -9.146   3.466  65.834  1.00  0.00     0.000 HD 
ENDROOT
BRANCH   5   8
HETATM    8  C   UNL     2     -11.124  13.596  67.542  1.00  0.00    -0.277 C  
HETATM    9  O   UNL     2     -12.395  14.233  67.611  1.00  0.00    -0.598 OA 
HETATM   10  H   UNL     2     -12.786  14.206  66.745  1.00  0.00     0.000 HD 
BRANCH   8  11
HETATM   11  C   UNL     2     -10.265  14.355  66.518  1.00  0.00    -0.274 C  
HETATM   12  H   UNL     2      -9.295  13.986  64.797  1.00  0.00     0.000 HD 
HETATM   13  O   UNL     2      -9.825  13.517  65.430  1.00  0.00    -0.225 OA 
BRANCH  11  14
HETATM   14  C   UNL     2     -10.773  15.698  65.939  1.00  0.00    -0.329 C  
HETATM   15  O   UNL     2     -10.591  15.721  64.533  1.00  0.00    -0.720 OA 
HETATM   16  H   UNL     2     -10.904  16.546  64.177  1.00  0.00     0.000 HD 
BRANCH  14  17
HETATM   17  C   UNL     2     -10.377  16.995  66.669  1.00  0.00    -0.299 C  
HETATM   18  H   UNL     2     -10.735  17.757  68.432  1.00  0.00     0.000 HD 
HETATM   19  O   UNL     2     -10.979  16.956  67.982  1.00  0.00    -0.354 OA 
BRANCH  17  20
HETATM   20  C   UNL     2      -8.880  17.293  66.740  1.00  0.00    -0.247 C  
HETATM   21  O   UNL     2      -8.133  16.476  65.812  1.00  0.00    -0.198 OA 
HETATM   22  C   UNL     2      -8.684  18.794  66.387  1.00  0.00    -0.286 C  
HETATM   23  H   UNL     2      -7.203  16.661  65.857  1.00  0.00     0.000 HD 
HETATM   24  O   UNL     2      -9.558  19.558  66.875  1.00  0.00    -0.314 OA 
HETATM   25  O   UNL     2      -7.689  19.007  65.643  1.00  0.00    -0.465 OA 
ENDBRANCH  17  20
ENDBRANCH  14  17
ENDBRANCH  11  14
ENDBRANCH   8  11
ENDBRANCH   5   8
BRANCH   6  26
HETATM   26  C   UNL     3     -10.080   6.106  67.508  1.00  0.00    -0.158 C  
HETATM   27  H   UNL     3     -11.829   6.670  66.955  1.00  0.00     0.000 HD 
HETATM   28  O   UNL     3     -11.237   5.976  66.692  1.00  0.00    -0.207 OA 
BRANCH  26  29
HETATM   29  C   UNL     3     -10.394   6.070  69.027  1.00  0.00    -0.225 C  
HETATM   30  O   UNL     3      -9.832   4.812  69.609  1.00  0.00    -0.187 OA 
HETATM   31  H   UNL     3     -10.025   4.790  70.540  1.00  0.00     0.000 HD 
BRANCH  29  32
HETATM   32  C   UNL     3      -9.679   7.164  69.850  1.00  0.00    -0.170 C  
HETATM   33  H   UNL     3      -9.036   8.986  69.470  1.00  0.00     0.000 HD 
HETATM   34  O   UNL     3      -9.475   8.313  68.964  1.00  0.00    -0.154 OA 
BRANCH  32  35
HETATM   35  C   UNL     3      -8.540   6.914  70.850  1.00  0.00    -0.136 C  
HETATM   36  H   UNL     3      -6.703   6.328  70.703  1.00  0.00     0.000 HD 
HETATM   37  O   UNL     3      -7.408   6.482  70.085  1.00  0.00    -0.084 OA 
BRANCH  35  38
HETATM   38  C   UNL     3      -8.197   8.058  71.797  1.00  0.00    -0.122 C  
HETATM   39  C   UNL     3      -8.218   7.574  73.271  1.00  0.00    -0.125 C  
HETATM   40  O   UNL     3      -9.136   9.143  71.656  1.00  0.00    -0.334 OA 
HETATM   41  O   UNL     3      -8.425   6.333  73.447  1.00  0.00    -0.122 OA 
HETATM   42  O   UNL     3      -8.261   8.513  74.113  1.00  0.00    -0.334 OA 
HETATM   43  H   UNL     3      -8.922   9.856  72.246  1.00  0.00     0.000 HD 
ENDBRANCH  35  38
ENDBRANCH  32  35
ENDBRANCH  29  32
ENDBRANCH  26  29
ENDBRANCH   6  26
TORSDOF 10
ENDMDL
MODEL      330
REMARK 921   NORMALIZED FREE ENERGY PREDICTED BY IDOCK:   -4.56 KCAL/MOL
REMARK 922        TOTAL FREE ENERGY PREDICTED BY IDOCK:   -9.73 KCAL/MOL
REMARK 923 INTER-LIGAND FREE ENERGY PREDICTED BY IDOCK:   -8.87 KCAL/MOL
REMARK 924 INTRA-LIGAND FREE ENERGY PREDICTED BY IDOCK:   -0.86 KCAL/MOL
REMARK 927      BINDING AFFINITY PREDICTED BY RF-SCORE:    0.00 PKD
ROOT
HETATM    1 CA   UNL     1      -8.158  11.896  69.821  1.00  0.00    -0.339 Ca 
HETATM    2  O   UNL     2     -12.937  15.067  70.008  1.00  0.00    -0.608 OA 
HETATM    3  O   UNL     3      -6.231   6.319  67.643  1.00  0.00    -0.023 OA 
HETATM    4  H   UNL     2     -13.218  14.936  70.906  1.00  0.00     0.000 HD 
HETATM    5  C   UNL     2     -11.772  14.277  69.770  1.00  0.00    -0.309 C  
HETATM    6  C   UNL     3      -6.704   6.949  68.831  1.00  0.00    -0.059 C  
HETATM    7  H   UNL     3      -5.417   5.863  67.816  1.00  0.00     0.000 HD 
ENDROOT
BRANCH   5   8
HETATM    8  C   UNL     2     -11.315  14.489  68.311  1.00  0.00    -0.297 C  
HETATM    9  O   UNL     2     -12.466  14.431  67.475  1.00  0.00    -0.599 OA 
HETATM   10  H   UNL     2     -12.184  14.561  66.577  1.00  0.00     0.000 HD 
BRANCH   8  11
HETATM   11  C   UNL     2     -10.659  15.867  68.126  1.00  0.00    -0.280 C  
HETATM   12  H   UNL     2     -10.491  17.602  69.126  1.00  0.00     0.000 HD 
HETATM   13  O   UNL     2     -10.896  16.750  69.240  1.00  0.00    -0.325 OA 
BRANCH  11  14
HETATM   14  C   UNL     2      -9.166  15.956  67.727  1.00  0.00    -0.201 C  
HETATM   15  O   UNL     2      -8.386  16.346  68.846  1.00  0.00    -0.218 OA 
HETATM   16  H   UNL     2      -7.470  16.400  68.601  1.00  0.00     0.000 HD 
BRANCH  14  17
HETATM   17  C   UNL     2      -8.812  16.666  66.407  1.00  0.00    -0.302 C  
HETATM   18  H   UNL     2      -9.833  17.491  64.961  1.00  0.00     0.000 HD 
HETATM   19  O   UNL     2     -10.052  17.053  65.776  1.00  0.00    -0.516 OA 
BRANCH  17  20
HETATM   20  C   UNL     2      -7.841  17.841  66.518  1.00  0.00    -0.266 C  
HETATM   21  O   UNL     2      -6.942  17.893  65.388  1.00  0.00    -0.434 OA 
HETATM   22  C   UNL     2      -8.687  19.144  66.570  1.00  0.00    -0.337 C  
HETATM   23  H   UNL     2      -6.338  18.624  65.458  1.00  0.00     0.000 HD 
HETATM   24  O   UNL     2      -9.735  19.052  67.265  1.00  0.00    -0.302 OA 
HETATM   25  O   UNL     2      -8.202  20.083  65.885  1.00  0.00    -0.334 OA 
ENDBRANCH  17  20
ENDBRANCH  14  17
ENDBRANCH  11  14
ENDBRANCH   8  11
ENDBRANCH   5   8
BRANCH   6  26
HETATM   26  C   UNL     3      -8.021   7.687  68.551  1.00  0.00    -0.123 C  
HETATM   27  H   UNL     3      -9.663   7.230  67.669  1.00  0.00     0.000 HD 
HETATM   28  O   UNL     3      -8.848   6.774  67.842  1.00  0.00    -0.120 OA 
BRANCH  26  29
HETATM   29  C   UNL     3      -8.678   8.229  69.848  1.00  0.00    -0.134 C  
HETATM   30  O   UNL     3      -8.816   9.714  69.739  1.00  0.00    -0.176 OA 
HETATM   31  H   UNL     3      -9.218  10.046  70.533  1.00  0.00     0.000 HD 
BRANCH  29  32
HETATM   32  C   UNL     3     -10.140   7.775  70.056  1.00  0.00    -0.201 C  
HETATM   33  H   UNL     3     -11.864   8.225  69.217  1.00  0.00     0.000 HD 
HETATM   34  O   UNL     3     -10.965   8.504  69.089  1.00  0.00    -0.090 OA 
BRANCH  32  35
HETATM   35  C   UNL     3     -10.806   7.540  71.421  1.00  0.00    -0.229 C  
HETATM   36  H   UNL     3     -10.186   6.944  73.153  1.00  0.00     0.000 HD 
HETATM   37  O   UNL     3      -9.775   7.090  72.309  1.00  0.00    -0.154 OA 
BRANCH  35  38
HETATM   38  C   UNL     3     -11.604   8.701  72.003  1.00  0.00    -0.370 C  
HETATM   39  C   UNL     3     -13.126   8.405  71.936  1.00  0.00    -0.358 C  
HETATM   40  O   UNL     3     -11.342   9.920  71.280  1.00  0.00    -0.368 OA 
HETATM   41  O   UNL     3     -13.452   7.255  71.506  1.00  0.00    -0.385 OA 
HETATM   42  O   UNL     3     -13.849   9.427  72.097  1.00  0.00    -0.414 OA 
HETATM   43  H   UNL     3     -11.840  10.644  71.643  1.00  0.00     0.000 HD 
ENDBRANCH  35  38
ENDBRANCH  32  35
ENDBRANCH  29  32
ENDBRANCH  26  29
ENDBRANCH   6  26
TORSDOF 10
ENDMDL
MODEL      331
REMARK 921   NORMALIZED FREE ENERGY PREDICTED BY IDOCK:   -4.55 KCAL/MOL
REMARK 922        TOTAL FREE ENERGY PREDICTED BY IDOCK:   -9.72 KCAL/MOL
REMARK 923 INTER-LIGAND FREE ENERGY PREDICTED BY IDOCK:   -9.26 KCAL/MOL
REMARK 924 INTRA-LIGAND FREE ENERGY PREDICTED BY IDOCK:   -0.45 KCAL/MOL
REMARK 927      BINDING AFFINITY PREDICTED BY RF-SCORE:    0.00 PKD
ROOT
HETATM    1 CA   UNL     1      -7.050  12.374  67.652  1.00  0.00    -0.073 Ca 
HETATM    2  O   UNL     2      -9.717   7.633  65.828  1.00  0.00    -0.393 OA 
HETATM    3  O   UNL     3      -8.251  18.494  68.464  1.00  0.00    -0.324 OA 
HETATM    4  H   UNL     2      -9.352   7.531  64.956  1.00  0.00     0.000 HD 
HETATM    5  C   UNL     2      -9.198   8.828  66.408  1.00  0.00    -0.189 C  
HETATM    6  C   UNL     3      -7.675  17.586  67.530  1.00  0.00    -0.198 C  
HETATM    7  H   UNL     3      -7.643  19.199  68.653  1.00  0.00     0.000 HD 
ENDROOT
BRANCH   5   8
HETATM    8  C   UNL     2      -9.791   8.994  67.823  1.00  0.00    -0.168 C  
HETATM    9  O   UNL     2     -11.103   9.531  67.693  1.00  0.00    -0.481 OA 
HETATM   10  H   UNL     2     -11.468   9.633  68.564  1.00  0.00     0.000 HD 
BRANCH   8  11
HETATM   11  C   UNL     2      -9.899   7.641  68.546  1.00  0.00    -0.167 C  
HETATM   12  H   UNL     2      -8.742   6.047  68.939  1.00  0.00     0.000 HD 
HETATM   13  O   UNL     2      -8.675   6.883  68.492  1.00  0.00    -0.126 OA 
BRANCH  11  14
HETATM   14  C   UNL     2     -10.458   7.588  69.989  1.00  0.00    -0.228 C  
HETATM   15  O   UNL     2      -9.392   7.632  70.924  1.00  0.00    -0.156 OA 
HETATM   16  H   UNL     2      -9.735   7.600  71.810  1.00  0.00     0.000 HD 
BRANCH  14  17
HETATM   17  C   UNL     2     -11.555   6.553  70.301  1.00  0.00    -0.409 C  
HETATM   18  H   UNL     2     -11.577   4.669  70.814  1.00  0.00     0.000 HD 
HETATM   19  O   UNL     2     -10.899   5.307  70.622  1.00  0.00    -0.189 OA 
BRANCH  17  20
HETATM   20  C   UNL     2     -12.567   6.954  71.375  1.00  0.00    -0.353 C  
HETATM   21  O   UNL     2     -12.308   6.277  72.625  1.00  0.00    -0.522 OA 
HETATM   22  C   UNL     2     -12.447   8.490  71.581  1.00  0.00    -0.330 C  
HETATM   23  H   UNL     2     -12.936   6.526  73.292  1.00  0.00     0.000 HD 
HETATM   24  O   UNL     2     -12.283   9.143  70.516  1.00  0.00    -0.093 OA 
HETATM   25  O   UNL     2     -12.507   8.839  72.790  1.00  0.00    -0.308 OA 
ENDBRANCH  17  20
ENDBRANCH  14  17
ENDBRANCH  11  14
ENDBRANCH   8  11
ENDBRANCH   5   8
BRANCH   6  26
HETATM   26  C   UNL     3      -8.658  16.446  67.224  1.00  0.00    -0.181 C  
HETATM   27  H   UNL     3      -8.636  14.543  67.471  1.00  0.00     0.000 HD 
HETATM   28  O   UNL     3      -8.028  15.248  67.659  1.00  0.00    -0.136 OA 
BRANCH  26  29
HETATM   29  C   UNL     3     -10.048  16.679  67.873  1.00  0.00    -0.270 C  
HETATM   30  O   UNL     3     -10.694  17.863  67.227  1.00  0.00    -0.354 OA 
HETATM   31  H   UNL     3     -11.545  18.006  67.624  1.00  0.00     0.000 HD 
BRANCH  29  32
HETATM   32  C   UNL     3     -11.071  15.555  67.600  1.00  0.00    -0.311 C  
HETATM   33  H   UNL     3     -12.395  14.590  68.694  1.00  0.00     0.000 HD 
HETATM   34  O   UNL     3     -11.765  15.281  68.862  1.00  0.00    -0.322 OA 
BRANCH  32  35
HETATM   35  C   UNL     3     -10.812  14.317  66.728  1.00  0.00    -0.298 C  
HETATM   36  H   UNL     3     -10.471  12.447  67.085  1.00  0.00     0.000 HD 
HETATM   37  O   UNL     3     -10.631  13.213  67.625  1.00  0.00    -0.224 OA 
BRANCH  35  38
HETATM   38  C   UNL     3     -11.839  14.017  65.641  1.00  0.00    -0.377 C  
HETATM   39  C   UNL     3     -11.743  15.060  64.497  1.00  0.00    -0.368 C  
HETATM   40  O   UNL     3     -13.177  14.044  66.176  1.00  0.00    -0.415 OA 
HETATM   41  O   UNL     3     -10.807  15.914  64.596  1.00  0.00    -0.557 OA 
HETATM   42  O   UNL     3     -12.749  15.071  63.735  1.00  0.00    -0.741 OA 
HETATM   43  H   UNL     3     -13.817  13.857  65.499  1.00  0.00     0.000 HD 
ENDBRANCH  35  38
ENDBRANCH  32  35
ENDBRANCH  29  32
ENDBRANCH  26  29
ENDBRANCH   6  26
TORSDOF 10
ENDMDL
MODEL      332
REMARK 921   NORMALIZED FREE ENERGY PREDICTED BY IDOCK:   -4.55 KCAL/MOL
REMARK 922        TOTAL FREE ENERGY PREDICTED BY IDOCK:   -9.71 KCAL/MOL
REMARK 923 INTER-LIGAND FREE ENERGY PREDICTED BY IDOCK:   -8.42 KCAL/MOL
REMARK 924 INTRA-LIGAND FREE ENERGY PREDICTED BY IDOCK:   -1.29 KCAL/MOL
REMARK 927      BINDING AFFINITY PREDICTED BY RF-SCORE:    0.00 PKD
ROOT
HETATM    1 CA   UNL     1     -11.782  11.398  66.937  1.00  0.00    -0.290 Ca 
HETATM    2  O   UNL     2     -11.308  16.298  63.990  1.00  0.00    -1.311 OA 
HETATM    3  O   UNL     3      -8.126   7.376  70.101  1.00  0.00    -0.125 OA 
HETATM    4  H   UNL     2     -11.357  15.988  63.093  1.00  0.00     0.000 HD 
HETATM    5  C   UNL     2     -11.344  15.175  64.869  1.00  0.00    -0.399 C  
HETATM    6  C   UNL     3      -8.714   7.576  68.818  1.00  0.00    -0.128 C  
HETATM    7  H   UNL     3      -8.339   6.510  70.428  1.00  0.00     0.000 HD 
ENDROOT
BRANCH   5   8
HETATM    8  C   UNL     2     -11.264  15.679  66.326  1.00  0.00    -0.033 C  
HETATM    9  O   UNL     2     -10.917  14.576  67.156  1.00  0.00    -0.290 OA 
HETATM   10  H   UNL     2     -10.868  14.886  68.053  1.00  0.00     0.000 HD 
BRANCH   8  11
HETATM   11  C   UNL     2     -10.179  16.756  66.486  1.00  0.00    -0.316 C  
HETATM   12  H   UNL     2      -8.387  17.217  65.701  1.00  0.00     0.000 HD 
HETATM   13  O   UNL     2      -9.058  16.551  65.603  1.00  0.00    -0.466 OA 
BRANCH  11  14
HETATM   14  C   UNL     2     -10.576  18.252  66.451  1.00  0.00    -0.293 C  
HETATM   15  O   UNL     2     -10.726  18.684  65.108  1.00  0.00    -0.492 OA 
HETATM   16  H   UNL     2     -10.969  19.602  65.087  1.00  0.00     0.000 HD 
BRANCH  14  17
HETATM   17  C   UNL     2      -9.808  19.225  67.366  1.00  0.00    -0.336 C  
HETATM   18  H   UNL     2      -9.598  19.436  69.296  1.00  0.00     0.000 HD 
HETATM   19  O   UNL     2     -10.072  18.835  68.732  1.00  0.00    -0.386 OA 
BRANCH  17  20
HETATM   20  C   UNL     2      -8.310  19.358  67.094  1.00  0.00    -0.287 C  
HETATM   21  O   UNL     2      -7.898  20.743  67.068  1.00  0.00    -0.502 OA 
HETATM   22  C   UNL     2      -7.559  18.614  68.234  1.00  0.00    -0.284 C  
HETATM   23  H   UNL     2      -6.967  20.826  66.898  1.00  0.00     0.000 HD 
HETATM   24  O   UNL     2      -8.098  17.531  68.586  1.00  0.00    -0.267 OA 
HETATM   25  O   UNL     2      -6.539  19.228  68.645  1.00  0.00    -0.247 OA 
ENDBRANCH  17  20
ENDBRANCH  14  17
ENDBRANCH  11  14
ENDBRANCH   8  11
ENDBRANCH   5   8
BRANCH   6  26
HETATM   26  C   UNL     3      -8.369   8.975  68.289  1.00  0.00    -0.121 C  
HETATM   27  H   UNL     3      -8.791   9.958  66.696  1.00  0.00     0.000 HD 
HETATM   28  O   UNL     3      -9.004   9.092  67.023  1.00  0.00    -0.124 OA 
BRANCH  26  29
HETATM   29  C   UNL     3      -8.773  10.096  69.283  1.00  0.00    -0.179 C  
HETATM   30  O   UNL     3      -7.767  10.151  70.389  1.00  0.00    -0.377 OA 
HETATM   31  H   UNL     3      -8.015  10.837  70.997  1.00  0.00     0.000 HD 
BRANCH  29  32
HETATM   32  C   UNL     3      -8.698  11.522  68.696  1.00  0.00    -0.103 C  
HETATM   33  H   UNL     3     -10.026  12.834  68.067  1.00  0.00     0.000 HD 
HETATM   34  O   UNL     3     -10.072  11.956  68.428  1.00  0.00    -0.198 OA 
BRANCH  32  35
HETATM   35  C   UNL     3      -7.661  12.001  67.670  1.00  0.00    -0.136 C  
HETATM   36  H   UNL     3      -7.557  12.003  65.738  1.00  0.00     0.000 HD 
HETATM   37  O   UNL     3      -8.198  11.706  66.374  1.00  0.00    -0.146 OA 
BRANCH  35  38
HETATM   38  C   UNL     3      -7.198  13.449  67.788  1.00  0.00    -0.154 C  
HETATM   39  C   UNL     3      -6.214  13.613  68.976  1.00  0.00    -0.097 C  
HETATM   40  O   UNL     3      -8.318  14.333  67.994  1.00  0.00    -0.138 OA 
HETATM   41  O   UNL     3      -5.893  12.545  69.586  1.00  0.00    -0.094 OA 
HETATM   42  O   UNL     3      -6.042  14.812  69.330  1.00  0.00    -0.099 OA 
HETATM   43  H   UNL     3      -8.029  15.235  68.067  1.00  0.00     0.000 HD 
ENDBRANCH  35  38
ENDBRANCH  32  35
ENDBRANCH  29  32
ENDBRANCH  26  29
ENDBRANCH   6  26
TORSDOF 10
ENDMDL
MODEL      333
REMARK 921   NORMALIZED FREE ENERGY PREDICTED BY IDOCK:   -4.55 KCAL/MOL
REMARK 922        TOTAL FREE ENERGY PREDICTED BY IDOCK:   -9.71 KCAL/MOL
REMARK 923 INTER-LIGAND FREE ENERGY PREDICTED BY IDOCK:   -7.11 KCAL/MOL
REMARK 924 INTRA-LIGAND FREE ENERGY PREDICTED BY IDOCK:   -2.60 KCAL/MOL
REMARK 927      BINDING AFFINITY PREDICTED BY RF-SCORE:    0.00 PKD
ROOT
HETATM    1 CA   UNL     1     -11.395  10.228  71.441  1.00  0.00    -0.294 Ca 
HETATM    2  O   UNL     2      -7.111   7.987  74.530  1.00  0.00    -0.136 OA 
HETATM    3  O   UNL     3     -12.215  14.030  66.498  1.00  0.00    -0.447 OA 
HETATM    4  H   UNL     2      -7.133   8.530  75.310  1.00  0.00     0.000 HD 
HETATM    5  C   UNL     2      -8.091   8.463  73.610  1.00  0.00    -0.111 C  
HETATM    6  C   UNL     3     -12.190  14.044  67.923  1.00  0.00    -0.153 C  
HETATM    7  H   UNL     3     -13.017  14.427  66.181  1.00  0.00     0.000 HD 
ENDROOT
BRANCH   5   8
HETATM    8  C   UNL     2      -8.056   7.582  72.343  1.00  0.00    -0.103 C  
HETATM    9  O   UNL     2      -6.852   6.822  72.367  1.00  0.00    -0.062 OA 
HETATM   10  H   UNL     2      -6.831   6.279  71.587  1.00  0.00     0.000 HD 
BRANCH   8  11
HETATM   11  C   UNL     2      -9.239   6.600  72.313  1.00  0.00    -0.136 C  
HETATM   12  H   UNL     2     -10.027   5.155  73.465  1.00  0.00     0.000 HD 
HETATM   13  O   UNL     2      -9.296   5.762  73.484  1.00  0.00    -0.135 OA 
BRANCH  11  14
HETATM   14  C   UNL     2     -10.662   7.128  72.006  1.00  0.00    -0.214 C  
HETATM   15  O   UNL     2     -11.362   7.371  73.216  1.00  0.00    -0.591 OA 
HETATM   16  H   UNL     2     -12.235   7.694  73.028  1.00  0.00     0.000 HD 
BRANCH  14  17
HETATM   17  C   UNL     2     -11.479   6.410  70.914  1.00  0.00    -0.344 C  
HETATM   18  H   UNL     2     -13.368   6.331  70.426  1.00  0.00     0.000 HD 
HETATM   19  O   UNL     2     -12.865   6.774  71.099  1.00  0.00    -0.312 OA 
BRANCH  17  20
HETATM   20  C   UNL     2     -11.019   6.641  69.475  1.00  0.00    -0.313 C  
HETATM   21  O   UNL     2     -10.503   7.977  69.292  1.00  0.00    -0.219 OA 
HETATM   22  C   UNL     2      -9.901   5.605  69.169  1.00  0.00    -0.162 C  
HETATM   23  H   UNL     2     -10.218   8.121  68.397  1.00  0.00     0.000 HD 
HETATM   24  O   UNL     2     -10.115   4.458  69.645  1.00  0.00    -0.202 OA 
HETATM   25  O   UNL     2      -8.940   6.086  68.512  1.00  0.00    -0.116 OA 
ENDBRANCH  17  20
ENDBRANCH  14  17
ENDBRANCH  11  14
ENDBRANCH   8  11
ENDBRANCH   5   8
BRANCH   6  26
HETATM   26  C   UNL     3     -10.893  13.401  68.437  1.00  0.00    -0.264 C  
HETATM   27  H   UNL     3     -10.066  13.222  70.159  1.00  0.00     0.000 HD 
HETATM   28  O   UNL     3     -10.868  13.620  69.841  1.00  0.00     0.136 OA 
BRANCH  26  29
HETATM   29  C   UNL     3     -10.785  11.903  68.047  1.00  0.00    -0.209 C  
HETATM   30  O   UNL     3     -12.134  11.409  67.634  1.00  0.00    -0.630 OA 
HETATM   31  H   UNL     3     -12.067  10.492  67.396  1.00  0.00     0.000 HD 
BRANCH  29  32
HETATM   32  C   UNL     3      -9.934  11.636  66.787  1.00  0.00    -0.204 C  
HETATM   33  H   UNL     3      -8.671  12.701  65.714  1.00  0.00     0.000 HD 
HETATM   34  O   UNL     3      -9.195  12.865  66.489  1.00  0.00    -0.235 OA 
BRANCH  32  35
HETATM   35  C   UNL     3     -10.408  10.856  65.550  1.00  0.00    -0.252 C  
HETATM   36  H   UNL     3     -11.432  11.300  63.971  1.00  0.00     0.000 HD 
HETATM   37  O   UNL     3     -11.139  11.782  64.736  1.00  0.00    -0.309 OA 
BRANCH  35  38
HETATM   38  C   UNL     3      -9.339  10.109  64.760  1.00  0.00    -0.268 C  
HETATM   39  C   UNL     3      -9.111   8.694  65.351  1.00  0.00    -0.090 C  
HETATM   40  O   UNL     3      -8.087  10.824  64.783  1.00  0.00    -0.348 OA 
HETATM   41  O   UNL     3      -9.878   8.358  66.308  1.00  0.00    -0.245 OA 
HETATM   42  O   UNL     3      -8.041   8.148  64.963  1.00  0.00    -0.140 OA 
HETATM   43  H   UNL     3      -7.421  10.359  64.291  1.00  0.00     0.000 HD 
ENDBRANCH  35  38
ENDBRANCH  32  35
ENDBRANCH  29  32
ENDBRANCH  26  29
ENDBRANCH   6  26
TORSDOF 10
ENDMDL
MODEL      334
REMARK 921   NORMALIZED FREE ENERGY PREDICTED BY IDOCK:   -4.54 KCAL/MOL
REMARK 922        TOTAL FREE ENERGY PREDICTED BY IDOCK:   -9.69 KCAL/MOL
REMARK 923 INTER-LIGAND FREE ENERGY PREDICTED BY IDOCK:   -7.00 KCAL/MOL
REMARK 924 INTRA-LIGAND FREE ENERGY PREDICTED BY IDOCK:   -2.69 KCAL/MOL
REMARK 927      BINDING AFFINITY PREDICTED BY RF-SCORE:    0.00 PKD
ROOT
HETATM    1 CA   UNL     1      -9.685  10.141  71.181  1.00  0.00    -0.261 Ca 
HETATM    2  O   UNL     2     -13.214  14.594  70.380  1.00  0.00    -0.560 OA 
HETATM    3  O   UNL     3      -9.148   4.122  69.437  1.00  0.00    -0.102 OA 
HETATM    4  H   UNL     2     -13.694  14.608  71.200  1.00  0.00     0.000 HD 
HETATM    5  C   UNL     2     -12.321  13.481  70.387  1.00  0.00    -0.327 C  
HETATM    6  C   UNL     3      -9.633   4.935  70.502  1.00  0.00    -0.184 C  
HETATM    7  H   UNL     3      -8.562   3.456  69.774  1.00  0.00     0.000 HD 
ENDROOT
BRANCH   5   8
HETATM    8  C   UNL     2     -11.541  13.459  69.056  1.00  0.00    -0.312 C  
HETATM    9  O   UNL     2     -10.357  14.231  69.224  1.00  0.00    -0.387 OA 
HETATM   10  H   UNL     2      -9.876  14.217  68.405  1.00  0.00     0.000 HD 
BRANCH   8  11
HETATM   11  C   UNL     2     -11.126  12.028  68.676  1.00  0.00    -0.250 C  
HETATM   12  H   UNL     2     -11.988  10.328  68.040  1.00  0.00     0.000 HD 
HETATM   13  O   UNL     2     -12.245  11.212  68.275  1.00  0.00    -0.613 OA 
BRANCH  11  14
HETATM   14  C   UNL     2      -9.964  11.809  67.675  1.00  0.00    -0.194 C  
HETATM   15  O   UNL     2     -10.381  10.947  66.628  1.00  0.00    -0.223 OA 
HETATM   16  H   UNL     2      -9.668  10.813  66.014  1.00  0.00     0.000 HD 
BRANCH  14  17
HETATM   17  C   UNL     2      -8.565  11.511  68.246  1.00  0.00    -0.161 C  
HETATM   18  H   UNL     2      -7.830  10.205  69.499  1.00  0.00     0.000 HD 
HETATM   19  O   UNL     2      -8.694  10.388  69.147  1.00  0.00    -0.154 OA 
BRANCH  17  20
HETATM   20  C   UNL     2      -7.456  11.290  67.219  1.00  0.00    -0.126 C  
HETATM   21  O   UNL     2      -7.839  11.776  65.913  1.00  0.00    -0.302 OA 
HETATM   22  C   UNL     2      -6.200  12.061  67.713  1.00  0.00    -0.081 C  
HETATM   23  H   UNL     2      -7.150  11.638  65.275  1.00  0.00     0.000 HD 
HETATM   24  O   UNL     2      -6.006  11.991  68.956  1.00  0.00    -0.060 OA 
HETATM   25  O   UNL     2      -5.584  12.659  66.790  1.00  0.00    -0.256 OA 
ENDBRANCH  17  20
ENDBRANCH  14  17
ENDBRANCH  11  14
ENDBRANCH   8  11
ENDBRANCH   5   8
BRANCH   6  26
HETATM   26  C   UNL     3     -10.582   6.012  69.957  1.00  0.00    -0.274 C  
HETATM   27  H   UNL     3     -10.849   7.880  70.310  1.00  0.00     0.000 HD 
HETATM   28  O   UNL     3     -10.262   7.213  70.647  1.00  0.00    -0.195 OA 
BRANCH  26  29
HETATM   29  C   UNL     3     -10.491   6.150  68.414  1.00  0.00    -0.231 C  
HETATM   30  O   UNL     3     -11.838   6.520  67.879  1.00  0.00    -0.323 OA 
HETATM   31  H   UNL     3     -11.782   6.603  66.934  1.00  0.00     0.000 HD 
BRANCH  29  32
HETATM   32  C   UNL     3      -9.610   7.322  67.932  1.00  0.00    -0.139 C  
HETATM   33  H   UNL     3      -9.957   9.042  67.036  1.00  0.00     0.000 HD 
HETATM   34  O   UNL     3     -10.500   8.320  67.332  1.00  0.00    -0.260 OA 
BRANCH  32  35
HETATM   35  C   UNL     3      -8.248   7.175  67.235  1.00  0.00    -0.119 C  
HETATM   36  H   UNL     3      -6.574   6.318  67.686  1.00  0.00     0.000 HD 
HETATM   37  O   UNL     3      -7.416   6.409  68.116  1.00  0.00    -0.090 OA 
BRANCH  35  38
HETATM   38  C   UNL     3      -8.260   6.614  65.818  1.00  0.00    -0.135 C  
HETATM   39  C   UNL     3      -7.832   7.700  64.796  1.00  0.00    -0.129 C  
HETATM   40  O   UNL     3      -9.575   6.142  65.462  1.00  0.00    -0.362 OA 
HETATM   41  O   UNL     3      -7.470   8.816  65.286  1.00  0.00    -0.083 OA 
HETATM   42  O   UNL     3      -8.121   7.415  63.601  1.00  0.00    -0.107 OA 
HETATM   43  H   UNL     3      -9.582   5.792  64.578  1.00  0.00     0.000 HD 
ENDBRANCH  35  38
ENDBRANCH  32  35
ENDBRANCH  29  32
ENDBRANCH  26  29
ENDBRANCH   6  26
TORSDOF 10
ENDMDL
MODEL      335
REMARK 921   NORMALIZED FREE ENERGY PREDICTED BY IDOCK:   -4.53 KCAL/MOL
REMARK 922        TOTAL FREE ENERGY PREDICTED BY IDOCK:   -9.67 KCAL/MOL
REMARK 923 INTER-LIGAND FREE ENERGY PREDICTED BY IDOCK:   -8.05 KCAL/MOL
REMARK 924 INTRA-LIGAND FREE ENERGY PREDICTED BY IDOCK:   -1.62 KCAL/MOL
REMARK 927      BINDING AFFINITY PREDICTED BY RF-SCORE:    0.00 PKD
ROOT
HETATM    1 CA   UNL     1      -7.237   5.380  65.068  1.00  0.00    -0.054 Ca 
HETATM    2  O   UNL     2      -6.500  10.807  63.359  1.00  0.00    -0.362 OA 
HETATM    3  O   UNL     3      -9.582   2.211  69.969  1.00  0.00    -0.091 OA 
HETATM    4  H   UNL     2      -5.573  10.936  63.524  1.00  0.00     0.000 HD 
HETATM    5  C   UNL     2      -6.870   9.502  63.800  1.00  0.00    -0.105 C  
HETATM    6  C   UNL     3      -8.351   2.705  69.446  1.00  0.00    -0.055 C  
HETATM    7  H   UNL     3      -9.505   1.286  70.170  1.00  0.00     0.000 HD 
ENDROOT
BRANCH   5   8
HETATM    8  C   UNL     2      -8.376   9.293  63.532  1.00  0.00    -0.185 C  
HETATM    9  O   UNL     2      -8.620   7.892  63.451  1.00  0.00    -0.386 OA 
HETATM   10  H   UNL     2      -9.547   7.763  63.286  1.00  0.00     0.000 HD 
BRANCH   8  11
HETATM   11  C   UNL     2      -9.231   9.860  64.676  1.00  0.00    -0.258 C  
HETATM   12  H   UNL     2      -8.965  10.781  66.442  1.00  0.00     0.000 HD 
HETATM   13  O   UNL     2      -8.436  10.430  65.735  1.00  0.00    -0.153 OA 
BRANCH  11  14
HETATM   14  C   UNL     2     -10.398  10.826  64.352  1.00  0.00    -0.335 C  
HETATM   15  O   UNL     2     -10.518  10.989  62.948  1.00  0.00    -0.746 OA 
HETATM   16  H   UNL     2     -11.234  11.581  62.750  1.00  0.00     0.000 HD 
BRANCH  14  17
HETATM   17  C   UNL     2     -10.508  12.126  65.170  1.00  0.00    -0.281 C  
HETATM   18  H   UNL     2     -10.271  14.027  64.788  1.00  0.00     0.000 HD 
HETATM   19  O   UNL     2     -10.203  13.225  64.283  1.00  0.00    -0.396 OA 
BRANCH  17  20
HETATM   20  C   UNL     2     -11.828  12.343  65.908  1.00  0.00    -0.405 C  
HETATM   21  O   UNL     2     -11.627  13.030  67.163  1.00  0.00    -0.318 OA 
HETATM   22  C   UNL     2     -12.743  13.199  64.988  1.00  0.00    -0.392 C  
HETATM   23  H   UNL     2     -12.448  13.165  67.622  1.00  0.00     0.000 HD 
HETATM   24  O   UNL     2     -12.683  12.891  63.768  1.00  0.00    -0.685 OA 
HETATM   25  O   UNL     2     -13.386  14.088  65.608  1.00  0.00    -0.636 OA 
ENDBRANCH  17  20
ENDBRANCH  14  17
ENDBRANCH  11  14
ENDBRANCH   8  11
ENDBRANCH   5   8
BRANCH   6  26
HETATM   26  C   UNL     3      -8.476   4.200  69.120  1.00  0.00    -0.077 C  
HETATM   27  H   UNL     3      -8.807   5.210  67.523  1.00  0.00     0.000 HD 
HETATM   28  O   UNL     3      -8.730   4.285  67.724  1.00  0.00    -0.102 OA 
BRANCH  26  29
HETATM   29  C   UNL     3      -9.556   4.902  69.985  1.00  0.00    -0.191 C  
HETATM   30  O   UNL     3      -9.340   4.542  71.420  1.00  0.00    -0.133 OA 
HETATM   31  H   UNL     3     -10.002   4.972  71.949  1.00  0.00     0.000 HD 
BRANCH  29  32
HETATM   32  C   UNL     3      -9.445   6.442  70.010  1.00  0.00    -0.156 C  
HETATM   33  H   UNL     3      -8.945   7.774  71.372  1.00  0.00     0.000 HD 
HETATM   34  O   UNL     3      -9.013   6.827  71.356  1.00  0.00    -0.142 OA 
BRANCH  32  35
HETATM   35  C   UNL     3     -10.442   7.410  69.354  1.00  0.00    -0.217 C  
HETATM   36  H   UNL     3     -12.357   7.417  69.086  1.00  0.00     0.000 HD 
HETATM   37  O   UNL     3     -11.741   6.819  69.491  1.00  0.00    -0.187 OA 
BRANCH  35  38
HETATM   38  C   UNL     3     -10.411   8.856  69.836  1.00  0.00    -0.206 C  
HETATM   39  C   UNL     3     -10.721   9.829  68.668  1.00  0.00    -0.216 C  
HETATM   40  O   UNL     3      -9.119   9.190  70.381  1.00  0.00    -0.192 OA 
HETATM   41  O   UNL     3     -11.025   9.289  67.558  1.00  0.00    -0.199 OA 
HETATM   42  O   UNL     3     -10.404  11.027  68.907  1.00  0.00    -0.192 OA 
HETATM   43  H   UNL     3      -9.099  10.092  70.681  1.00  0.00     0.000 HD 
ENDBRANCH  35  38
ENDBRANCH  32  35
ENDBRANCH  29  32
ENDBRANCH  26  29
ENDBRANCH   6  26
TORSDOF 10
ENDMDL
MODEL      336
REMARK 921   NORMALIZED FREE ENERGY PREDICTED BY IDOCK:   -4.53 KCAL/MOL
REMARK 922        TOTAL FREE ENERGY PREDICTED BY IDOCK:   -9.67 KCAL/MOL
REMARK 923 INTER-LIGAND FREE ENERGY PREDICTED BY IDOCK:   -7.78 KCAL/MOL
REMARK 924 INTRA-LIGAND FREE ENERGY PREDICTED BY IDOCK:   -1.90 KCAL/MOL
REMARK 927      BINDING AFFINITY PREDICTED BY RF-SCORE:    0.00 PKD
ROOT
HETATM    1 CA   UNL     1      -7.132  13.231  69.481  1.00  0.00    -0.106 Ca 
HETATM    2  O   UNL     2     -10.418  17.858  68.635  1.00  0.00    -0.349 OA 
HETATM    3  O   UNL     3      -7.446   6.986  68.810  1.00  0.00    -0.094 OA 
HETATM    4  H   UNL     2     -10.695  18.061  69.521  1.00  0.00     0.000 HD 
HETATM    5  C   UNL     2      -9.630  16.669  68.659  1.00  0.00    -0.248 C  
HETATM    6  C   UNL     3      -7.614   8.012  69.784  1.00  0.00    -0.092 C  
HETATM    7  H   UNL     3      -6.847   6.322  69.132  1.00  0.00     0.000 HD 
ENDROOT
BRANCH   5   8
HETATM    8  C   UNL     2      -9.179  16.340  67.220  1.00  0.00    -0.208 C  
HETATM    9  O   UNL     2      -8.026  15.509  67.297  1.00  0.00    -0.167 OA 
HETATM   10  H   UNL     2      -7.748  15.306  66.411  1.00  0.00     0.000 HD 
BRANCH   8  11
HETATM   11  C   UNL     2     -10.269  15.572  66.455  1.00  0.00    -0.289 C  
HETATM   12  H   UNL     2     -11.544  15.882  64.933  1.00  0.00     0.000 HD 
HETATM   13  O   UNL     2     -10.870  16.357  65.406  1.00  0.00    -0.333 OA 
BRANCH  11  14
HETATM   14  C   UNL     2      -9.966  14.155  65.908  1.00  0.00    -0.311 C  
HETATM   15  O   UNL     2      -9.856  14.194  64.494  1.00  0.00    -0.634 OA 
HETATM   16  H   UNL     2      -9.670  13.324  64.159  1.00  0.00     0.000 HD 
BRANCH  14  17
HETATM   17  C   UNL     2     -10.782  12.975  66.466  1.00  0.00    -0.278 C  
HETATM   18  H   UNL     2     -11.505  11.318  65.726  1.00  0.00     0.000 HD 
HETATM   19  O   UNL     2     -11.001  12.046  65.381  1.00  0.00    -0.284 OA 
BRANCH  17  20
HETATM   20  C   UNL     2     -10.200  12.281  67.698  1.00  0.00    -0.203 C  
HETATM   21  O   UNL     2      -9.483  13.211  68.539  1.00  0.00    -0.327 OA 
HETATM   22  C   UNL     2     -11.387  11.668  68.494  1.00  0.00    -0.274 C  
HETATM   23  H   UNL     2      -9.121  12.780  69.304  1.00  0.00     0.000 HD 
HETATM   24  O   UNL     2     -12.279  11.149  67.772  1.00  0.00    -0.432 OA 
HETATM   25  O   UNL     2     -11.280  11.811  69.741  1.00  0.00    -0.202 OA 
ENDBRANCH  17  20
ENDBRANCH  14  17
ENDBRANCH  11  14
ENDBRANCH   8  11
ENDBRANCH   5   8
BRANCH   6  26
HETATM   26  C   UNL     3      -8.581   9.084  69.263  1.00  0.00    -0.136 C  
HETATM   27  H   UNL     3      -8.687  10.145  67.667  1.00  0.00     0.000 HD 
HETATM   28  O   UNL     3      -8.089   9.482  67.990  1.00  0.00    -0.101 OA 
BRANCH  26  29
HETATM   29  C   UNL     3     -10.049   8.583  69.223  1.00  0.00    -0.202 C  
HETATM   30  O   UNL     3     -10.232   7.708  68.024  1.00  0.00    -0.186 OA 
HETATM   31  H   UNL     3     -11.131   7.402  68.000  1.00  0.00     0.000 HD 
BRANCH  29  32
HETATM   32  C   UNL     3     -10.428   7.637  70.383  1.00  0.00    -0.220 C  
HETATM   33  H   UNL     3     -11.353   5.903  70.513  1.00  0.00     0.000 HD 
HETATM   34  O   UNL     3     -11.120   6.485  69.799  1.00  0.00    -0.301 OA 
BRANCH  32  35
HETATM   35  C   UNL     3     -10.970   8.088  71.748  1.00  0.00    -0.251 C  
HETATM   36  H   UNL     3     -12.696   8.663  72.406  1.00  0.00     0.000 HD 
HETATM   37  O   UNL     3     -12.360   8.385  71.561  1.00  0.00    -0.295 OA 
BRANCH  35  38
HETATM   38  C   UNL     3     -10.733   7.146  72.924  1.00  0.00    -0.302 C  
HETATM   39  C   UNL     3      -9.429   7.525  73.673  1.00  0.00    -0.284 C  
HETATM   40  O   UNL     3     -10.626   5.780  72.477  1.00  0.00    -0.201 OA 
HETATM   41  O   UNL     3      -8.832   8.569  73.261  1.00  0.00    -0.308 OA 
HETATM   42  O   UNL     3      -9.004   6.619  74.442  1.00  0.00    -0.157 OA 
HETATM   43  H   UNL     3     -10.478   5.194  73.210  1.00  0.00     0.000 HD 
ENDBRANCH  35  38
ENDBRANCH  32  35
ENDBRANCH  29  32
ENDBRANCH  26  29
ENDBRANCH   6  26
TORSDOF 10
ENDMDL
MODEL      337
REMARK 921   NORMALIZED FREE ENERGY PREDICTED BY IDOCK:   -4.52 KCAL/MOL
REMARK 922        TOTAL FREE ENERGY PREDICTED BY IDOCK:   -9.66 KCAL/MOL
REMARK 923 INTER-LIGAND FREE ENERGY PREDICTED BY IDOCK:   -6.84 KCAL/MOL
REMARK 924 INTRA-LIGAND FREE ENERGY PREDICTED BY IDOCK:   -2.82 KCAL/MOL
REMARK 927      BINDING AFFINITY PREDICTED BY RF-SCORE:    0.00 PKD
ROOT
HETATM    1 CA   UNL     1     -11.001  10.015  63.745  1.00  0.00    -0.316 Ca 
HETATM    2  O   UNL     2     -11.937  15.668  64.060  1.00  0.00    -0.926 OA 
HETATM    3  O   UNL     3      -6.822   5.766  65.753  1.00  0.00    -0.057 OA 
HETATM    4  H   UNL     2     -11.654  15.957  63.200  1.00  0.00     0.000 HD 
HETATM    5  C   UNL     2     -11.704  14.265  64.174  1.00  0.00    -0.256 C  
HETATM    6  C   UNL     3      -7.138   6.569  64.619  1.00  0.00    -0.060 C  
HETATM    7  H   UNL     3      -6.728   4.857  65.495  1.00  0.00     0.000 HD 
ENDROOT
BRANCH   5   8
HETATM    8  C   UNL     2     -12.165  13.794  65.571  1.00  0.00    -0.442 C  
HETATM    9  O   UNL     2     -12.755  12.507  65.431  1.00  0.00    -0.624 OA 
HETATM   10  H   UNL     2     -13.039  12.217  66.290  1.00  0.00     0.000 HD 
BRANCH   8  11
HETATM   11  C   UNL     2     -10.976  13.671  66.538  1.00  0.00    -0.295 C  
HETATM   12  H   UNL     2     -10.233  12.342  67.848  1.00  0.00     0.000 HD 
HETATM   13  O   UNL     2     -10.967  12.418  67.250  1.00  0.00    -0.241 OA 
BRANCH  11  14
HETATM   14  C   UNL     2      -9.543  13.968  66.031  1.00  0.00    -0.205 C  
HETATM   15  O   UNL     2      -8.907  12.762  65.640  1.00  0.00    -0.150 OA 
HETATM   16  H   UNL     2      -8.027  12.944  65.329  1.00  0.00     0.000 HD 
BRANCH  14  17
HETATM   17  C   UNL     2      -8.669  14.928  66.859  1.00  0.00    -0.248 C  
HETATM   18  H   UNL     2      -8.984  16.580  67.853  1.00  0.00     0.000 HD 
HETATM   19  O   UNL     2      -9.524  15.987  67.342  1.00  0.00    -0.217 OA 
BRANCH  17  20
HETATM   20  C   UNL     2      -7.861  14.291  67.989  1.00  0.00    -0.143 C  
HETATM   21  O   UNL     2      -8.231  12.909  68.191  1.00  0.00    -0.148 OA 
HETATM   22  C   UNL     2      -6.359  14.376  67.597  1.00  0.00    -0.106 C  
HETATM   23  H   UNL     2      -7.729  12.514  68.893  1.00  0.00     0.000 HD 
HETATM   24  O   UNL     2      -6.030  15.460  67.045  1.00  0.00    -0.238 OA 
HETATM   25  O   UNL     2      -5.710  13.331  67.871  1.00  0.00    -0.109 OA 
ENDBRANCH  17  20
ENDBRANCH  14  17
ENDBRANCH  11  14
ENDBRANCH   8  11
ENDBRANCH   5   8
BRANCH   6  26
HETATM   26  C   UNL     3      -7.290   8.038  65.036  1.00  0.00    -0.079 C  
HETATM   27  H   UNL     3      -6.995   9.725  64.169  1.00  0.00     0.000 HD 
HETATM   28  O   UNL     3      -6.901   8.816  63.911  1.00  0.00    -0.086 OA 
BRANCH  26  29
HETATM   29  C   UNL     3      -8.722   8.362  65.540  1.00  0.00    -0.162 C  
HETATM   30  O   UNL     3      -9.446   7.081  65.803  1.00  0.00    -0.391 OA 
HETATM   31  H   UNL     3     -10.322   7.279  66.111  1.00  0.00     0.000 HD 
BRANCH  29  32
HETATM   32  C   UNL     3      -8.767   9.057  66.917  1.00  0.00    -0.123 C  
HETATM   33  H   UNL     3      -8.278  10.844  67.586  1.00  0.00     0.000 HD 
HETATM   34  O   UNL     3      -8.249  10.416  66.738  1.00  0.00    -0.122 OA 
BRANCH  32  35
HETATM   35  C   UNL     3      -8.391   8.397  68.253  1.00  0.00    -0.131 C  
HETATM   36  H   UNL     3      -7.245   6.928  68.770  1.00  0.00     0.000 HD 
HETATM   37  O   UNL     3      -7.478   7.336  67.944  1.00  0.00    -0.097 OA 
BRANCH  35  38
HETATM   38  C   UNL     3      -7.860   9.318  69.346  1.00  0.00    -0.083 C  
HETATM   39  C   UNL     3      -7.864   8.595  70.719  1.00  0.00    -0.107 C  
HETATM   40  O   UNL     3      -8.663  10.510  69.452  1.00  0.00    -0.272 OA 
HETATM   41  O   UNL     3      -8.214   7.373  70.705  1.00  0.00    -0.109 OA 
HETATM   42  O   UNL     3      -7.747   9.376  71.704  1.00  0.00    -0.294 OA 
HETATM   43  H   UNL     3      -8.332  11.083  70.133  1.00  0.00     0.000 HD 
ENDBRANCH  35  38
ENDBRANCH  32  35
ENDBRANCH  29  32
ENDBRANCH  26  29
ENDBRANCH   6  26
TORSDOF 10
ENDMDL
MODEL      338
REMARK 921   NORMALIZED FREE ENERGY PREDICTED BY IDOCK:   -4.50 KCAL/MOL
REMARK 922        TOTAL FREE ENERGY PREDICTED BY IDOCK:   -9.64 KCAL/MOL
REMARK 923 INTER-LIGAND FREE ENERGY PREDICTED BY IDOCK:   -7.98 KCAL/MOL
REMARK 924 INTRA-LIGAND FREE ENERGY PREDICTED BY IDOCK:   -1.65 KCAL/MOL
REMARK 927      BINDING AFFINITY PREDICTED BY RF-SCORE:    0.00 PKD
ROOT
HETATM    1 CA   UNL     1     -13.788  10.242  69.695  1.00  0.00    -0.542 Ca 
HETATM    2  O   UNL     2     -11.044   7.390  73.849  1.00  0.00    -0.488 OA 
HETATM    3  O   UNL     3     -12.466  13.418  64.430  1.00  0.00    -0.568 OA 
HETATM    4  H   UNL     2     -11.064   8.020  74.560  1.00  0.00     0.000 HD 
HETATM    5  C   UNL     2     -11.639   7.979  72.694  1.00  0.00    -0.387 C  
HETATM    6  C   UNL     3     -12.725  13.618  65.816  1.00  0.00    -0.416 C  
HETATM    7  H   UNL     3     -13.038  13.966  63.906  1.00  0.00     0.000 HD 
ENDROOT
BRANCH   5   8
HETATM    8  C   UNL     2     -11.605   6.956  71.538  1.00  0.00    -0.290 C  
HETATM    9  O   UNL     2     -12.763   7.158  70.735  1.00  0.00    -0.593 OA 
HETATM   10  H   UNL     2     -12.742   6.528  70.023  1.00  0.00     0.000 HD 
BRANCH   8  11
HETATM   11  C   UNL     2     -10.367   7.157  70.650  1.00  0.00    -0.204 C  
HETATM   12  H   UNL     2      -9.036   8.601  70.226  1.00  0.00     0.000 HD 
HETATM   13  O   UNL     2      -9.801   8.477  70.775  1.00  0.00    -0.170 OA 
BRANCH  11  14
HETATM   14  C   UNL     2      -9.220   6.117  70.690  1.00  0.00    -0.154 C  
HETATM   15  O   UNL     2      -9.636   4.911  70.069  1.00  0.00    -0.155 OA 
HETATM   16  H   UNL     2      -8.932   4.273  70.093  1.00  0.00     0.000 HD 
BRANCH  14  17
HETATM   17  C   UNL     2      -8.453   5.937  72.014  1.00  0.00    -0.125 C  
HETATM   18  H   UNL     2      -7.990   4.417  73.150  1.00  0.00     0.000 HD 
HETATM   19  O   UNL     2      -8.463   4.528  72.333  1.00  0.00    -0.108 OA 
BRANCH  17  20
HETATM   20  C   UNL     2      -7.040   6.517  72.052  1.00  0.00    -0.081 C  
HETATM   21  O   UNL     2      -6.465   6.598  70.729  1.00  0.00    -0.048 OA 
HETATM   22  C   UNL     2      -7.135   7.942  72.666  1.00  0.00    -0.083 C  
HETATM   23  H   UNL     2      -5.586   6.958  70.753  1.00  0.00     0.000 HD 
HETATM   24  O   UNL     2      -7.941   8.036  73.630  1.00  0.00    -0.162 OA 
HETATM   25  O   UNL     2      -6.406   8.788  72.083  1.00  0.00    -0.076 OA 
ENDBRANCH  17  20
ENDBRANCH  14  17
ENDBRANCH  11  14
ENDBRANCH   8  11
ENDBRANCH   5   8
BRANCH   6  26
HETATM   26  C   UNL     3     -11.800  12.731  66.662  1.00  0.00    -0.393 C  
HETATM   27  H   UNL     3     -10.400  11.478  66.268  1.00  0.00     0.000 HD 
HETATM   28  O   UNL     3     -10.973  12.027  65.745  1.00  0.00    -0.286 OA 
BRANCH  26  29
HETATM   29  C   UNL     3     -10.997  13.549  67.708  1.00  0.00    -0.266 C  
HETATM   30  O   UNL     3     -10.619  12.649  68.841  1.00  0.00    -0.351 OA 
HETATM   31  H   UNL     3     -10.127  13.150  69.482  1.00  0.00     0.000 HD 
BRANCH  29  32
HETATM   32  C   UNL     3      -9.624  14.046  67.207  1.00  0.00    -0.238 C  
HETATM   33  H   UNL     3      -7.765  13.427  67.414  1.00  0.00     0.000 HD 
HETATM   34  O   UNL     3      -8.610  13.121  67.723  1.00  0.00    -0.163 OA 
BRANCH  32  35
HETATM   35  C   UNL     3      -9.183  15.517  67.152  1.00  0.00    -0.214 C  
HETATM   36  H   UNL     3      -9.943  17.139  66.425  1.00  0.00     0.000 HD 
HETATM   37  O   UNL     3     -10.215  16.230  66.459  1.00  0.00    -0.280 OA 
BRANCH  35  38
HETATM   38  C   UNL     3      -8.818  16.172  68.479  1.00  0.00    -0.200 C  
HETATM   39  C   UNL     3      -7.533  17.028  68.331  1.00  0.00    -0.213 C  
HETATM   40  O   UNL     3      -8.594  15.180  69.500  1.00  0.00    -0.351 OA 
HETATM   41  O   UNL     3      -7.052  17.115  67.158  1.00  0.00    -0.152 OA 
HETATM   42  O   UNL     3      -6.997  17.334  69.432  1.00  0.00    -0.225 OA 
HETATM   43  H   UNL     3      -8.367  15.589  70.328  1.00  0.00     0.000 HD 
ENDBRANCH  35  38
ENDBRANCH  32  35
ENDBRANCH  29  32
ENDBRANCH  26  29
ENDBRANCH   6  26
TORSDOF 10
ENDMDL
MODEL      339
REMARK 921   NORMALIZED FREE ENERGY PREDICTED BY IDOCK:   -4.49 KCAL/MOL
REMARK 922        TOTAL FREE ENERGY PREDICTED BY IDOCK:   -9.61 KCAL/MOL
REMARK 923 INTER-LIGAND FREE ENERGY PREDICTED BY IDOCK:   -7.37 KCAL/MOL
REMARK 924 INTRA-LIGAND FREE ENERGY PREDICTED BY IDOCK:   -2.23 KCAL/MOL
REMARK 927      BINDING AFFINITY PREDICTED BY RF-SCORE:    0.00 PKD
ROOT
HETATM    1 CA   UNL     1     -12.603  12.607  69.211  1.00  0.00    -0.233 Ca 
HETATM    2  O   UNL     2     -11.851  13.832  63.656  1.00  0.00    -0.677 OA 
HETATM    3  O   UNL     3     -11.521   7.894  73.232  1.00  0.00    -0.573 OA 
HETATM    4  H   UNL     2     -12.730  13.714  63.313  1.00  0.00     0.000 HD 
HETATM    5  C   UNL     2     -11.848  13.496  65.043  1.00  0.00    -0.353 C  
HETATM    6  C   UNL     3     -12.546   8.444  72.409  1.00  0.00    -0.316 C  
HETATM    7  H   UNL     3     -11.837   7.787  74.122  1.00  0.00     0.000 HD 
ENDROOT
BRANCH   5   8
HETATM    8  C   UNL     2     -10.422  13.688  65.600  1.00  0.00    -0.299 C  
HETATM    9  O   UNL     2     -10.521  14.382  66.839  1.00  0.00    -0.266 OA 
HETATM   10  H   UNL     2      -9.643  14.501  67.182  1.00  0.00     0.000 HD 
BRANCH   8  11
HETATM   11  C   UNL     2      -9.738  12.337  65.864  1.00  0.00    -0.235 C  
HETATM   12  H   UNL     2      -8.733  11.421  67.343  1.00  0.00     0.000 HD 
HETATM   13  O   UNL     2      -9.156  12.256  67.180  1.00  0.00    -0.180 OA 
BRANCH  11  14
HETATM   14  C   UNL     2     -10.506  11.023  65.576  1.00  0.00    -0.238 C  
HETATM   15  O   UNL     2     -10.588  10.240  66.756  1.00  0.00    -0.231 OA 
HETATM   16  H   UNL     2     -11.059   9.433  66.579  1.00  0.00     0.000 HD 
BRANCH  14  17
HETATM   17  C   UNL     2     -10.145  10.241  64.299  1.00  0.00    -0.121 C  
HETATM   18  H   UNL     2     -10.433  10.506  62.385  1.00  0.00     0.000 HD 
HETATM   19  O   UNL     2     -10.655  10.989  63.173  1.00  0.00    -0.254 OA 
BRANCH  17  20
HETATM   20  C   UNL     2      -8.668   9.889  64.123  1.00  0.00    -0.206 C  
HETATM   21  O   UNL     2      -7.829  11.060  64.235  1.00  0.00    -0.290 OA 
HETATM   22  C   UNL     2      -8.294   8.873  65.238  1.00  0.00    -0.160 C  
HETATM   23  H   UNL     2      -6.911  10.841  64.126  1.00  0.00     0.000 HD 
HETATM   24  O   UNL     2      -9.181   8.009  65.469  1.00  0.00    -0.022 OA 
HETATM   25  O   UNL     2      -7.166   9.090  65.756  1.00  0.00    -0.086 OA 
ENDBRANCH  17  20
ENDBRANCH  14  17
ENDBRANCH  11  14
ENDBRANCH   8  11
ENDBRANCH   5   8
BRANCH   6  26
HETATM   26  C   UNL     3     -12.035   8.617  70.972  1.00  0.00    -0.243 C  
HETATM   27  H   UNL     3     -11.175  10.035  70.006  1.00  0.00     0.000 HD 
HETATM   28  O   UNL     3     -11.492   9.928  70.895  1.00  0.00    -0.318 OA 
BRANCH  26  29
HETATM   29  C   UNL     3     -11.024   7.510  70.570  1.00  0.00    -0.252 C  
HETATM   30  O   UNL     3     -11.690   6.565  69.621  1.00  0.00    -0.621 OA 
HETATM   31  H   UNL     3     -11.071   5.887  69.376  1.00  0.00     0.000 HD 
BRANCH  29  32
HETATM   32  C   UNL     3      -9.823   8.018  69.742  1.00  0.00    -0.183 C  
HETATM   33  H   UNL     3      -9.445   8.208  67.818  1.00  0.00     0.000 HD 
HETATM   34  O   UNL     3     -10.184   7.895  68.328  1.00  0.00    -0.193 OA 
BRANCH  32  35
HETATM   35  C   UNL     3      -8.348   7.727  70.057  1.00  0.00    -0.130 C  
HETATM   36  H   UNL     3      -7.196   6.183  69.874  1.00  0.00     0.000 HD 
HETATM   37  O   UNL     3      -8.109   6.364  69.680  1.00  0.00    -0.119 OA 
BRANCH  35  38
HETATM   38  C   UNL     3      -7.319   8.681  69.460  1.00  0.00    -0.068 C  
HETATM   39  C   UNL     3      -6.561   9.438  70.582  1.00  0.00    -0.087 C  
HETATM   40  O   UNL     3      -7.951   9.648  68.599  1.00  0.00    -0.087 OA 
HETATM   41  O   UNL     3      -6.843   9.098  71.774  1.00  0.00    -0.273 OA 
HETATM   42  O   UNL     3      -5.936  10.456  70.174  1.00  0.00    -0.060 OA 
HETATM   43  H   UNL     3      -7.310  10.242  68.227  1.00  0.00     0.000 HD 
ENDBRANCH  35  38
ENDBRANCH  32  35
ENDBRANCH  29  32
ENDBRANCH  26  29
ENDBRANCH   6  26
TORSDOF 10
ENDMDL
MODEL      340
REMARK 921   NORMALIZED FREE ENERGY PREDICTED BY IDOCK:   -4.49 KCAL/MOL
REMARK 922        TOTAL FREE ENERGY PREDICTED BY IDOCK:   -9.61 KCAL/MOL
REMARK 923 INTER-LIGAND FREE ENERGY PREDICTED BY IDOCK:   -8.30 KCAL/MOL
REMARK 924 INTRA-LIGAND FREE ENERGY PREDICTED BY IDOCK:   -1.31 KCAL/MOL
REMARK 927      BINDING AFFINITY PREDICTED BY RF-SCORE:    0.00 PKD
ROOT
HETATM    1 CA   UNL     1     -12.237  11.018  66.625  1.00  0.00     0.027 Ca 
HETATM    2  O   UNL     2     -11.982  16.066  63.909  1.00  0.00    -1.267 OA 
HETATM    3  O   UNL     3      -8.347   6.556  68.749  1.00  0.00    -0.120 OA 
HETATM    4  H   UNL     2     -12.235  15.821  63.026  1.00  0.00     0.000 HD 
HETATM    5  C   UNL     2     -11.929  14.890  64.715  1.00  0.00    -0.361 C  
HETATM    6  C   UNL     3      -9.163   6.881  67.628  1.00  0.00    -0.119 C  
HETATM    7  H   UNL     3      -8.557   5.686  69.067  1.00  0.00     0.000 HD 
ENDROOT
BRANCH   5   8
HETATM    8  C   UNL     2     -11.518  15.286  66.149  1.00  0.00    -0.083 C  
HETATM    9  O   UNL     2     -11.211  14.095  66.866  1.00  0.00    -0.300 OA 
HETATM   10  H   UNL     2     -10.958  14.340  67.749  1.00  0.00     0.000 HD 
BRANCH   8  11
HETATM   11  C   UNL     2     -10.264  16.176  66.145  1.00  0.00    -0.336 C  
HETATM   12  H   UNL     2      -8.673  16.530  64.970  1.00  0.00     0.000 HD 
HETATM   13  O   UNL     2      -9.448  15.981  64.973  1.00  0.00    -0.053 OA 
BRANCH  11  14
HETATM   14  C   UNL     2     -10.404  17.696  66.408  1.00  0.00    -0.345 C  
HETATM   15  O   UNL     2     -11.081  18.316  65.327  1.00  0.00    -0.431 OA 
HETATM   16  H   UNL     2     -11.167  19.249  65.489  1.00  0.00     0.000 HD 
BRANCH  14  17
HETATM   17  C   UNL     2      -9.168  18.456  66.925  1.00  0.00    -0.287 C  
HETATM   18  H   UNL     2      -8.599  20.325  66.944  1.00  0.00     0.000 HD 
HETATM   19  O   UNL     2      -9.362  19.856  66.625  1.00  0.00    -0.351 OA 
BRANCH  17  20
HETATM   20  C   UNL     2      -8.813  18.236  68.395  1.00  0.00    -0.305 C  
HETATM   21  O   UNL     2      -9.925  17.679  69.130  1.00  0.00    -0.285 OA 
HETATM   22  C   UNL     2      -7.611  17.250  68.444  1.00  0.00    -0.241 C  
HETATM   23  H   UNL     2      -9.704  17.542  70.044  1.00  0.00     0.000 HD 
HETATM   24  O   UNL     2      -6.744  17.449  67.551  1.00  0.00    -0.145 OA 
HETATM   25  O   UNL     2      -7.708  16.388  69.357  1.00  0.00    -0.221 OA 
ENDBRANCH  17  20
ENDBRANCH  14  17
ENDBRANCH  11  14
ENDBRANCH   8  11
ENDBRANCH   5   8
BRANCH   6  26
HETATM   26  C   UNL     3      -8.823   8.287  67.114  1.00  0.00    -0.137 C  
HETATM   27  H   UNL     3      -9.271   9.296  65.544  1.00  0.00     0.000 HD 
HETATM   28  O   UNL     3      -9.481   8.426  65.862  1.00  0.00    -0.188 OA 
BRANCH  26  29
HETATM   29  C   UNL     3      -9.205   9.394  68.133  1.00  0.00    -0.130 C  
HETATM   30  O   UNL     3      -9.623  10.620  67.386  1.00  0.00    -0.156 OA 
HETATM   31  H   UNL     3      -9.856  11.297  68.010  1.00  0.00     0.000 HD 
BRANCH  29  32
HETATM   32  C   UNL     3     -10.460   9.075  68.975  1.00  0.00    -0.218 C  
HETATM   33  H   UNL     3     -12.251   9.876  69.152  1.00  0.00     0.000 HD 
HETATM   34  O   UNL     3     -11.479  10.072  68.634  1.00  0.00    -0.120 OA 
BRANCH  32  35
HETATM   35  C   UNL     3     -10.448   8.648  70.451  1.00  0.00    -0.208 C  
HETATM   36  H   UNL     3      -9.464   9.203  72.021  1.00  0.00     0.000 HD 
HETATM   37  O   UNL     3      -9.471   9.467  71.108  1.00  0.00    -0.242 OA 
BRANCH  35  38
HETATM   38  C   UNL     3     -11.789   8.652  71.176  1.00  0.00    -0.287 C  
HETATM   39  C   UNL     3     -12.540   7.315  70.945  1.00  0.00    -0.193 C  
HETATM   40  O   UNL     3     -12.622   9.733  70.713  1.00  0.00    -0.439 OA 
HETATM   41  O   UNL     3     -11.910   6.428  70.286  1.00  0.00    -0.396 OA 
HETATM   42  O   UNL     3     -13.766   7.364  71.237  1.00  0.00    -0.359 OA 
HETATM   43  H   UNL     3     -13.458   9.736  71.165  1.00  0.00     0.000 HD 
ENDBRANCH  35  38
ENDBRANCH  32  35
ENDBRANCH  29  32
ENDBRANCH  26  29
ENDBRANCH   6  26
TORSDOF 10
ENDMDL
MODEL      341
REMARK 921   NORMALIZED FREE ENERGY PREDICTED BY IDOCK:   -4.48 KCAL/MOL
REMARK 922        TOTAL FREE ENERGY PREDICTED BY IDOCK:   -9.61 KCAL/MOL
REMARK 923 INTER-LIGAND FREE ENERGY PREDICTED BY IDOCK:   -6.43 KCAL/MOL
REMARK 924 INTRA-LIGAND FREE ENERGY PREDICTED BY IDOCK:   -3.18 KCAL/MOL
REMARK 927      BINDING AFFINITY PREDICTED BY RF-SCORE:    0.00 PKD
ROOT
HETATM    1 CA   UNL     1      -6.657   6.428  68.739  1.00  0.00    -0.034 Ca 
HETATM    2  O   UNL     2      -6.009  11.469  66.075  1.00  0.00    -0.440 OA 
HETATM    3  O   UNL     3      -9.344   4.100  73.927  1.00  0.00    -0.099 OA 
HETATM    4  H   UNL     2      -5.111  11.689  66.297  1.00  0.00     0.000 HD 
HETATM    5  C   UNL     2      -6.359  10.249  66.727  1.00  0.00    -0.072 C  
HETATM    6  C   UNL     3      -8.091   4.567  73.434  1.00  0.00    -0.095 C  
HETATM    7  H   UNL     3      -9.244   3.238  74.313  1.00  0.00     0.000 HD 
ENDROOT
BRANCH   5   8
HETATM    8  C   UNL     2      -7.817   9.891  66.367  1.00  0.00    -0.107 C  
HETATM    9  O   UNL     2      -8.489   9.516  67.564  1.00  0.00    -0.124 OA 
HETATM   10  H   UNL     2      -9.386   9.296  67.342  1.00  0.00     0.000 HD 
BRANCH   8  11
HETATM   11  C   UNL     2      -8.555  11.098  65.764  1.00  0.00    -0.113 C  
HETATM   12  H   UNL     2      -9.744  11.506  64.196  1.00  0.00     0.000 HD 
HETATM   13  O   UNL     2      -9.288  10.761  64.569  1.00  0.00    -0.209 OA 
BRANCH  11  14
HETATM   14  C   UNL     2      -9.453  11.975  66.670  1.00  0.00    -0.217 C  
HETATM   15  O   UNL     2      -8.824  12.182  67.924  1.00  0.00    -0.161 OA 
HETATM   16  H   UNL     2      -9.376  12.721  68.480  1.00  0.00     0.000 HD 
BRANCH  14  17
HETATM   17  C   UNL     2     -10.955  11.639  66.742  1.00  0.00    -0.290 C  
HETATM   18  H   UNL     2     -12.002  10.091  67.311  1.00  0.00     0.000 HD 
HETATM   19  O   UNL     2     -11.075  10.298  67.267  1.00  0.00    -0.264 OA 
BRANCH  17  20
HETATM   20  C   UNL     2     -11.827  12.630  67.512  1.00  0.00    -0.334 C  
HETATM   21  O   UNL     2     -11.245  12.963  68.792  1.00  0.00    -0.249 OA 
HETATM   22  C   UNL     2     -11.950  13.916  66.647  1.00  0.00    -0.442 C  
HETATM   23  H   UNL     2     -11.787  13.579  69.271  1.00  0.00     0.000 HD 
HETATM   24  O   UNL     2     -12.087  13.697  65.414  1.00  0.00    -0.358 OA 
HETATM   25  O   UNL     2     -11.868  14.980  67.317  1.00  0.00    -0.307 OA 
ENDBRANCH  17  20
ENDBRANCH  14  17
ENDBRANCH  11  14
ENDBRANCH   8  11
ENDBRANCH   5   8
BRANCH   6  26
HETATM   26  C   UNL     3      -8.252   5.961  72.812  1.00  0.00    -0.118 C  
HETATM   27  H   UNL     3      -7.073   7.439  72.487  1.00  0.00     0.000 HD 
HETATM   28  O   UNL     3      -6.973   6.577  72.873  1.00  0.00    -0.072 OA 
BRANCH  26  29
HETATM   29  C   UNL     3      -8.835   5.899  71.375  1.00  0.00    -0.136 C  
HETATM   30  O   UNL     3      -9.201   4.484  71.059  1.00  0.00    -0.126 OA 
HETATM   31  H   UNL     3      -9.558   4.447  70.179  1.00  0.00     0.000 HD 
BRANCH  29  32
HETATM   32  C   UNL     3     -10.182   6.635  71.205  1.00  0.00    -0.194 C  
HETATM   33  H   UNL     3     -12.059   6.067  71.016  1.00  0.00     0.000 HD 
HETATM   34  O   UNL     3     -11.230   5.614  71.121  1.00  0.00    -0.195 OA 
BRANCH  32  35
HETATM   35  C   UNL     3     -10.410   7.865  70.312  1.00  0.00    -0.212 C  
HETATM   36  H   UNL     3     -10.554   8.155  68.405  1.00  0.00     0.000 HD 
HETATM   37  O   UNL     3     -10.413   7.394  68.958  1.00  0.00    -0.207 OA 
BRANCH  35  38
HETATM   38  C   UNL     3     -11.629   8.724  70.628  1.00  0.00    -0.205 C  
HETATM   39  C   UNL     3     -11.279  10.231  70.516  1.00  0.00    -0.330 C  
HETATM   40  O   UNL     3     -12.112   8.463  71.961  1.00  0.00    -0.312 OA 
HETATM   41  O   UNL     3     -10.105  10.503  70.112  1.00  0.00    -0.063 OA 
HETATM   42  O   UNL     3     -12.125  10.991  71.064  1.00  0.00    -0.340 OA 
HETATM   43  H   UNL     3     -12.872   8.999  72.158  1.00  0.00     0.000 HD 
ENDBRANCH  35  38
ENDBRANCH  32  35
ENDBRANCH  29  32
ENDBRANCH  26  29
ENDBRANCH   6  26
TORSDOF 10
ENDMDL
MODEL      342
REMARK 921   NORMALIZED FREE ENERGY PREDICTED BY IDOCK:   -4.44 KCAL/MOL
REMARK 922        TOTAL FREE ENERGY PREDICTED BY IDOCK:   -9.54 KCAL/MOL
REMARK 923 INTER-LIGAND FREE ENERGY PREDICTED BY IDOCK:   -7.24 KCAL/MOL
REMARK 924 INTRA-LIGAND FREE ENERGY PREDICTED BY IDOCK:   -2.30 KCAL/MOL
REMARK 927      BINDING AFFINITY PREDICTED BY RF-SCORE:    0.00 PKD
ROOT
HETATM    1 CA   UNL     1     -10.040  11.541  68.165  1.00  0.00    -0.160 Ca 
HETATM    2  O   UNL     2     -14.350   8.856  70.837  1.00  0.00    -0.563 OA 
HETATM    3  O   UNL     3      -7.669  17.339  67.599  1.00  0.00    -0.179 OA 
HETATM    4  H   UNL     2     -14.970   8.735  70.127  1.00  0.00     0.000 HD 
HETATM    5  C   UNL     2     -13.225   9.584  70.348  1.00  0.00     0.470 C  
HETATM    6  C   UNL     3      -8.543  16.423  66.945  1.00  0.00    -0.214 C  
HETATM    7  H   UNL     3      -7.011  17.655  66.991  1.00  0.00     0.000 HD 
ENDROOT
BRANCH   5   8
HETATM    8  C   UNL     2     -12.218   9.781  71.501  1.00  0.00    -0.406 C  
HETATM    9  O   UNL     2     -12.885   9.492  72.725  1.00  0.00    -0.318 OA 
HETATM   10  H   UNL     2     -12.265   9.613  73.435  1.00  0.00     0.000 HD 
BRANCH   8  11
HETATM   11  C   UNL     2     -11.024   8.821  71.371  1.00  0.00    -0.289 C  
HETATM   12  H   UNL     2     -10.692   6.853  71.136  1.00  0.00     0.000 HD 
HETATM   13  O   UNL     2     -11.430   7.447  71.217  1.00  0.00    -0.259 OA 
BRANCH  11  14
HETATM   14  C   UNL     2      -9.904   9.129  70.346  1.00  0.00    -0.218 C  
HETATM   15  O   UNL     2      -9.858  10.521  70.080  1.00  0.00    -0.413 OA 
HETATM   16  H   UNL     2      -9.170  10.709  69.451  1.00  0.00     0.000 HD 
BRANCH  14  17
HETATM   17  C   UNL     2      -9.792   8.224  69.105  1.00  0.00    -0.179 C  
HETATM   18  H   UNL     2     -10.772   8.051  67.424  1.00  0.00     0.000 HD 
HETATM   19  O   UNL     2     -10.842   8.610  68.190  1.00  0.00    -0.106 OA 
BRANCH  17  20
HETATM   20  C   UNL     2      -8.426   8.193  68.420  1.00  0.00    -0.126 C  
HETATM   21  O   UNL     2      -7.911   9.526  68.208  1.00  0.00    -0.086 OA 
HETATM   22  C   UNL     2      -7.457   7.402  69.343  1.00  0.00    -0.091 C  
HETATM   23  H   UNL     2      -7.062   9.507  67.782  1.00  0.00     0.000 HD 
HETATM   24  O   UNL     2      -7.974   6.390  69.887  1.00  0.00    -0.111 OA 
HETATM   25  O   UNL     2      -6.309   7.916  69.421  1.00  0.00    -0.034 OA 
ENDBRANCH  17  20
ENDBRANCH  14  17
ENDBRANCH  11  14
ENDBRANCH   8  11
ENDBRANCH   5   8
BRANCH   6  26
HETATM   26  C   UNL     3      -9.606  15.912  67.927  1.00  0.00    -0.215 C  
HETATM   27  H   UNL     3     -10.309  16.535  69.600  1.00  0.00     0.000 HD 
HETATM   28  O   UNL     3      -9.651  16.852  68.993  1.00  0.00    -0.260 OA 
BRANCH  26  29
HETATM   29  C   UNL     3     -10.982  15.693  67.244  1.00  0.00    -0.275 C  
HETATM   30  O   UNL     3     -10.847  15.967  65.780  1.00  0.00    -0.314 OA 
HETATM   31  H   UNL     3     -11.689  15.833  65.362  1.00  0.00     0.000 HD 
BRANCH  29  32
HETATM   32  C   UNL     3     -11.475  14.230  67.263  1.00  0.00    -0.352 C  
HETATM   33  H   UNL     3     -10.767  12.537  67.979  1.00  0.00     0.000 HD 
HETATM   34  O   UNL     3     -10.463  13.438  67.967  1.00  0.00    -0.227 OA 
BRANCH  32  35
HETATM   35  C   UNL     3     -12.150  13.510  66.085  1.00  0.00    -0.436 C  
HETATM   36  H   UNL     3     -13.471  14.005  64.763  1.00  0.00     0.000 HD 
HETATM   37  O   UNL     3     -13.054  14.451  65.492  1.00  0.00    -0.553 OA 
BRANCH  35  38
HETATM   38  C   UNL     3     -11.227  12.866  65.057  1.00  0.00    -0.293 C  
HETATM   39  C   UNL     3     -10.972  11.377  65.408  1.00  0.00    -0.184 C  
HETATM   40  O   UNL     3      -9.959  13.549  65.002  1.00  0.00    -0.538 OA 
HETATM   41  O   UNL     3     -11.612  10.921  66.407  1.00  0.00    -0.055 OA 
HETATM   42  O   UNL     3      -9.986  10.874  64.802  1.00  0.00    -0.257 OA 
HETATM   43  H   UNL     3      -9.384  13.147  64.361  1.00  0.00     0.000 HD 
ENDBRANCH  35  38
ENDBRANCH  32  35
ENDBRANCH  29  32
ENDBRANCH  26  29
ENDBRANCH   6  26
TORSDOF 10
ENDMDL
MODEL      343
REMARK 921   NORMALIZED FREE ENERGY PREDICTED BY IDOCK:   -4.44 KCAL/MOL
REMARK 922        TOTAL FREE ENERGY PREDICTED BY IDOCK:   -9.53 KCAL/MOL
REMARK 923 INTER-LIGAND FREE ENERGY PREDICTED BY IDOCK:   -7.76 KCAL/MOL
REMARK 924 INTRA-LIGAND FREE ENERGY PREDICTED BY IDOCK:   -1.77 KCAL/MOL
REMARK 927      BINDING AFFINITY PREDICTED BY RF-SCORE:    0.00 PKD
ROOT
HETATM    1 CA   UNL     1     -10.964  17.688  70.562  1.00  0.00    -0.498 Ca 
HETATM    2  O   UNL     2     -12.434  12.214  71.451  1.00  0.00    -0.252 OA 
HETATM    3  O   UNL     3      -6.400  20.996  67.772  1.00  0.00    -0.314 OA 
HETATM    4  H   UNL     2     -12.179  12.092  72.359  1.00  0.00     0.000 HD 
HETATM    5  C   UNL     2     -12.069  13.531  71.043  1.00  0.00    -0.146 C  
HETATM    6  C   UNL     3      -6.791  20.490  69.045  1.00  0.00     0.036 C  
HETATM    7  H   UNL     3      -6.220  21.927  67.830  1.00  0.00     0.000 HD 
ENDROOT
BRANCH   5   8
HETATM    8  C   UNL     2     -12.483  13.729  69.569  1.00  0.00    -0.076 C  
HETATM    9  O   UNL     2     -12.515  15.127  69.303  1.00  0.00    -0.570 OA 
HETATM   10  H   UNL     2     -12.770  15.250  68.396  1.00  0.00     0.000 HD 
BRANCH   8  11
HETATM   11  C   UNL     2     -11.467  13.085  68.612  1.00  0.00    -0.307 C  
HETATM   12  H   UNL     2      -9.486  13.115  68.275  1.00  0.00     0.000 HD 
HETATM   13  O   UNL     2     -10.114  13.513  68.866  1.00  0.00    -0.151 OA 
BRANCH  11  14
HETATM   14  C   UNL     2     -11.475  11.550  68.409  1.00  0.00    -0.298 C  
HETATM   15  O   UNL     2     -12.712  11.008  68.844  1.00  0.00    -0.522 OA 
HETATM   16  H   UNL     2     -12.716  10.066  68.719  1.00  0.00     0.000 HD 
BRANCH  14  17
HETATM   17  C   UNL     2     -10.228  10.757  68.842  1.00  0.00    -0.203 C  
HETATM   18  H   UNL     2      -9.615   9.942  70.508  1.00  0.00     0.000 HD 
HETATM   19  O   UNL     2     -10.385  10.431  70.241  1.00  0.00    -0.184 OA 
BRANCH  17  20
HETATM   20  C   UNL     2      -9.896   9.521  68.006  1.00  0.00    -0.155 C  
HETATM   21  O   UNL     2     -11.084   8.765  67.685  1.00  0.00    -0.480 OA 
HETATM   22  C   UNL     2      -9.221  10.011  66.694  1.00  0.00    -0.149 C  
HETATM   23  H   UNL     2     -10.878   7.997  67.165  1.00  0.00     0.000 HD 
HETATM   24  O   UNL     2      -8.416  10.967  66.854  1.00  0.00    -0.131 OA 
HETATM   25  O   UNL     2      -9.607   9.388  65.670  1.00  0.00    -0.258 OA 
ENDBRANCH  17  20
ENDBRANCH  14  17
ENDBRANCH  11  14
ENDBRANCH   8  11
ENDBRANCH   5   8
BRANCH   6  26
HETATM   26  C   UNL     3      -7.082  18.986  68.951  1.00  0.00    -0.328 C  
HETATM   27  H   UNL     3      -8.672  17.912  69.011  1.00  0.00     0.000 HD 
HETATM   28  O   UNL     3      -8.492  18.843  69.069  1.00  0.00    -0.263 OA 
BRANCH  26  29
HETATM   29  C   UNL     3      -6.509  18.356  67.654  1.00  0.00    -0.199 C  
HETATM   30  O   UNL     3      -5.978  16.994  67.969  1.00  0.00    -0.118 OA 
HETATM   31  H   UNL     3      -5.626  16.608  67.175  1.00  0.00     0.000 HD 
BRANCH  29  32
HETATM   32  C   UNL     3      -7.569  18.056  66.572  1.00  0.00    -0.245 C  
HETATM   33  H   UNL     3      -7.598  18.122  64.603  1.00  0.00     0.000 HD 
HETATM   34  O   UNL     3      -6.946  18.307  65.269  1.00  0.00    -0.516 OA 
BRANCH  32  35
HETATM   35  C   UNL     3      -9.054  18.441  66.659  1.00  0.00    -0.297 C  
HETATM   36  H   UNL     3     -10.082  20.012  66.197  1.00  0.00     0.000 HD 
HETATM   37  O   UNL     3      -9.164  19.774  66.143  1.00  0.00    -0.374 OA 
BRANCH  35  38
HETATM   38  C   UNL     3     -10.049  17.485  66.010  1.00  0.00    -0.260 C  
HETATM   39  C   UNL     3     -10.966  16.839  67.082  1.00  0.00    -0.001 C  
HETATM   40  O   UNL     3      -9.365  16.435  65.297  1.00  0.00    -0.237 OA 
HETATM   41  O   UNL     3     -10.809  17.254  68.273  1.00  0.00    -0.365 OA 
HETATM   42  O   UNL     3     -11.585  15.819  66.672  1.00  0.00     0.107 OA 
HETATM   43  H   UNL     3      -9.985  15.839  64.893  1.00  0.00     0.000 HD 
ENDBRANCH  35  38
ENDBRANCH  32  35
ENDBRANCH  29  32
ENDBRANCH  26  29
ENDBRANCH   6  26
TORSDOF 10
ENDMDL
MODEL      344
REMARK 921   NORMALIZED FREE ENERGY PREDICTED BY IDOCK:   -4.43 KCAL/MOL
REMARK 922        TOTAL FREE ENERGY PREDICTED BY IDOCK:   -9.53 KCAL/MOL
REMARK 923 INTER-LIGAND FREE ENERGY PREDICTED BY IDOCK:   -7.70 KCAL/MOL
REMARK 924 INTRA-LIGAND FREE ENERGY PREDICTED BY IDOCK:   -1.82 KCAL/MOL
REMARK 927      BINDING AFFINITY PREDICTED BY RF-SCORE:    0.00 PKD
ROOT
HETATM    1 CA   UNL     1      -9.567  14.843  68.300  1.00  0.00    -0.183 Ca 
HETATM    2  O   UNL     2      -6.929  10.048  66.575  1.00  0.00    -0.089 OA 
HETATM    3  O   UNL     3     -10.221  20.829  66.487  1.00  0.00    -0.369 OA 
HETATM    4  H   UNL     2      -6.188  10.013  67.168  1.00  0.00     0.000 HD 
HETATM    5  C   UNL     2      -7.668  11.242  66.830  1.00  0.00    -0.155 C  
HETATM    6  C   UNL     3      -9.450  20.006  67.358  1.00  0.00    -0.382 C  
HETATM    7  H   UNL     3     -10.592  21.559  66.968  1.00  0.00     0.000 HD 
ENDROOT
BRANCH   5   8
HETATM    8  C   UNL     2      -8.872  11.299  65.866  1.00  0.00    -0.169 C  
HETATM    9  O   UNL     2      -9.511  10.027  65.881  1.00  0.00    -0.176 OA 
HETATM   10  H   UNL     2     -10.253  10.062  65.288  1.00  0.00     0.000 HD 
BRANCH   8  11
HETATM   11  C   UNL     2      -9.898  12.352  66.316  1.00  0.00    -0.247 C  
HETATM   12  H   UNL     2     -11.097  13.737  65.488  1.00  0.00     0.000 HD 
HETATM   13  O   UNL     2     -10.463  13.085  65.211  1.00  0.00    -0.291 OA 
BRANCH  11  14
HETATM   14  C   UNL     2     -11.039  11.946  67.281  1.00  0.00    -0.288 C  
HETATM   15  O   UNL     2     -12.273  12.473  66.823  1.00  0.00    -0.532 OA 
HETATM   16  H   UNL     2     -12.973  12.224  67.416  1.00  0.00     0.000 HD 
BRANCH  14  17
HETATM   17  C   UNL     2     -10.790  12.089  68.794  1.00  0.00    -0.230 C  
HETATM   18  H   UNL     2     -11.148  13.466  70.133  1.00  0.00     0.000 HD 
HETATM   19  O   UNL     2     -11.302  13.378  69.199  1.00  0.00    -0.261 OA 
BRANCH  17  20
HETATM   20  C   UNL     2     -11.335  10.962  69.672  1.00  0.00    -0.292 C  
HETATM   21  O   UNL     2     -12.617  10.496  69.198  1.00  0.00    -0.740 OA 
HETATM   22  C   UNL     2     -10.308   9.796  69.626  1.00  0.00    -0.238 C  
HETATM   23  H   UNL     2     -12.956   9.795  69.743  1.00  0.00     0.000 HD 
HETATM   24  O   UNL     2      -9.104  10.166  69.655  1.00  0.00    -0.206 OA 
HETATM   25  O   UNL     2     -10.845   8.659  69.541  1.00  0.00    -0.215 OA 
ENDBRANCH  17  20
ENDBRANCH  14  17
ENDBRANCH  11  14
ENDBRANCH   8  11
ENDBRANCH   5   8
BRANCH   6  26
HETATM   26  C   UNL     3      -8.850  18.827  66.579  1.00  0.00    -0.312 C  
HETATM   27  H   UNL     3      -7.634  18.661  65.104  1.00  0.00     0.000 HD 
HETATM   28  O   UNL     3      -8.005  19.391  65.585  1.00  0.00    -0.427 OA 
BRANCH  26  29
HETATM   29  C   UNL     3      -8.120  17.820  67.506  1.00  0.00    -0.223 C  
HETATM   30  O   UNL     3      -9.113  17.216  68.447  1.00  0.00    -0.247 OA 
HETATM   31  H   UNL     3      -8.665  16.600  69.015  1.00  0.00     0.000 HD 
BRANCH  29  32
HETATM   32  C   UNL     3      -7.556  16.580  66.778  1.00  0.00    -0.263 C  
HETATM   33  H   UNL     3      -8.344  14.948  66.006  1.00  0.00     0.000 HD 
HETATM   34  O   UNL     3      -8.691  15.711  66.454  1.00  0.00    -0.286 OA 
BRANCH  32  35
HETATM   35  C   UNL     3      -6.269  15.838  67.166  1.00  0.00     0.094 C  
HETATM   36  H   UNL     3      -4.829  16.169  68.415  1.00  0.00     0.000 HD 
HETATM   37  O   UNL     3      -5.625  16.629  68.174  1.00  0.00    -0.110 OA 
BRANCH  35  38
HETATM   38  C   UNL     3      -6.418  14.379  67.584  1.00  0.00    -0.131 C  
HETATM   39  C   UNL     3      -6.688  14.271  69.107  1.00  0.00    -0.118 C  
HETATM   40  O   UNL     3      -5.226  13.630  67.274  1.00  0.00    -0.327 OA 
HETATM   41  O   UNL     3      -6.822  15.371  69.730  1.00  0.00    -0.178 OA 
HETATM   42  O   UNL     3      -6.506  13.113  69.574  1.00  0.00    -0.112 OA 
HETATM   43  H   UNL     3      -5.319  12.720  67.534  1.00  0.00     0.000 HD 
ENDBRANCH  35  38
ENDBRANCH  32  35
ENDBRANCH  29  32
ENDBRANCH  26  29
ENDBRANCH   6  26
TORSDOF 10
ENDMDL
MODEL      345
REMARK 921   NORMALIZED FREE ENERGY PREDICTED BY IDOCK:   -4.43 KCAL/MOL
REMARK 922        TOTAL FREE ENERGY PREDICTED BY IDOCK:   -9.52 KCAL/MOL
REMARK 923 INTER-LIGAND FREE ENERGY PREDICTED BY IDOCK:   -8.72 KCAL/MOL
REMARK 924 INTRA-LIGAND FREE ENERGY PREDICTED BY IDOCK:   -0.80 KCAL/MOL
REMARK 927      BINDING AFFINITY PREDICTED BY RF-SCORE:    0.00 PKD
ROOT
HETATM    1 CA   UNL     1     -10.011  10.630  68.232  1.00  0.00    -0.142 Ca 
HETATM    2  O   UNL     2     -13.947   7.821  71.320  1.00  0.00    -0.568 OA 
HETATM    3  O   UNL     3      -7.221  16.265  68.074  1.00  0.00    -0.126 OA 
HETATM    4  H   UNL     2     -14.706   7.867  70.750  1.00  0.00     0.000 HD 
HETATM    5  C   UNL     2     -12.875   8.545  70.719  1.00  0.00     0.311 C  
HETATM    6  C   UNL     3      -8.298  15.537  67.489  1.00  0.00    -0.173 C  
HETATM    7  H   UNL     3      -6.670  16.636  67.395  1.00  0.00     0.000 HD 
ENDROOT
BRANCH   5   8
HETATM    8  C   UNL     2     -11.642   8.471  71.644  1.00  0.00    -0.299 C  
HETATM    9  O   UNL     2     -12.103   8.316  72.982  1.00  0.00    -0.596 OA 
HETATM   10  H   UNL     2     -11.343   8.271  73.552  1.00  0.00     0.000 HD 
BRANCH   8  11
HETATM   11  C   UNL     2     -10.758   7.261  71.301  1.00  0.00    -0.225 C  
HETATM   12  H   UNL     2     -10.904   5.523  70.304  1.00  0.00     0.000 HD 
HETATM   13  O   UNL     2     -11.451   6.271  70.516  1.00  0.00    -0.357 OA 
BRANCH  11  14
HETATM   14  C   UNL     2      -9.353   7.489  70.691  1.00  0.00    -0.163 C  
HETATM   15  O   UNL     2      -8.399   7.677  71.724  1.00  0.00    -0.103 OA 
HETATM   16  H   UNL     2      -7.537   7.817  71.349  1.00  0.00     0.000 HD 
BRANCH  14  17
HETATM   17  C   UNL     2      -9.230   8.465  69.505  1.00  0.00    -0.154 C  
HETATM   18  H   UNL     2      -8.571  10.289  69.276  1.00  0.00     0.000 HD 
HETATM   19  O   UNL     2      -8.647   9.687  70.008  1.00  0.00    -0.184 OA 
BRANCH  17  20
HETATM   20  C   UNL     2      -8.479   7.940  68.282  1.00  0.00    -0.124 C  
HETATM   21  O   UNL     2      -7.791   6.703  68.574  1.00  0.00    -0.107 OA 
HETATM   22  C   UNL     2      -9.527   7.700  67.158  1.00  0.00    -0.155 C  
HETATM   23  H   UNL     2      -7.325   6.377  67.813  1.00  0.00     0.000 HD 
HETATM   24  O   UNL     2     -10.419   8.586  67.086  1.00  0.00    -0.290 OA 
HETATM   25  O   UNL     2      -9.330   6.637  66.509  1.00  0.00    -0.157 OA 
ENDBRANCH  17  20
ENDBRANCH  14  17
ENDBRANCH  11  14
ENDBRANCH   8  11
ENDBRANCH   5   8
BRANCH   6  26
HETATM   26  C   UNL     3      -9.189  14.937  68.586  1.00  0.00    -0.193 C  
HETATM   27  H   UNL     3      -9.301  15.133  70.492  1.00  0.00     0.000 HD 
HETATM   28  O   UNL     3      -8.750  15.505  69.813  1.00  0.00    -0.220 OA 
BRANCH  26  29
HETATM   29  C   UNL     3     -10.698  15.166  68.309  1.00  0.00    -0.251 C  
HETATM   30  O   UNL     3     -10.874  16.493  67.643  1.00  0.00    -0.326 OA 
HETATM   31  H   UNL     3     -11.798  16.633  67.474  1.00  0.00     0.000 HD 
BRANCH  29  32
HETATM   32  C   UNL     3     -11.309  14.193  67.278  1.00  0.00    -0.332 C  
HETATM   33  H   UNL     3     -11.505  12.237  67.163  1.00  0.00     0.000 HD 
HETATM   34  O   UNL     3     -11.129  12.835  67.798  1.00  0.00    -0.233 OA 
BRANCH  32  35
HETATM   35  C   UNL     3     -11.169  14.320  65.753  1.00  0.00    -0.317 C  
HETATM   36  H   UNL     3      -9.942  13.615  64.435  1.00  0.00     0.000 HD 
HETATM   37  O   UNL     3     -10.029  13.536  65.378  1.00  0.00    -0.273 OA 
BRANCH  35  38
HETATM   38  C   UNL     3     -12.402  13.984  64.921  1.00  0.00    -0.427 C  
HETATM   39  C   UNL     3     -12.389  12.489  64.506  1.00  0.00    -0.467 C  
HETATM   40  O   UNL     3     -12.455  14.792  63.729  1.00  0.00    -1.045 OA 
HETATM   41  O   UNL     3     -11.439  11.787  64.975  1.00  0.00    -0.278 OA 
HETATM   42  O   UNL     3     -13.189  12.216  63.568  1.00  0.00    -0.744 OA 
HETATM   43  H   UNL     3     -13.223  14.582  63.210  1.00  0.00     0.000 HD 
ENDBRANCH  35  38
ENDBRANCH  32  35
ENDBRANCH  29  32
ENDBRANCH  26  29
ENDBRANCH   6  26
TORSDOF 10
ENDMDL
MODEL      346
REMARK 921   NORMALIZED FREE ENERGY PREDICTED BY IDOCK:   -4.42 KCAL/MOL
REMARK 922        TOTAL FREE ENERGY PREDICTED BY IDOCK:   -9.51 KCAL/MOL
REMARK 923 INTER-LIGAND FREE ENERGY PREDICTED BY IDOCK:   -8.39 KCAL/MOL
REMARK 924 INTRA-LIGAND FREE ENERGY PREDICTED BY IDOCK:   -1.12 KCAL/MOL
REMARK 927      BINDING AFFINITY PREDICTED BY RF-SCORE:    0.00 PKD
ROOT
HETATM    1 CA   UNL     1     -13.033  10.612  68.664  1.00  0.00    -0.367 Ca 
HETATM    2  O   UNL     2     -10.274  13.819  64.787  1.00  0.00    -0.520 OA 
HETATM    3  O   UNL     3     -11.735   6.359  73.112  1.00  0.00    -0.434 OA 
HETATM    4  H   UNL     2     -10.449  13.342  63.984  1.00  0.00     0.000 HD 
HETATM    5  C   UNL     2     -10.846  13.104  65.882  1.00  0.00    -0.273 C  
HETATM    6  C   UNL     3     -12.142   6.459  71.750  1.00  0.00    -0.296 C  
HETATM    7  H   UNL     3     -12.334   5.801  73.593  1.00  0.00     0.000 HD 
ENDROOT
BRANCH   5   8
HETATM    8  C   UNL     2     -10.561  13.879  67.186  1.00  0.00    -0.277 C  
HETATM    9  O   UNL     2      -9.181  13.725  67.500  1.00  0.00    -0.199 OA 
HETATM   10  H   UNL     2      -9.006  14.202  68.303  1.00  0.00     0.000 HD 
BRANCH   8  11
HETATM   11  C   UNL     2     -10.847  15.380  67.018  1.00  0.00    -0.320 C  
HETATM   12  H   UNL     2     -11.916  16.821  67.924  1.00  0.00     0.000 HD 
HETATM   13  O   UNL     2     -11.739  15.893  68.028  1.00  0.00    -0.245 OA 
BRANCH  11  14
HETATM   14  C   UNL     2      -9.668  16.369  66.845  1.00  0.00    -0.251 C  
HETATM   15  O   UNL     2      -9.232  16.831  68.113  1.00  0.00    -0.214 OA 
HETATM   16  H   UNL     2      -8.508  17.438  68.007  1.00  0.00     0.000 HD 
BRANCH  14  17
HETATM   17  C   UNL     2      -9.790  17.456  65.761  1.00  0.00    -0.005 C  
HETATM   18  H   UNL     2     -10.742  17.618  64.063  1.00  0.00     0.000 HD 
HETATM   19  O   UNL     2     -10.667  16.947  64.732  1.00  0.00    -0.758 OA 
BRANCH  17  20
HETATM   20  C   UNL     2     -10.228  18.838  66.246  1.00  0.00    -0.424 C  
HETATM   21  O   UNL     2     -11.008  18.751  67.458  1.00  0.00    -0.407 OA 
HETATM   22  C   UNL     2      -8.942  19.669  66.514  1.00  0.00    -0.369 C  
HETATM   23  H   UNL     2     -11.281  19.610  67.759  1.00  0.00     0.000 HD 
HETATM   24  O   UNL     2      -8.030  19.499  65.661  1.00  0.00    -0.422 OA 
HETATM   25  O   UNL     2      -9.006  20.367  67.561  1.00  0.00    -0.345 OA 
ENDBRANCH  17  20
ENDBRANCH  14  17
ENDBRANCH  11  14
ENDBRANCH   8  11
ENDBRANCH   5   8
BRANCH   6  26
HETATM   26  C   UNL     3     -11.174   7.362  70.973  1.00  0.00    -0.264 C  
HETATM   27  H   UNL     3     -10.282   9.021  71.344  1.00  0.00     0.000 HD 
HETATM   28  O   UNL     3     -10.882   8.462  71.825  1.00  0.00    -0.245 OA 
BRANCH  26  29
HETATM   29  C   UNL     3      -9.908   6.599  70.500  1.00  0.00    -0.176 C  
HETATM   30  O   UNL     3      -9.645   5.466  71.440  1.00  0.00    -0.150 OA 
HETATM   31  H   UNL     3      -8.869   4.999  71.150  1.00  0.00     0.000 HD 
BRANCH  29  32
HETATM   32  C   UNL     3     -10.072   5.876  69.146  1.00  0.00    -0.190 C  
HETATM   33  H   UNL     3     -10.100   3.991  68.575  1.00  0.00     0.000 HD 
HETATM   34  O   UNL     3      -9.999   4.436  69.408  1.00  0.00    -0.197 OA 
BRANCH  32  35
HETATM   35  C   UNL     3      -9.430   6.321  67.823  1.00  0.00    -0.118 C  
HETATM   36  H   UNL     3      -9.300   5.561  66.049  1.00  0.00     0.000 HD 
HETATM   37  O   UNL     3      -9.697   5.286  66.868  1.00  0.00    -0.133 OA 
BRANCH  35  38
HETATM   38  C   UNL     3      -9.816   7.702  67.304  1.00  0.00    -0.186 C  
HETATM   39  C   UNL     3      -8.942   8.091  66.083  1.00  0.00    -0.175 C  
HETATM   40  O   UNL     3      -9.647   8.703  68.327  1.00  0.00    -0.144 OA 
HETATM   41  O   UNL     3      -8.134   7.201  65.669  1.00  0.00    -0.118 OA 
HETATM   42  O   UNL     3      -8.979   9.321  65.804  1.00  0.00    -0.165 OA 
HETATM   43  H   UNL     3      -9.888   9.563  68.004  1.00  0.00     0.000 HD 
ENDBRANCH  35  38
ENDBRANCH  32  35
ENDBRANCH  29  32
ENDBRANCH  26  29
ENDBRANCH   6  26
TORSDOF 10
ENDMDL
MODEL      347
REMARK 921   NORMALIZED FREE ENERGY PREDICTED BY IDOCK:   -4.42 KCAL/MOL
REMARK 922        TOTAL FREE ENERGY PREDICTED BY IDOCK:   -9.50 KCAL/MOL
REMARK 923 INTER-LIGAND FREE ENERGY PREDICTED BY IDOCK:   -8.75 KCAL/MOL
REMARK 924 INTRA-LIGAND FREE ENERGY PREDICTED BY IDOCK:   -0.75 KCAL/MOL
REMARK 927      BINDING AFFINITY PREDICTED BY RF-SCORE:    0.00 PKD
ROOT
HETATM    1 CA   UNL     1     -11.983  10.349  67.352  1.00  0.00    -0.271 Ca 
HETATM    2  O   UNL     2     -12.155   8.455  72.766  1.00  0.00    -0.503 OA 
HETATM    3  O   UNL     3     -10.936  15.697  64.214  1.00  0.00    -0.761 OA 
HETATM    4  H   UNL     2     -13.091   8.397  72.919  1.00  0.00     0.000 HD 
HETATM    5  C   UNL     2     -11.933   8.985  71.460  1.00  0.00    -0.344 C  
HETATM    6  C   UNL     3     -11.996  14.895  64.727  1.00  0.00    -0.361 C  
HETATM    7  H   UNL     3     -11.082  15.886  63.294  1.00  0.00     0.000 HD 
ENDROOT
BRANCH   5   8
HETATM    8  C   UNL     2     -10.413   9.079  71.211  1.00  0.00    -0.311 C  
HETATM    9  O   UNL     2      -9.748   8.873  72.453  1.00  0.00    -0.239 OA 
HETATM   10  H   UNL     2      -8.812   8.931  72.299  1.00  0.00     0.000 HD 
BRANCH   8  11
HETATM   11  C   UNL     2      -9.939   7.993  70.231  1.00  0.00    -0.189 C  
HETATM   12  H   UNL     2      -8.317   7.568  69.123  1.00  0.00     0.000 HD 
HETATM   13  O   UNL     2      -8.610   8.239  69.728  1.00  0.00    -0.126 OA 
BRANCH  11  14
HETATM   14  C   UNL     2     -10.054   6.501  70.629  1.00  0.00    -0.185 C  
HETATM   15  O   UNL     2     -11.404   6.178  70.917  1.00  0.00    -0.313 OA 
HETATM   16  H   UNL     2     -11.475   5.262  71.161  1.00  0.00     0.000 HD 
BRANCH  14  17
HETATM   17  C   UNL     2      -9.022   5.937  71.624  1.00  0.00    -0.139 C  
HETATM   18  H   UNL     2      -7.351   6.584  72.402  1.00  0.00     0.000 HD 
HETATM   19  O   UNL     2      -7.988   6.933  71.788  1.00  0.00    -0.099 OA 
BRANCH  17  20
HETATM   20  C   UNL     2      -9.576   5.468  72.969  1.00  0.00    -0.150 C  
HETATM   21  O   UNL     2     -10.368   6.497  73.603  1.00  0.00    -0.248 OA 
HETATM   22  C   UNL     2     -10.464   4.220  72.699  1.00  0.00    -0.171 C  
HETATM   23  H   UNL     2     -10.712   6.205  74.439  1.00  0.00     0.000 HD 
HETATM   24  O   UNL     2      -9.995   3.429  71.838  1.00  0.00    -0.167 OA 
HETATM   25  O   UNL     2     -11.530   4.210  73.371  1.00  0.00    -0.256 OA 
ENDBRANCH  17  20
ENDBRANCH  14  17
ENDBRANCH  11  14
ENDBRANCH   8  11
ENDBRANCH   5   8
BRANCH   6  26
HETATM   26  C   UNL     3     -11.759  14.591  66.213  1.00  0.00    -0.358 C  
HETATM   27  H   UNL     3     -11.777  12.999  67.284  1.00  0.00     0.000 HD 
HETATM   28  O   UNL     3     -11.924  13.187  66.365  1.00  0.00    -0.384 OA 
BRANCH  26  29
HETATM   29  C   UNL     3     -10.380  15.104  66.706  1.00  0.00    -0.273 C  
HETATM   30  O   UNL     3     -10.320  16.587  66.522  1.00  0.00    -0.299 OA 
HETATM   31  H   UNL     3      -9.475  16.901  66.824  1.00  0.00     0.000 HD 
BRANCH  29  32
HETATM   32  C   UNL     3     -10.152  14.949  68.225  1.00  0.00    -0.221 C  
HETATM   33  H   UNL     3      -9.642  13.456  69.405  1.00  0.00     0.000 HD 
HETATM   34  O   UNL     3      -9.783  13.552  68.470  1.00  0.00    -0.222 OA 
BRANCH  32  35
HETATM   35  C   UNL     3     -11.023  15.585  69.319  1.00  0.00    -0.268 C  
HETATM   36  H   UNL     3     -11.633  17.380  69.702  1.00  0.00     0.000 HD 
HETATM   37  O   UNL     3     -11.094  16.986  69.025  1.00  0.00    -0.191 OA 
BRANCH  35  38
HETATM   38  C   UNL     3     -12.400  14.970  69.542  1.00  0.00    -0.164 C  
HETATM   39  C   UNL     3     -12.904  15.265  70.979  1.00  0.00    -0.440 C  
HETATM   40  O   UNL     3     -12.363  13.541  69.353  1.00  0.00    -0.262 OA 
HETATM   41  O   UNL     3     -12.162  16.015  71.688  1.00  0.00    -0.449 OA 
HETATM   42  O   UNL     3     -13.869  14.535  71.339  1.00  0.00    -0.383 OA 
HETATM   43  H   UNL     3     -13.222  13.158  69.492  1.00  0.00     0.000 HD 
ENDBRANCH  35  38
ENDBRANCH  32  35
ENDBRANCH  29  32
ENDBRANCH  26  29
ENDBRANCH   6  26
TORSDOF 10
ENDMDL
MODEL      348
REMARK 921   NORMALIZED FREE ENERGY PREDICTED BY IDOCK:   -4.41 KCAL/MOL
REMARK 922        TOTAL FREE ENERGY PREDICTED BY IDOCK:   -9.49 KCAL/MOL
REMARK 923 INTER-LIGAND FREE ENERGY PREDICTED BY IDOCK:   -9.41 KCAL/MOL
REMARK 924 INTRA-LIGAND FREE ENERGY PREDICTED BY IDOCK:   -0.08 KCAL/MOL
REMARK 927      BINDING AFFINITY PREDICTED BY RF-SCORE:    0.00 PKD
ROOT
HETATM    1 CA   UNL     1     -10.660   8.414  65.818  1.00  0.00    -0.443 Ca 
HETATM    2  O   UNL     2     -11.346   5.939  70.949  1.00  0.00    -0.270 OA 
HETATM    3  O   UNL     3     -11.826  13.910  62.993  1.00  0.00    -0.490 OA 
HETATM    4  H   UNL     2     -12.096   5.377  70.792  1.00  0.00     0.000 HD 
HETATM    5  C   UNL     2     -11.078   6.692  69.767  1.00  0.00    -0.342 C  
HETATM    6  C   UNL     3     -12.375  12.606  63.163  1.00  0.00    -0.187 C  
HETATM    7  H   UNL     3     -11.776  14.126  62.069  1.00  0.00     0.000 HD 
ENDROOT
BRANCH   5   8
HETATM    8  C   UNL     2      -9.860   7.605  70.022  1.00  0.00    -0.180 C  
HETATM    9  O   UNL     2      -9.785   8.549  68.959  1.00  0.00    -0.165 OA 
HETATM   10  H   UNL     2      -9.035   9.111  69.116  1.00  0.00     0.000 HD 
BRANCH   8  11
HETATM   11  C   UNL     2     -10.010   8.382  71.340  1.00  0.00    -0.213 C  
HETATM   12  H   UNL     2      -9.449  10.146  72.120  1.00  0.00     0.000 HD 
HETATM   13  O   UNL     2      -9.357   9.666  71.306  1.00  0.00    -0.152 OA 
BRANCH  11  14
HETATM   14  C   UNL     2     -11.414   8.552  71.971  1.00  0.00    -0.361 C  
HETATM   15  O   UNL     2     -11.612   7.582  72.986  1.00  0.00    -0.586 OA 
HETATM   16  H   UNL     2     -12.473   7.686  73.373  1.00  0.00     0.000 HD 
BRANCH  14  17
HETATM   17  C   UNL     2     -12.612   8.759  71.024  1.00  0.00    -0.077 C  
HETATM   18  H   UNL     2     -14.318   7.854  70.733  1.00  0.00     0.000 HD 
HETATM   19  O   UNL     2     -13.580   7.727  71.317  1.00  0.00    -0.282 OA 
BRANCH  17  20
HETATM   20  C   UNL     2     -13.244  10.150  71.038  1.00  0.00    -0.335 C  
HETATM   21  O   UNL     2     -13.374  10.658  72.384  1.00  0.00    -0.612 OA 
HETATM   22  C   UNL     2     -12.322  11.091  70.213  1.00  0.00    -0.328 C  
HETATM   23  H   UNL     2     -13.767  11.523  72.393  1.00  0.00     0.000 HD 
HETATM   24  O   UNL     2     -11.846  10.566  69.172  1.00  0.00    -0.239 OA 
HETATM   25  O   UNL     2     -12.176  12.230  70.733  1.00  0.00    -0.378 OA 
ENDBRANCH  17  20
ENDBRANCH  14  17
ENDBRANCH  11  14
ENDBRANCH   8  11
ENDBRANCH   5   8
BRANCH   6  26
HETATM   26  C   UNL     3     -12.457  12.256  64.656  1.00  0.00    -0.341 C  
HETATM   27  H   UNL     3     -11.583  10.982  65.794  1.00  0.00     0.000 HD 
HETATM   28  O   UNL     3     -11.532  11.198  64.870  1.00  0.00     0.030 OA 
BRANCH  26  29
HETATM   29  C   UNL     3     -12.200  13.488  65.563  1.00  0.00    -0.451 C  
HETATM   30  O   UNL     3     -13.511  14.119  65.909  1.00  0.00    -0.561 OA 
HETATM   31  H   UNL     3     -13.354  14.874  66.464  1.00  0.00     0.000 HD 
BRANCH  29  32
HETATM   32  C   UNL     3     -11.622  13.144  66.953  1.00  0.00    -0.368 C  
HETATM   33  H   UNL     3     -12.271  13.310  68.805  1.00  0.00     0.000 HD 
HETATM   34  O   UNL     3     -12.627  13.523  67.950  1.00  0.00     0.125 OA 
BRANCH  32  35
HETATM   35  C   UNL     3     -10.167  13.377  67.387  1.00  0.00    -0.237 C  
HETATM   36  H   UNL     3      -8.677  12.225  67.828  1.00  0.00     0.000 HD 
HETATM   37  O   UNL     3      -9.577  12.081  67.560  1.00  0.00    -0.173 OA 
BRANCH  35  38
HETATM   38  C   UNL     3      -9.323  14.282  66.497  1.00  0.00    -0.271 C  
HETATM   39  C   UNL     3      -9.650  15.774  66.768  1.00  0.00    -0.236 C  
HETATM   40  O   UNL     3      -9.564  14.005  65.103  1.00  0.00    -0.556 OA 
HETATM   41  O   UNL     3     -10.472  16.003  67.710  1.00  0.00    -0.281 OA 
HETATM   42  O   UNL     3      -9.238  16.556  65.867  1.00  0.00    -0.451 OA 
HETATM   43  H   UNL     3      -9.039  14.569  64.548  1.00  0.00     0.000 HD 
ENDBRANCH  35  38
ENDBRANCH  32  35
ENDBRANCH  29  32
ENDBRANCH  26  29
ENDBRANCH   6  26
TORSDOF 10
ENDMDL
MODEL      349
REMARK 921   NORMALIZED FREE ENERGY PREDICTED BY IDOCK:   -4.41 KCAL/MOL
REMARK 922        TOTAL FREE ENERGY PREDICTED BY IDOCK:   -9.48 KCAL/MOL
REMARK 923 INTER-LIGAND FREE ENERGY PREDICTED BY IDOCK:   -8.19 KCAL/MOL
REMARK 924 INTRA-LIGAND FREE ENERGY PREDICTED BY IDOCK:   -1.30 KCAL/MOL
REMARK 927      BINDING AFFINITY PREDICTED BY RF-SCORE:    0.00 PKD
ROOT
HETATM    1 CA   UNL     1     -10.960  12.087  68.373  1.00  0.00    -0.181 Ca 
HETATM    2  O   UNL     2      -7.578   7.638  69.674  1.00  0.00    -0.089 OA 
HETATM    3  O   UNL     3     -10.466  18.226  67.097  1.00  0.00    -0.379 OA 
HETATM    4  H   UNL     2      -7.721   7.556  70.610  1.00  0.00     0.000 HD 
HETATM    5  C   UNL     2      -8.310   8.764  69.193  1.00  0.00    -0.125 C  
HETATM    6  C   UNL     3     -10.735  17.329  68.171  1.00  0.00    -0.363 C  
HETATM    7  H   UNL     3     -11.155  18.877  67.034  1.00  0.00     0.000 HD 
ENDROOT
BRANCH   5   8
HETATM    8  C   UNL     2      -8.077   8.899  67.673  1.00  0.00    -0.106 C  
HETATM    9  O   UNL     2      -6.939   8.116  67.329  1.00  0.00    -0.072 OA 
HETATM   10  H   UNL     2      -6.795   8.199  66.393  1.00  0.00     0.000 HD 
BRANCH   8  11
HETATM   11  C   UNL     2      -9.279   8.367  66.875  1.00  0.00    -0.157 C  
HETATM   12  H   UNL     2     -10.112   8.614  65.063  1.00  0.00     0.000 HD 
HETATM   13  O   UNL     2      -9.369   8.943  65.556  1.00  0.00    -0.215 OA 
BRANCH  11  14
HETATM   14  C   UNL     2      -9.513   6.840  66.770  1.00  0.00    -0.162 C  
HETATM   15  O   UNL     2      -9.600   6.272  68.067  1.00  0.00    -0.116 OA 
HETATM   16  H   UNL     2      -9.743   5.335  68.003  1.00  0.00     0.000 HD 
BRANCH  14  17
HETATM   17  C   UNL     2      -8.657   6.045  65.767  1.00  0.00    -0.155 C  
HETATM   18  H   UNL     2      -7.316   6.503  64.422  1.00  0.00     0.000 HD 
HETATM   19  O   UNL     2      -7.845   6.994  65.041  1.00  0.00    -0.111 OA 
BRANCH  17  20
HETATM   20  C   UNL     2      -7.816   4.912  66.354  1.00  0.00    -0.099 C  
HETATM   21  O   UNL     2      -6.972   5.381  67.428  1.00  0.00    -0.062 OA 
HETATM   22  C   UNL     2      -8.797   3.834  66.897  1.00  0.00    -0.126 C  
HETATM   23  H   UNL     2      -6.449   4.677  67.793  1.00  0.00     0.000 HD 
HETATM   24  O   UNL     2      -9.801   3.633  66.163  1.00  0.00    -0.131 OA 
HETATM   25  O   UNL     2      -8.444   3.348  68.004  1.00  0.00    -0.085 OA 
ENDBRANCH  17  20
ENDBRANCH  14  17
ENDBRANCH  11  14
ENDBRANCH   8  11
ENDBRANCH   5   8
BRANCH   6  26
HETATM   26  C   UNL     3      -9.622  16.276  68.274  1.00  0.00    -0.218 C  
HETATM   27  H   UNL     3      -8.796  15.322  69.720  1.00  0.00     0.000 HD 
HETATM   28  O   UNL     3      -9.485  15.973  69.656  1.00  0.00    -0.226 OA 
BRANCH  26  29
HETATM   29  C   UNL     3      -9.910  15.028  67.398  1.00  0.00    -0.224 C  
HETATM   30  O   UNL     3     -11.287  14.530  67.699  1.00  0.00    -0.306 OA 
HETATM   31  H   UNL     3     -11.463  13.766  67.163  1.00  0.00     0.000 HD 
BRANCH  29  32
HETATM   32  C   UNL     3      -9.987  15.320  65.884  1.00  0.00    -0.340 C  
HETATM   33  H   UNL     3      -9.068  16.562  64.662  1.00  0.00     0.000 HD 
HETATM   34  O   UNL     3      -9.021  16.383  65.594  1.00  0.00    -0.427 OA 
BRANCH  32  35
HETATM   35  C   UNL     3     -11.284  15.389  65.062  1.00  0.00    -0.387 C  
HETATM   36  H   UNL     3     -12.092  16.709  63.903  1.00  0.00     0.000 HD 
HETATM   37  O   UNL     3     -11.290  16.666  64.411  1.00  0.00    -1.023 OA 
BRANCH  35  38
HETATM   38  C   UNL     3     -11.541  14.242  64.091  1.00  0.00    -0.194 C  
HETATM   39  C   UNL     3     -12.778  13.418  64.534  1.00  0.00    -0.127 C  
HETATM   40  O   UNL     3     -10.403  13.361  64.020  1.00  0.00    -0.618 OA 
HETATM   41  O   UNL     3     -13.409  13.858  65.546  1.00  0.00    -0.662 OA 
HETATM   42  O   UNL     3     -12.861  12.288  63.977  1.00  0.00    -0.696 OA 
HETATM   43  H   UNL     3     -10.563  12.647  63.415  1.00  0.00     0.000 HD 
ENDBRANCH  35  38
ENDBRANCH  32  35
ENDBRANCH  29  32
ENDBRANCH  26  29
ENDBRANCH   6  26
TORSDOF 10
ENDMDL
MODEL      350
REMARK 921   NORMALIZED FREE ENERGY PREDICTED BY IDOCK:   -4.40 KCAL/MOL
REMARK 922        TOTAL FREE ENERGY PREDICTED BY IDOCK:   -9.48 KCAL/MOL
REMARK 923 INTER-LIGAND FREE ENERGY PREDICTED BY IDOCK:   -6.99 KCAL/MOL
REMARK 924 INTRA-LIGAND FREE ENERGY PREDICTED BY IDOCK:   -2.49 KCAL/MOL
REMARK 927      BINDING AFFINITY PREDICTED BY RF-SCORE:    0.00 PKD
ROOT
HETATM    1 CA   UNL     1     -11.128   7.396  68.180  1.00  0.00    -0.242 Ca 
HETATM    2  O   UNL     2      -8.591   8.573  63.170  1.00  0.00    -0.396 OA 
HETATM    3  O   UNL     3      -9.736   4.748  73.712  1.00  0.00    -0.129 OA 
HETATM    4  H   UNL     2      -8.943   7.890  62.611  1.00  0.00     0.000 HD 
HETATM    5  C   UNL     2      -9.079   8.382  64.496  1.00  0.00     0.598 C  
HETATM    6  C   UNL     3     -10.325   4.448  72.449  1.00  0.00    -0.173 C  
HETATM    7  H   UNL     3     -10.323   4.497  74.415  1.00  0.00     0.000 HD 
ENDROOT
BRANCH   5   8
HETATM    8  C   UNL     2      -8.507   9.491  65.404  1.00  0.00    -0.148 C  
HETATM    9  O   UNL     2      -7.124   9.641  65.100  1.00  0.00    -0.103 OA 
HETATM   10  H   UNL     2      -6.771  10.324  65.659  1.00  0.00     0.000 HD 
BRANCH   8  11
HETATM   11  C   UNL     2      -9.200  10.839  65.144  1.00  0.00    -0.209 C  
HETATM   12  H   UNL     2     -10.970  11.519  64.478  1.00  0.00     0.000 HD 
HETATM   13  O   UNL     2     -10.541  10.686  64.639  1.00  0.00    -0.296 OA 
BRANCH  11  14
HETATM   14  C   UNL     2      -9.202  11.923  66.249  1.00  0.00    -0.214 C  
HETATM   15  O   UNL     2      -7.877  12.356  66.509  1.00  0.00    -0.385 OA 
HETATM   16  H   UNL     2      -7.879  13.021  67.188  1.00  0.00     0.000 HD 
BRANCH  14  17
HETATM   17  C   UNL     2     -10.064  11.676  67.502  1.00  0.00    -0.191 C  
HETATM   18  H   UNL     2      -9.704  11.446  69.408  1.00  0.00     0.000 HD 
HETATM   19  O   UNL     2      -9.171  11.598  68.635  1.00  0.00    -0.179 OA 
BRANCH  17  20
HETATM   20  C   UNL     2     -11.199  12.672  67.741  1.00  0.00    -0.274 C  
HETATM   21  O   UNL     2     -12.050  12.253  68.831  1.00  0.00    -0.265 OA 
HETATM   22  C   UNL     2     -10.552  14.044  68.084  1.00  0.00    -0.248 C  
HETATM   23  H   UNL     2     -12.755  12.872  68.979  1.00  0.00     0.000 HD 
HETATM   24  O   UNL     2      -9.532  14.319  67.399  1.00  0.00    -0.202 OA 
HETATM   25  O   UNL     2     -11.140  14.655  69.015  1.00  0.00    -0.237 OA 
ENDBRANCH  17  20
ENDBRANCH  14  17
ENDBRANCH  11  14
ENDBRANCH   8  11
ENDBRANCH   5   8
BRANCH   6  26
HETATM   26  C   UNL     3      -9.376   4.853  71.312  1.00  0.00    -0.150 C  
HETATM   27  H   UNL     3      -9.123   4.283  69.498  1.00  0.00     0.000 HD 
HETATM   28  O   UNL     3      -9.710   4.032  70.201  1.00  0.00    -0.196 OA 
BRANCH  26  29
HETATM   29  C   UNL     3      -9.450   6.371  70.997  1.00  0.00    -0.171 C  
HETATM   30  O   UNL     3      -9.584   6.555  69.519  1.00  0.00    -0.146 OA 
HETATM   31  H   UNL     3      -9.629   7.484  69.327  1.00  0.00     0.000 HD 
BRANCH  29  32
HETATM   32  C   UNL     3     -10.718   7.070  71.534  1.00  0.00    -0.221 C  
HETATM   33  H   UNL     3     -12.581   7.232  70.913  1.00  0.00     0.000 HD 
HETATM   34  O   UNL     3     -11.800   6.802  70.582  1.00  0.00    -0.370 OA 
BRANCH  32  35
HETATM   35  C   UNL     3     -10.754   8.467  72.171  1.00  0.00    -0.356 C  
HETATM   36  H   UNL     3      -9.449   9.605  73.033  1.00  0.00     0.000 HD 
HETATM   37  O   UNL     3      -9.427   8.740  72.639  1.00  0.00    -0.269 OA 
BRANCH  35  38
HETATM   38  C   UNL     3     -11.309   9.598  71.311  1.00  0.00    -0.388 C  
HETATM   39  C   UNL     3     -12.817   9.815  71.599  1.00  0.00    -0.421 C  
HETATM   40  O   UNL     3     -11.146   9.306  69.909  1.00  0.00    -0.277 OA 
HETATM   41  O   UNL     3     -13.315   9.105  72.529  1.00  0.00    -0.458 OA 
HETATM   42  O   UNL     3     -13.409  10.498  70.718  1.00  0.00    -0.273 OA 
HETATM   43  H   UNL     3     -11.491  10.011  69.373  1.00  0.00     0.000 HD 
ENDBRANCH  35  38
ENDBRANCH  32  35
ENDBRANCH  29  32
ENDBRANCH  26  29
ENDBRANCH   6  26
TORSDOF 10
ENDMDL
MODEL      351
REMARK 921   NORMALIZED FREE ENERGY PREDICTED BY IDOCK:   -4.39 KCAL/MOL
REMARK 922        TOTAL FREE ENERGY PREDICTED BY IDOCK:   -9.46 KCAL/MOL
REMARK 923 INTER-LIGAND FREE ENERGY PREDICTED BY IDOCK:   -6.73 KCAL/MOL
REMARK 924 INTRA-LIGAND FREE ENERGY PREDICTED BY IDOCK:   -2.73 KCAL/MOL
REMARK 927      BINDING AFFINITY PREDICTED BY RF-SCORE:    0.00 PKD
ROOT
HETATM    1 CA   UNL     1      -9.986  12.668  67.345  1.00  0.00    -0.189 Ca 
HETATM    2  O   UNL     2     -10.798   8.525  71.232  1.00  0.00    -0.229 OA 
HETATM    3  O   UNL     3      -6.830  18.074  66.743  1.00  0.00    -0.179 OA 
HETATM    4  H   UNL     2     -11.663   8.739  71.562  1.00  0.00     0.000 HD 
HETATM    5  C   UNL     2     -10.408   9.517  70.283  1.00  0.00    -0.269 C  
HETATM    6  C   UNL     3      -8.116  17.567  67.086  1.00  0.00    -0.210 C  
HETATM    7  H   UNL     3      -6.907  18.736  66.066  1.00  0.00     0.000 HD 
ENDROOT
BRANCH   5   8
HETATM    8  C   UNL     2      -9.003   9.170  69.746  1.00  0.00    -0.162 C  
HETATM    9  O   UNL     2      -8.181   8.818  70.854  1.00  0.00    -0.128 OA 
HETATM   10  H   UNL     2      -7.316   8.604  70.524  1.00  0.00     0.000 HD 
BRANCH   8  11
HETATM   11  C   UNL     2      -9.053   7.968  68.789  1.00  0.00    -0.144 C  
HETATM   12  H   UNL     2     -10.430   6.836  67.863  1.00  0.00     0.000 HD 
HETATM   13  O   UNL     2     -10.400   7.579  68.454  1.00  0.00    -0.189 OA 
BRANCH  11  14
HETATM   14  C   UNL     2      -8.201   7.984  67.496  1.00  0.00    -0.123 C  
HETATM   15  O   UNL     2      -7.210   6.972  67.553  1.00  0.00    -0.085 OA 
HETATM   16  H   UNL     2      -6.688   6.982  66.759  1.00  0.00     0.000 HD 
BRANCH  14  17
HETATM   17  C   UNL     2      -7.711   9.347  66.971  1.00  0.00    -0.091 C  
HETATM   18  H   UNL     2      -6.219  10.536  67.390  1.00  0.00     0.000 HD 
HETATM   19  O   UNL     2      -6.521   9.695  67.714  1.00  0.00    -0.057 OA 
BRANCH  17  20
HETATM   20  C   UNL     2      -7.485   9.442  65.463  1.00  0.00    -0.095 C  
HETATM   21  O   UNL     2      -7.332   8.135  64.868  1.00  0.00    -0.080 OA 
HETATM   22  C   UNL     2      -8.724  10.152  64.848  1.00  0.00    -0.181 C  
HETATM   23  H   UNL     2      -7.192   8.194  63.930  1.00  0.00     0.000 HD 
HETATM   24  O   UNL     2      -9.165  11.110  65.537  1.00  0.00    -0.212 OA 
HETATM   25  O   UNL     2      -9.109   9.637  63.764  1.00  0.00    -0.241 OA 
ENDBRANCH  17  20
ENDBRANCH  14  17
ENDBRANCH  11  14
ENDBRANCH   8  11
ENDBRANCH   5   8
BRANCH   6  26
HETATM   26  C   UNL     3      -7.990  16.498  68.180  1.00  0.00    -0.163 C  
HETATM   27  H   UNL     3      -6.662  16.062  69.495  1.00  0.00     0.000 HD 
HETATM   28  O   UNL     3      -6.740  16.723  68.818  1.00  0.00    -0.165 OA 
BRANCH  26  29
HETATM   29  C   UNL     3      -9.191  16.516  69.162  1.00  0.00    -0.197 C  
HETATM   30  O   UNL     3     -10.225  17.467  68.648  1.00  0.00    -0.335 OA 
HETATM   31  H   UNL     3     -10.960  17.478  69.250  1.00  0.00     0.000 HD 
BRANCH  29  32
HETATM   32  C   UNL     3      -9.972  15.186  69.234  1.00  0.00    -0.242 C  
HETATM   33  H   UNL     3      -9.543  13.303  68.848  1.00  0.00     0.000 HD 
HETATM   34  O   UNL     3      -9.062  14.121  68.803  1.00  0.00    -0.165 OA 
BRANCH  32  35
HETATM   35  C   UNL     3     -11.434  14.995  68.803  1.00  0.00    -0.319 C  
HETATM   36  H   UNL     3     -12.329  14.720  67.110  1.00  0.00     0.000 HD 
HETATM   37  O   UNL     3     -11.425  14.838  67.377  1.00  0.00    -0.342 OA 
BRANCH  35  38
HETATM   38  C   UNL     3     -12.217  13.889  69.501  1.00  0.00    -0.306 C  
HETATM   39  C   UNL     3     -12.828  14.407  70.830  1.00  0.00    -0.353 C  
HETATM   40  O   UNL     3     -11.366  12.763  69.796  1.00  0.00    -0.469 OA 
HETATM   41  O   UNL     3     -12.662  15.643  71.076  1.00  0.00    -0.444 OA 
HETATM   42  O   UNL     3     -13.208  13.487  71.606  1.00  0.00    -0.365 OA 
HETATM   43  H   UNL     3     -11.853  12.074  70.231  1.00  0.00     0.000 HD 
ENDBRANCH  35  38
ENDBRANCH  32  35
ENDBRANCH  29  32
ENDBRANCH  26  29
ENDBRANCH   6  26
TORSDOF 10
ENDMDL
MODEL      352
REMARK 921   NORMALIZED FREE ENERGY PREDICTED BY IDOCK:   -4.37 KCAL/MOL
REMARK 922        TOTAL FREE ENERGY PREDICTED BY IDOCK:   -9.43 KCAL/MOL
REMARK 923 INTER-LIGAND FREE ENERGY PREDICTED BY IDOCK:   -8.03 KCAL/MOL
REMARK 924 INTRA-LIGAND FREE ENERGY PREDICTED BY IDOCK:   -1.40 KCAL/MOL
REMARK 927      BINDING AFFINITY PREDICTED BY RF-SCORE:    0.00 PKD
ROOT
HETATM    1 CA   UNL     1      -6.906  10.074  69.580  1.00  0.00    -0.042 Ca 
HETATM    2  O   UNL     2      -6.479  15.796  69.592  1.00  0.00    -0.166 OA 
HETATM    3  O   UNL     3     -10.980   5.604  71.302  1.00  0.00    -0.246 OA 
HETATM    4  H   UNL     2      -5.895  15.943  70.327  1.00  0.00     0.000 HD 
HETATM    5  C   UNL     2      -6.747  14.399  69.488  1.00  0.00    -0.141 C  
HETATM    6  C   UNL     3      -9.827   6.299  71.767  1.00  0.00    -0.163 C  
HETATM    7  H   UNL     3     -10.844   4.666  71.361  1.00  0.00     0.000 HD 
ENDROOT
BRANCH   5   8
HETATM    8  C   UNL     2      -7.696  14.159  68.294  1.00  0.00    -0.139 C  
HETATM    9  O   UNL     2      -8.823  13.428  68.765  1.00  0.00    -0.373 OA 
HETATM   10  H   UNL     2      -9.407  13.280  68.030  1.00  0.00     0.000 HD 
BRANCH   8  11
HETATM   11  C   UNL     2      -8.201  15.487  67.708  1.00  0.00    -0.147 C  
HETATM   12  H   UNL     2      -8.171  16.467  65.954  1.00  0.00     0.000 HD 
HETATM   13  O   UNL     2      -7.859  15.647  66.316  1.00  0.00     0.012 OA 
BRANCH  11  14
HETATM   14  C   UNL     2      -9.680  15.898  67.909  1.00  0.00    -0.216 C  
HETATM   15  O   UNL     2     -10.194  15.303  69.089  1.00  0.00    -0.220 OA 
HETATM   16  H   UNL     2     -11.102  15.556  69.212  1.00  0.00     0.000 HD 
BRANCH  14  17
HETATM   17  C   UNL     2     -10.619  15.840  66.688  1.00  0.00    -0.307 C  
HETATM   18  H   UNL     2     -10.689  16.732  64.952  1.00  0.00     0.000 HD 
HETATM   19  O   UNL     2     -10.109  16.768  65.705  1.00  0.00    -0.534 OA 
BRANCH  17  20
HETATM   20  C   UNL     2     -10.855  14.454  66.091  1.00  0.00    -0.309 C  
HETATM   21  O   UNL     2     -11.198  13.490  67.110  1.00  0.00    -0.289 OA 
HETATM   22  C   UNL     2     -12.025  14.575  65.074  1.00  0.00    -0.399 C  
HETATM   23  H   UNL     2     -11.344  12.628  66.739  1.00  0.00     0.000 HD 
HETATM   24  O   UNL     2     -11.998  15.625  64.379  1.00  0.00    -0.343 OA 
HETATM   25  O   UNL     2     -12.833  13.610  65.125  1.00  0.00    -0.687 OA 
ENDBRANCH  17  20
ENDBRANCH  14  17
ENDBRANCH  11  14
ENDBRANCH   8  11
ENDBRANCH   5   8
BRANCH   6  26
HETATM   26  C   UNL     3     -10.048   7.815  71.671  1.00  0.00    -0.185 C  
HETATM   27  H   UNL     3      -8.899   9.352  71.705  1.00  0.00     0.000 HD 
HETATM   28  O   UNL     3      -8.762   8.414  71.764  1.00  0.00    -0.146 OA 
BRANCH  26  29
HETATM   29  C   UNL     3     -10.820   8.217  70.386  1.00  0.00    -0.235 C  
HETATM   30  O   UNL     3     -12.276   8.325  70.708  1.00  0.00    -0.488 OA 
HETATM   31  H   UNL     3     -12.748   8.571  69.921  1.00  0.00     0.000 HD 
BRANCH  29  32
HETATM   32  C   UNL     3     -10.490   9.632  69.864  1.00  0.00    -0.253 C  
HETATM   33  H   UNL     3     -11.476  11.334  69.752  1.00  0.00     0.000 HD 
HETATM   34  O   UNL     3     -11.679  10.463  70.073  1.00  0.00    -0.260 OA 
BRANCH  32  35
HETATM   35  C   UNL     3      -9.710   9.939  68.577  1.00  0.00    -0.154 C  
HETATM   36  H   UNL     3      -8.175   9.159  67.696  1.00  0.00     0.000 HD 
HETATM   37  O   UNL     3      -8.657   8.970  68.492  1.00  0.00    -0.127 OA 
BRANCH  35  38
HETATM   38  C   UNL     3     -10.521  10.027  67.289  1.00  0.00    -0.254 C  
HETATM   39  C   UNL     3      -9.727  10.785  66.193  1.00  0.00    -0.207 C  
HETATM   40  O   UNL     3     -11.768  10.714  67.511  1.00  0.00    -0.580 OA 
HETATM   41  O   UNL     3      -8.541  11.126  66.498  1.00  0.00    -0.159 OA 
HETATM   42  O   UNL     3     -10.440  11.172  65.226  1.00  0.00    -0.267 OA 
HETATM   43  H   UNL     3     -12.274  10.768  66.708  1.00  0.00     0.000 HD 
ENDBRANCH  35  38
ENDBRANCH  32  35
ENDBRANCH  29  32
ENDBRANCH  26  29
ENDBRANCH   6  26
TORSDOF 10
ENDMDL
MODEL      353
REMARK 921   NORMALIZED FREE ENERGY PREDICTED BY IDOCK:   -4.37 KCAL/MOL
REMARK 922        TOTAL FREE ENERGY PREDICTED BY IDOCK:   -9.42 KCAL/MOL
REMARK 923 INTER-LIGAND FREE ENERGY PREDICTED BY IDOCK:   -6.26 KCAL/MOL
REMARK 924 INTRA-LIGAND FREE ENERGY PREDICTED BY IDOCK:   -3.16 KCAL/MOL
REMARK 927      BINDING AFFINITY PREDICTED BY RF-SCORE:    0.00 PKD
ROOT
HETATM    1 CA   UNL     1     -10.803  11.862  70.449  1.00  0.00    -0.461 Ca 
HETATM    2  O   UNL     2     -12.511  12.874  65.066  1.00  0.00    -0.463 OA 
HETATM    3  O   UNL     3      -6.835   8.098  73.554  1.00  0.00    -0.110 OA 
HETATM    4  H   UNL     2     -13.356  12.439  65.048  1.00  0.00     0.000 HD 
HETATM    5  C   UNL     2     -11.908  12.657  66.341  1.00  0.00    -0.402 C  
HETATM    6  C   UNL     3      -8.205   8.205  73.177  1.00  0.00    -0.193 C  
HETATM    7  H   UNL     3      -6.762   7.952  74.490  1.00  0.00     0.000 HD 
ENDROOT
BRANCH   5   8
HETATM    8  C   UNL     2     -10.536  13.364  66.370  1.00  0.00    -0.285 C  
HETATM    9  O   UNL     2     -10.669  14.555  67.139  1.00  0.00    -0.278 OA 
HETATM   10  H   UNL     2      -9.824  14.990  67.157  1.00  0.00     0.000 HD 
BRANCH   8  11
HETATM   11  C   UNL     2      -9.468  12.482  67.038  1.00  0.00    -0.217 C  
HETATM   12  H   UNL     2      -9.179  11.526  68.782  1.00  0.00     0.000 HD 
HETATM   13  O   UNL     2      -9.839  12.071  68.369  1.00  0.00    -0.207 OA 
BRANCH  11  14
HETATM   14  C   UNL     2      -8.902  11.258  66.277  1.00  0.00    -0.191 C  
HETATM   15  O   UNL     2      -9.802  10.166  66.375  1.00  0.00    -0.200 OA 
HETATM   16  H   UNL     2      -9.455   9.415  65.908  1.00  0.00     0.000 HD 
BRANCH  14  17
HETATM   17  C   UNL     2      -7.419  10.900  66.486  1.00  0.00    -0.142 C  
HETATM   18  H   UNL     2      -5.840  11.857  67.126  1.00  0.00     0.000 HD 
HETATM   19  O   UNL     2      -6.756  12.078  66.997  1.00  0.00    -0.143 OA 
BRANCH  17  20
HETATM   20  C   UNL     2      -7.142   9.673  67.353  1.00  0.00    -0.085 C  
HETATM   21  O   UNL     2      -7.928   9.693  68.565  1.00  0.00    -0.088 OA 
HETATM   22  C   UNL     2      -7.509   8.416  66.516  1.00  0.00    -0.081 C  
HETATM   23  H   UNL     2      -7.756   8.930  69.104  1.00  0.00     0.000 HD 
HETATM   24  O   UNL     2      -7.175   8.487  65.303  1.00  0.00    -0.080 OA 
HETATM   25  O   UNL     2      -8.109   7.529  67.180  1.00  0.00    -0.114 OA 
ENDBRANCH  17  20
ENDBRANCH  14  17
ENDBRANCH  11  14
ENDBRANCH   8  11
ENDBRANCH   5   8
BRANCH   6  26
HETATM   26  C   UNL     3      -8.321   8.439  71.664  1.00  0.00    -0.156 C  
HETATM   27  H   UNL     3      -7.728   7.496  70.102  1.00  0.00     0.000 HD 
HETATM   28  O   UNL     3      -7.656   7.350  71.038  1.00  0.00    -0.083 OA 
BRANCH  26  29
HETATM   29  C   UNL     3      -9.794   8.604  71.206  1.00  0.00    -0.238 C  
HETATM   30  O   UNL     3      -9.962   9.952  70.582  1.00  0.00    -0.353 OA 
HETATM   31  H   UNL     3     -10.864  10.053  70.302  1.00  0.00     0.000 HD 
BRANCH  29  32
HETATM   32  C   UNL     3     -10.212   7.655  70.062  1.00  0.00    -0.213 C  
HETATM   33  H   UNL     3     -11.006   7.902  68.276  1.00  0.00     0.000 HD 
HETATM   34  O   UNL     3     -10.749   8.486  68.980  1.00  0.00    -0.193 OA 
BRANCH  32  35
HETATM   35  C   UNL     3     -10.923   6.306  70.248  1.00  0.00    -0.337 C  
HETATM   36  H   UNL     3     -12.737   5.765  70.643  1.00  0.00     0.000 HD 
HETATM   37  O   UNL     3     -12.298   6.600  70.528  1.00  0.00    -0.314 OA 
BRANCH  35  38
HETATM   38  C   UNL     3     -10.766   5.288  69.124  1.00  0.00     0.017 C  
HETATM   39  C   UNL     3      -9.546   4.366  69.387  1.00  0.00    -0.199 C  
HETATM   40  O   UNL     3     -10.579   5.946  67.855  1.00  0.00    -0.218 OA 
HETATM   41  O   UNL     3      -8.945   4.539  70.494  1.00  0.00    -0.098 OA 
HETATM   42  O   UNL     3      -9.166   3.724  68.369  1.00  0.00    -0.131 OA 
HETATM   43  H   UNL     3     -10.481   5.312  67.155  1.00  0.00     0.000 HD 
ENDBRANCH  35  38
ENDBRANCH  32  35
ENDBRANCH  29  32
ENDBRANCH  26  29
ENDBRANCH   6  26
TORSDOF 10
ENDMDL
MODEL      354
REMARK 921   NORMALIZED FREE ENERGY PREDICTED BY IDOCK:   -4.34 KCAL/MOL
REMARK 922        TOTAL FREE ENERGY PREDICTED BY IDOCK:   -9.37 KCAL/MOL
REMARK 923 INTER-LIGAND FREE ENERGY PREDICTED BY IDOCK:   -8.07 KCAL/MOL
REMARK 924 INTRA-LIGAND FREE ENERGY PREDICTED BY IDOCK:   -1.30 KCAL/MOL
REMARK 927      BINDING AFFINITY PREDICTED BY RF-SCORE:    0.00 PKD
ROOT
HETATM    1 CA   UNL     1      -8.121  13.962  66.189  1.00  0.00    -0.366 Ca 
HETATM    2  O   UNL     2      -9.281   8.456  65.066  1.00  0.00    -0.402 OA 
HETATM    3  O   UNL     3     -11.150  19.447  66.731  1.00  0.00    -0.349 OA 
HETATM    4  H   UNL     2      -8.994   8.380  64.163  1.00  0.00     0.000 HD 
HETATM    5  C   UNL     2      -9.120   9.809  65.489  1.00  0.00    -0.196 C  
HETATM    6  C   UNL     3     -10.411  18.670  65.793  1.00  0.00    -0.198 C  
HETATM    7  H   UNL     3     -10.787  20.323  66.788  1.00  0.00     0.000 HD 
ENDROOT
BRANCH   5   8
HETATM    8  C   UNL     2      -9.585   9.932  66.955  1.00  0.00    -0.175 C  
HETATM    9  O   UNL     2     -10.869  10.547  66.962  1.00  0.00    -0.268 OA 
HETATM   10  H   UNL     2     -11.155  10.623  67.865  1.00  0.00     0.000 HD 
BRANCH   8  11
HETATM   11  C   UNL     2      -9.714   8.551  67.618  1.00  0.00    -0.160 C  
HETATM   12  H   UNL     2      -8.620   6.881  67.843  1.00  0.00     0.000 HD 
HETATM   13  O   UNL     2      -8.541   7.734  67.434  1.00  0.00    -0.124 OA 
BRANCH  11  14
HETATM   14  C   UNL     2     -10.164   8.452  69.097  1.00  0.00    -0.211 C  
HETATM   15  O   UNL     2     -11.247   9.336  69.335  1.00  0.00    -0.424 OA 
HETATM   16  H   UNL     2     -11.524   9.274  70.243  1.00  0.00     0.000 HD 
BRANCH  14  17
HETATM   17  C   UNL     2      -9.074   8.449  70.185  1.00  0.00    -0.150 C  
HETATM   18  H   UNL     2      -8.238   9.808  71.312  1.00  0.00     0.000 HD 
HETATM   19  O   UNL     2      -8.911   9.810  70.640  1.00  0.00    -0.153 OA 
BRANCH  17  20
HETATM   20  C   UNL     2      -9.294   7.484  71.350  1.00  0.00    -0.141 C  
HETATM   21  O   UNL     2      -8.045   6.945  71.834  1.00  0.00    -0.100 OA 
HETATM   22  C   UNL     2      -9.995   8.278  72.489  1.00  0.00    -0.303 C  
HETATM   23  H   UNL     2      -8.182   6.345  72.558  1.00  0.00     0.000 HD 
HETATM   24  O   UNL     2     -10.877   9.084  72.090  1.00  0.00    -0.337 OA 
HETATM   25  O   UNL     2      -9.548   8.007  73.636  1.00  0.00    -0.238 OA 
ENDBRANCH  17  20
ENDBRANCH  14  17
ENDBRANCH  11  14
ENDBRANCH   8  11
ENDBRANCH   5   8
BRANCH   6  26
HETATM   26  C   UNL     3     -10.997  17.254  65.699  1.00  0.00     0.108 C  
HETATM   27  H   UNL     3     -11.575  16.124  64.260  1.00  0.00     0.000 HD 
HETATM   28  O   UNL     3     -11.212  17.000  64.317  1.00  0.00    -1.186 OA 
BRANCH  26  29
HETATM   29  C   UNL     3     -10.091  16.196  66.384  1.00  0.00    -0.308 C  
HETATM   30  O   UNL     3      -8.779  16.143  65.668  1.00  0.00    -0.273 OA 
HETATM   31  H   UNL     3      -8.225  15.495  66.087  1.00  0.00     0.000 HD 
BRANCH  29  32
HETATM   32  C   UNL     3      -9.668  16.559  67.824  1.00  0.00    -0.235 C  
HETATM   33  H   UNL     3     -10.583  17.342  69.382  1.00  0.00     0.000 HD 
HETATM   34  O   UNL     3     -10.843  17.119  68.496  1.00  0.00    -0.349 OA 
BRANCH  32  35
HETATM   35  C   UNL     3      -8.333  17.212  68.214  1.00  0.00    -0.232 C  
HETATM   36  H   UNL     3      -7.822  18.910  68.986  1.00  0.00     0.000 HD 
HETATM   37  O   UNL     3      -8.648  18.506  68.744  1.00  0.00    -0.311 OA 
BRANCH  35  38
HETATM   38  C   UNL     3      -7.425  16.412  69.142  1.00  0.00    -0.228 C  
HETATM   39  C   UNL     3      -6.217  15.834  68.359  1.00  0.00    -0.101 C  
HETATM   40  O   UNL     3      -8.143  15.320  69.751  1.00  0.00    -0.313 OA 
HETATM   41  O   UNL     3      -6.129  16.173  67.138  1.00  0.00    -0.253 OA 
HETATM   42  O   UNL     3      -5.608  14.914  68.973  1.00  0.00    -0.095 OA 
HETATM   43  H   UNL     3      -7.577  14.822  70.329  1.00  0.00     0.000 HD 
ENDBRANCH  35  38
ENDBRANCH  32  35
ENDBRANCH  29  32
ENDBRANCH  26  29
ENDBRANCH   6  26
TORSDOF 10
ENDMDL
MODEL      355
REMARK 921   NORMALIZED FREE ENERGY PREDICTED BY IDOCK:   -4.32 KCAL/MOL
REMARK 922        TOTAL FREE ENERGY PREDICTED BY IDOCK:   -9.35 KCAL/MOL
REMARK 923 INTER-LIGAND FREE ENERGY PREDICTED BY IDOCK:   -6.94 KCAL/MOL
REMARK 924 INTRA-LIGAND FREE ENERGY PREDICTED BY IDOCK:   -2.40 KCAL/MOL
REMARK 927      BINDING AFFINITY PREDICTED BY RF-SCORE:    0.00 PKD
ROOT
HETATM    1 CA   UNL     1     -11.584   9.411  67.592  1.00  0.00    -0.507 Ca 
HETATM    2  O   UNL     2     -12.170   7.817  73.073  1.00  0.00    -0.566 OA 
HETATM    3  O   UNL     3     -10.322  14.588  64.252  1.00  0.00    -0.457 OA 
HETATM    4  H   UNL     2     -13.115   7.759  73.156  1.00  0.00     0.000 HD 
HETATM    5  C   UNL     2     -11.849   8.276  71.761  1.00  0.00    -0.306 C  
HETATM    6  C   UNL     3     -11.415  13.805  64.724  1.00  0.00    -0.356 C  
HETATM    7  H   UNL     3     -10.397  14.724  63.315  1.00  0.00     0.000 HD 
ENDROOT
BRANCH   5   8
HETATM    8  C   UNL     2     -10.315   8.372  71.627  1.00  0.00    -0.243 C  
HETATM    9  O   UNL     2      -9.764   8.493  72.934  1.00  0.00    -0.235 OA 
HETATM   10  H   UNL     2      -8.819   8.552  72.851  1.00  0.00     0.000 HD 
BRANCH   8  11
HETATM   11  C   UNL     2      -9.731   7.106  70.979  1.00  0.00    -0.165 C  
HETATM   12  H   UNL     2      -8.453   5.627  71.446  1.00  0.00     0.000 HD 
HETATM   13  O   UNL     2      -8.814   6.409  71.847  1.00  0.00    -0.138 OA 
BRANCH  11  14
HETATM   14  C   UNL     2     -10.682   6.073  70.326  1.00  0.00    -0.300 C  
HETATM   15  O   UNL     2     -10.715   4.885  71.100  1.00  0.00    -0.090 OA 
HETATM   16  H   UNL     2     -11.299   4.251  70.699  1.00  0.00     0.000 HD 
BRANCH  14  17
HETATM   17  C   UNL     2     -10.579   5.857  68.804  1.00  0.00    -0.272 C  
HETATM   18  H   UNL     2     -10.651   7.015  67.233  1.00  0.00     0.000 HD 
HETATM   19  O   UNL     2     -10.715   7.149  68.172  1.00  0.00    -0.203 OA 
BRANCH  17  20
HETATM   20  C   UNL     2      -9.334   5.115  68.317  1.00  0.00    -0.122 C  
HETATM   21  O   UNL     2      -8.751   4.313  69.367  1.00  0.00    -0.082 OA 
HETATM   22  C   UNL     2      -9.768   4.197  67.140  1.00  0.00    -0.186 C  
HETATM   23  H   UNL     2      -7.977   3.852  69.064  1.00  0.00     0.000 HD 
HETATM   24  O   UNL     2     -10.605   4.720  66.357  1.00  0.00    -0.284 OA 
HETATM   25  O   UNL     2      -9.230   3.057  67.170  1.00  0.00    -0.172 OA 
ENDBRANCH  17  20
ENDBRANCH  14  17
ENDBRANCH  11  14
ENDBRANCH   8  11
ENDBRANCH   5   8
BRANCH   6  26
HETATM   26  C   UNL     3     -11.294  13.586  66.239  1.00  0.00    -0.309 C  
HETATM   27  H   UNL     3     -12.471  13.826  67.736  1.00  0.00     0.000 HD 
HETATM   28  O   UNL     3     -12.546  13.962  66.799  1.00  0.00    -0.311 OA 
BRANCH  26  29
HETATM   29  C   UNL     3     -10.875  12.134  66.592  1.00  0.00    -0.268 C  
HETATM   30  O   UNL     3     -10.588  11.390  65.327  1.00  0.00    -0.273 OA 
HETATM   31  H   UNL     3     -10.332  10.501  65.543  1.00  0.00     0.000 HD 
BRANCH  29  32
HETATM   32  C   UNL     3      -9.535  12.027  67.351  1.00  0.00    -0.177 C  
HETATM   33  H   UNL     3      -8.669  13.059  68.788  1.00  0.00     0.000 HD 
HETATM   34  O   UNL     3      -9.494  13.125  68.320  1.00  0.00    -0.217 OA 
BRANCH  32  35
HETATM   35  C   UNL     3      -8.182  11.684  66.710  1.00  0.00    -0.161 C  
HETATM   36  H   UNL     3      -6.374  12.342  66.913  1.00  0.00     0.000 HD 
HETATM   37  O   UNL     3      -7.212  12.554  67.309  1.00  0.00    -0.147 OA 
BRANCH  35  38
HETATM   38  C   UNL     3      -7.753  10.222  66.755  1.00  0.00    -0.111 C  
HETATM   39  C   UNL     3      -7.189   9.775  65.381  1.00  0.00    -0.114 C  
HETATM   40  O   UNL     3      -8.865   9.369  67.094  1.00  0.00    -0.127 OA 
HETATM   41  O   UNL     3      -7.095  10.682  64.495  1.00  0.00     0.031 OA 
HETATM   42  O   UNL     3      -7.115   8.523  65.245  1.00  0.00    -0.079 OA 
HETATM   43  H   UNL     3      -8.598   8.458  67.122  1.00  0.00     0.000 HD 
ENDBRANCH  35  38
ENDBRANCH  32  35
ENDBRANCH  29  32
ENDBRANCH  26  29
ENDBRANCH   6  26
TORSDOF 10
ENDMDL
MODEL      356
REMARK 921   NORMALIZED FREE ENERGY PREDICTED BY IDOCK:   -4.28 KCAL/MOL
REMARK 922        TOTAL FREE ENERGY PREDICTED BY IDOCK:   -9.29 KCAL/MOL
REMARK 923 INTER-LIGAND FREE ENERGY PREDICTED BY IDOCK:   -6.87 KCAL/MOL
REMARK 924 INTRA-LIGAND FREE ENERGY PREDICTED BY IDOCK:   -2.42 KCAL/MOL
REMARK 927      BINDING AFFINITY PREDICTED BY RF-SCORE:    0.00 PKD
ROOT
HETATM    1 CA   UNL     1     -11.598  10.156  64.676  1.00  0.00     0.341 Ca 
HETATM    2  O   UNL     2     -11.523  15.847  63.955  1.00  0.00    -1.031 OA 
HETATM    3  O   UNL     3      -8.659   5.751  68.069  1.00  0.00    -0.106 OA 
HETATM    4  H   UNL     2     -11.052  15.930  63.133  1.00  0.00     0.000 HD 
HETATM    5  C   UNL     2     -11.573  14.469  64.321  1.00  0.00    -0.238 C  
HETATM    6  C   UNL     3      -8.630   6.375  66.789  1.00  0.00    -0.113 C  
HETATM    7  H   UNL     3      -8.692   4.806  67.973  1.00  0.00     0.000 HD 
ENDROOT
BRANCH   5   8
HETATM    8  C   UNL     2     -12.337  14.334  65.655  1.00  0.00    -0.405 C  
HETATM    9  O   UNL     2     -12.677  12.963  65.833  1.00  0.00    -0.437 OA 
HETATM   10  H   UNL     2     -13.147  12.880  66.654  1.00  0.00     0.000 HD 
BRANCH   8  11
HETATM   11  C   UNL     2     -11.465  14.767  66.844  1.00  0.00    -0.347 C  
HETATM   12  H   UNL     2     -11.659  15.083  68.819  1.00  0.00     0.000 HD 
HETATM   13  O   UNL     2     -12.198  14.815  68.084  1.00  0.00    -0.195 OA 
BRANCH  11  14
HETATM   14  C   UNL     2     -10.108  14.064  67.094  1.00  0.00    -0.259 C  
HETATM   15  O   UNL     2     -10.034  13.614  68.437  1.00  0.00    -0.231 OA 
HETATM   16  H   UNL     2      -9.201  13.182  68.590  1.00  0.00     0.000 HD 
BRANCH  14  17
HETATM   17  C   UNL     2      -8.832  14.745  66.563  1.00  0.00    -0.188 C  
HETATM   18  H   UNL     2      -8.408  16.499  65.816  1.00  0.00     0.000 HD 
HETATM   19  O   UNL     2      -9.195  16.079  66.143  1.00  0.00    -0.301 OA 
BRANCH  17  20
HETATM   20  C   UNL     2      -7.635  14.756  67.513  1.00  0.00    -0.193 C  
HETATM   21  O   UNL     2      -7.946  15.435  68.749  1.00  0.00    -0.136 OA 
HETATM   22  C   UNL     2      -7.262  13.276  67.812  1.00  0.00    -0.151 C  
HETATM   23  H   UNL     2      -7.202  15.441  69.340  1.00  0.00     0.000 HD 
HETATM   24  O   UNL     2      -7.337  12.512  66.813  1.00  0.00     0.051 OA 
HETATM   25  O   UNL     2      -6.965  13.069  69.019  1.00  0.00    -0.098 OA 
ENDBRANCH  17  20
ENDBRANCH  14  17
ENDBRANCH  11  14
ENDBRANCH   8  11
ENDBRANCH   5   8
BRANCH   6  26
HETATM   26  C   UNL     3      -8.578   7.901  66.944  1.00  0.00    -0.129 C  
HETATM   27  H   UNL     3      -8.031   9.355  65.817  1.00  0.00     0.000 HD 
HETATM   28  O   UNL     3      -8.063   8.410  65.721  1.00  0.00    -0.105 OA 
BRANCH  26  29
HETATM   29  C   UNL     3      -9.957   8.501  67.326  1.00  0.00    -0.225 C  
HETATM   30  O   UNL     3     -10.967   7.400  67.384  1.00  0.00    -0.506 OA 
HETATM   31  H   UNL     3     -11.811   7.768  67.618  1.00  0.00     0.000 HD 
BRANCH  29  32
HETATM   32  C   UNL     3     -10.021   9.085  68.754  1.00  0.00    -0.182 C  
HETATM   33  H   UNL     3     -10.185  10.899  69.504  1.00  0.00     0.000 HD 
HETATM   34  O   UNL     3     -10.145  10.540  68.626  1.00  0.00    -0.165 OA 
BRANCH  32  35
HETATM   35  C   UNL     3      -9.164   8.616  69.940  1.00  0.00    -0.155 C  
HETATM   36  H   UNL     3      -7.515   9.219  70.750  1.00  0.00     0.000 HD 
HETATM   37  O   UNL     3      -8.045   9.509  70.017  1.00  0.00    -0.128 OA 
BRANCH  35  38
HETATM   38  C   UNL     3      -9.874   8.462  71.280  1.00  0.00    -0.198 C  
HETATM   39  C   UNL     3     -10.682   7.139  71.322  1.00  0.00    -0.226 C  
HETATM   40  O   UNL     3     -10.779   9.560  71.513  1.00  0.00    -0.340 OA 
HETATM   41  O   UNL     3     -10.563   6.380  70.309  1.00  0.00    -0.209 OA 
HETATM   42  O   UNL     3     -11.536   7.095  72.250  1.00  0.00    -0.268 OA 
HETATM   43  H   UNL     3     -11.221   9.464  72.349  1.00  0.00     0.000 HD 
ENDBRANCH  35  38
ENDBRANCH  32  35
ENDBRANCH  29  32
ENDBRANCH  26  29
ENDBRANCH   6  26
TORSDOF 10
ENDMDL
MODEL      357
REMARK 921   NORMALIZED FREE ENERGY PREDICTED BY IDOCK:   -4.28 KCAL/MOL
REMARK 922        TOTAL FREE ENERGY PREDICTED BY IDOCK:   -9.29 KCAL/MOL
REMARK 923 INTER-LIGAND FREE ENERGY PREDICTED BY IDOCK:   -7.43 KCAL/MOL
REMARK 924 INTRA-LIGAND FREE ENERGY PREDICTED BY IDOCK:   -1.86 KCAL/MOL
REMARK 927      BINDING AFFINITY PREDICTED BY RF-SCORE:    0.00 PKD
ROOT
HETATM    1 CA   UNL     1      -7.237   5.311  65.095  1.00  0.00    -0.055 Ca 
HETATM    2  O   UNL     2      -6.673  10.885  63.856  1.00  0.00    -0.313 OA 
HETATM    3  O   UNL     3      -9.641   1.663  69.619  1.00  0.00    -0.087 OA 
HETATM    4  H   UNL     2      -5.760  11.038  64.073  1.00  0.00     0.000 HD 
HETATM    5  C   UNL     2      -7.002   9.534  64.175  1.00  0.00    -0.109 C  
HETATM    6  C   UNL     3      -8.413   2.247  69.193  1.00  0.00    -0.055 C  
HETATM    7  H   UNL     3      -9.531   0.728  69.751  1.00  0.00     0.000 HD 
ENDROOT
BRANCH   5   8
HETATM    8  C   UNL     2      -8.484   9.285  63.823  1.00  0.00    -0.191 C  
HETATM    9  O   UNL     2      -8.706   7.879  63.815  1.00  0.00    -0.340 OA 
HETATM   10  H   UNL     2      -9.619   7.725  63.598  1.00  0.00     0.000 HD 
BRANCH   8  11
HETATM   11  C   UNL     2      -9.420   9.909  64.871  1.00  0.00    -0.291 C  
HETATM   12  H   UNL     2      -9.285  10.829  66.653  1.00  0.00     0.000 HD 
HETATM   13  O   UNL     2      -8.707  10.443  66.005  1.00  0.00    -0.142 OA 
BRANCH  11  14
HETATM   14  C   UNL     2     -10.490  10.936  64.426  1.00  0.00    -0.333 C  
HETATM   15  O   UNL     2     -10.642  10.898  63.016  1.00  0.00    -0.752 OA 
HETATM   16  H   UNL     2     -11.300  11.528  62.743  1.00  0.00     0.000 HD 
BRANCH  14  17
HETATM   17  C   UNL     2     -10.436  12.348  65.038  1.00  0.00    -0.294 C  
HETATM   18  H   UNL     2     -10.730  14.160  64.369  1.00  0.00     0.000 HD 
HETATM   19  O   UNL     2     -10.764  13.288  63.991  1.00  0.00    -0.377 OA 
BRANCH  17  20
HETATM   20  C   UNL     2     -11.290  12.570  66.286  1.00  0.00    -0.338 C  
HETATM   21  O   UNL     2     -11.693  11.316  66.881  1.00  0.00    -0.464 OA 
HETATM   22  C   UNL     2     -10.433  13.376  67.302  1.00  0.00    -0.248 C  
HETATM   23  H   UNL     2     -12.224  11.454  67.657  1.00  0.00     0.000 HD 
HETATM   24  O   UNL     2      -9.733  14.284  66.781  1.00  0.00    -0.256 OA 
HETATM   25  O   UNL     2     -10.556  12.975  68.490  1.00  0.00    -0.249 OA 
ENDBRANCH  17  20
ENDBRANCH  14  17
ENDBRANCH  11  14
ENDBRANCH   8  11
ENDBRANCH   5   8
BRANCH   6  26
HETATM   26  C   UNL     3      -8.590   3.757  68.982  1.00  0.00    -0.080 C  
HETATM   27  H   UNL     3      -8.839   4.885  67.449  1.00  0.00     0.000 HD 
HETATM   28  O   UNL     3      -8.729   3.951  67.580  1.00  0.00    -0.099 OA 
BRANCH  26  29
HETATM   29  C   UNL     3      -9.777   4.331  69.800  1.00  0.00    -0.220 C  
HETATM   30  O   UNL     3      -9.608   3.947  71.236  1.00  0.00    -0.148 OA 
HETATM   31  H   UNL     3     -10.334   4.298  71.737  1.00  0.00     0.000 HD 
BRANCH  29  32
HETATM   32  C   UNL     3      -9.812   5.873  69.871  1.00  0.00    -0.174 C  
HETATM   33  H   UNL     3      -8.533   7.310  69.449  1.00  0.00     0.000 HD 
HETATM   34  O   UNL     3      -8.512   6.361  69.405  1.00  0.00    -0.124 OA 
BRANCH  32  35
HETATM   35  C   UNL     3     -10.433   6.690  71.014  1.00  0.00    -0.214 C  
HETATM   36  H   UNL     3     -12.070   6.574  72.038  1.00  0.00     0.000 HD 
HETATM   37  O   UNL     3     -11.686   6.068  71.331  1.00  0.00    -0.235 OA 
BRANCH  35  38
HETATM   38  C   UNL     3      -9.567   6.909  72.250  1.00  0.00    -0.146 C  
HETATM   39  C   UNL     3      -9.304   8.421  72.472  1.00  0.00    -0.275 C  
HETATM   40  O   UNL     3      -8.299   6.237  72.115  1.00  0.00    -0.110 OA 
HETATM   41  O   UNL     3      -9.897   9.214  71.675  1.00  0.00    -0.305 OA 
HETATM   42  O   UNL     3      -8.353   8.660  73.266  1.00  0.00    -0.408 OA 
HETATM   43  H   UNL     3      -7.759   6.373  72.885  1.00  0.00     0.000 HD 
ENDBRANCH  35  38
ENDBRANCH  32  35
ENDBRANCH  29  32
ENDBRANCH  26  29
ENDBRANCH   6  26
TORSDOF 10
ENDMDL
MODEL      358
REMARK 921   NORMALIZED FREE ENERGY PREDICTED BY IDOCK:   -4.28 KCAL/MOL
REMARK 922        TOTAL FREE ENERGY PREDICTED BY IDOCK:   -9.28 KCAL/MOL
REMARK 923 INTER-LIGAND FREE ENERGY PREDICTED BY IDOCK:   -8.75 KCAL/MOL
REMARK 924 INTRA-LIGAND FREE ENERGY PREDICTED BY IDOCK:   -0.53 KCAL/MOL
REMARK 927      BINDING AFFINITY PREDICTED BY RF-SCORE:    0.00 PKD
ROOT
HETATM    1 CA   UNL     1      -8.814  11.863  65.869  1.00  0.00    -0.190 Ca 
HETATM    2  O   UNL     2      -8.466  17.312  67.630  1.00  0.00    -0.205 OA 
HETATM    3  O   UNL     3      -9.099   6.079  68.322  1.00  0.00    -0.113 OA 
HETATM    4  H   UNL     2      -7.549  17.507  67.472  1.00  0.00     0.000 HD 
HETATM    5  C   UNL     2      -8.712  15.946  67.300  1.00  0.00    -0.187 C  
HETATM    6  C   UNL     3      -8.172   7.016  67.782  1.00  0.00    -0.114 C  
HETATM    7  H   UNL     3      -9.013   5.241  67.882  1.00  0.00     0.000 HD 
ENDROOT
BRANCH   5   8
HETATM    8  C   UNL     2     -10.201  15.630  67.556  1.00  0.00    -0.263 C  
HETATM    9  O   UNL     2     -10.751  16.693  68.327  1.00  0.00    -0.321 OA 
HETATM   10  H   UNL     2     -11.668  16.499  68.485  1.00  0.00     0.000 HD 
BRANCH   8  11
HETATM   11  C   UNL     2     -10.987  15.540  66.239  1.00  0.00    -0.242 C  
HETATM   12  H   UNL     2     -10.678  15.844  64.276  1.00  0.00     0.000 HD 
HETATM   13  O   UNL     2     -10.192  15.899  65.091  1.00  0.00    -0.472 OA 
BRANCH  11  14
HETATM   14  C   UNL     2     -11.785  14.255  65.911  1.00  0.00    -0.372 C  
HETATM   15  O   UNL     2     -11.234  13.149  66.608  1.00  0.00    -0.289 OA 
HETATM   16  H   UNL     2     -11.724  12.360  66.406  1.00  0.00     0.000 HD 
BRANCH  14  17
HETATM   17  C   UNL     2     -12.144  13.983  64.438  1.00  0.00    -0.458 C  
HETATM   18  H   UNL     2     -12.699  15.083  62.922  1.00  0.00     0.000 HD 
HETATM   19  O   UNL     2     -12.477  15.251  63.831  1.00  0.00    -0.737 OA 
BRANCH  17  20
HETATM   20  C   UNL     2     -11.099  13.222  63.623  1.00  0.00    -0.012 C  
HETATM   21  O   UNL     2      -9.799  13.273  64.252  1.00  0.00    -0.676 OA 
HETATM   22  C   UNL     2     -11.570  11.744  63.522  1.00  0.00    -0.387 C  
HETATM   23  H   UNL     2      -9.149  12.800  63.746  1.00  0.00     0.000 HD 
HETATM   24  O   UNL     2     -12.809  11.608  63.343  1.00  0.00    -0.472 OA 
HETATM   25  O   UNL     2     -10.635  10.910  63.660  1.00  0.00    -0.326 OA 
ENDBRANCH  17  20
ENDBRANCH  14  17
ENDBRANCH  11  14
ENDBRANCH   8  11
ENDBRANCH   5   8
BRANCH   6  26
HETATM   26  C   UNL     3      -8.310   8.369  68.493  1.00  0.00    -0.131 C  
HETATM   27  H   UNL     3      -9.236  10.006  68.112  1.00  0.00     0.000 HD 
HETATM   28  O   UNL     3      -9.151   9.169  67.671  1.00  0.00    -0.123 OA 
BRANCH  26  29
HETATM   29  C   UNL     3      -8.836   8.219  69.945  1.00  0.00    -0.138 C  
HETATM   30  O   UNL     3      -8.427   9.421  70.736  1.00  0.00    -0.200 OA 
HETATM   31  H   UNL     3      -8.749   9.328  71.626  1.00  0.00     0.000 HD 
BRANCH  29  32
HETATM   32  C   UNL     3     -10.374   8.248  70.070  1.00  0.00    -0.212 C  
HETATM   33  H   UNL     3     -11.869   7.672  68.923  1.00  0.00     0.000 HD 
HETATM   34  O   UNL     3     -10.922   7.655  68.847  1.00  0.00    -0.075 OA 
BRANCH  32  35
HETATM   35  C   UNL     3     -11.193   9.416  70.640  1.00  0.00    -0.284 C  
HETATM   36  H   UNL     3     -11.439  10.174  72.402  1.00  0.00     0.000 HD 
HETATM   37  O   UNL     3     -10.933   9.451  72.049  1.00  0.00    -0.250 OA 
BRANCH  35  38
HETATM   38  C   UNL     3     -10.995  10.777  69.981  1.00  0.00    -0.211 C  
HETATM   39  C   UNL     3     -12.054  11.790  70.489  1.00  0.00    -0.347 C  
HETATM   40  O   UNL     3     -11.106  10.677  68.547  1.00  0.00    -0.226 OA 
HETATM   41  O   UNL     3     -12.835  11.371  71.401  1.00  0.00    -0.413 OA 
HETATM   42  O   UNL     3     -12.157  12.821  69.770  1.00  0.00    -0.296 OA 
HETATM   43  H   UNL     3     -10.983  11.525  68.137  1.00  0.00     0.000 HD 
ENDBRANCH  35  38
ENDBRANCH  32  35
ENDBRANCH  29  32
ENDBRANCH  26  29
ENDBRANCH   6  26
TORSDOF 10
ENDMDL
MODEL      359
REMARK 921   NORMALIZED FREE ENERGY PREDICTED BY IDOCK:   -4.27 KCAL/MOL
REMARK 922        TOTAL FREE ENERGY PREDICTED BY IDOCK:   -9.27 KCAL/MOL
REMARK 923 INTER-LIGAND FREE ENERGY PREDICTED BY IDOCK:   -7.74 KCAL/MOL
REMARK 924 INTRA-LIGAND FREE ENERGY PREDICTED BY IDOCK:   -1.53 KCAL/MOL
REMARK 927      BINDING AFFINITY PREDICTED BY RF-SCORE:    0.00 PKD
ROOT
HETATM    1 CA   UNL     1      -7.256  15.722  69.409  1.00  0.00    -0.135 Ca 
HETATM    2  O   UNL     2      -5.416  10.332  68.714  1.00  0.00    -0.039 OA 
HETATM    3  O   UNL     3      -9.791  20.361  66.002  1.00  0.00    -0.637 OA 
HETATM    4  H   UNL     2      -4.474  10.452  68.697  1.00  0.00     0.000 HD 
HETATM    5  C   UNL     2      -6.042  11.610  68.817  1.00  0.00    -0.050 C  
HETATM    6  C   UNL     3      -8.536  19.895  66.492  1.00  0.00    -0.341 C  
HETATM    7  H   UNL     3      -9.918  21.272  66.239  1.00  0.00     0.000 HD 
ENDROOT
BRANCH   5   8
HETATM    8  C   UNL     2      -7.573  11.416  68.846  1.00  0.00    -0.114 C  
HETATM    9  O   UNL     2      -8.037  11.359  67.501  1.00  0.00    -0.119 OA 
HETATM   10  H   UNL     2      -8.979  11.240  67.519  1.00  0.00     0.000 HD 
BRANCH   8  11
HETATM   11  C   UNL     2      -7.955  10.097  69.538  1.00  0.00    -0.165 C  
HETATM   12  H   UNL     2      -7.588   9.141  71.267  1.00  0.00     0.000 HD 
HETATM   13  O   UNL     2      -7.352   9.956  70.839  1.00  0.00    -0.328 OA 
BRANCH  11  14
HETATM   14  C   UNL     2      -9.445   9.686  69.631  1.00  0.00    -0.210 C  
HETATM   15  O   UNL     2      -9.908   9.835  70.963  1.00  0.00    -0.299 OA 
HETATM   16  H   UNL     2     -10.823   9.583  71.021  1.00  0.00     0.000 HD 
BRANCH  14  17
HETATM   17  C   UNL     2      -9.881   8.385  68.931  1.00  0.00    -0.180 C  
HETATM   18  H   UNL     2      -9.678   7.643  67.136  1.00  0.00     0.000 HD 
HETATM   19  O   UNL     2      -9.409   8.446  67.567  1.00  0.00    -0.143 OA 
BRANCH  17  20
HETATM   20  C   UNL     2      -9.466   7.084  69.618  1.00  0.00    -0.147 C  
HETATM   21  O   UNL     2      -8.866   7.335  70.908  1.00  0.00    -0.147 OA 
HETATM   22  C   UNL     2     -10.746   6.221  69.798  1.00  0.00    -0.297 C  
HETATM   23  H   UNL     2      -8.608   6.527  71.335  1.00  0.00     0.000 HD 
HETATM   24  O   UNL     2     -11.535   6.256  68.817  1.00  0.00    -0.294 OA 
HETATM   25  O   UNL     2     -10.804   5.639  70.915  1.00  0.00    -0.265 OA 
ENDBRANCH  17  20
ENDBRANCH  14  17
ENDBRANCH  11  14
ENDBRANCH   8  11
ENDBRANCH   5   8
BRANCH   6  26
HETATM   26  C   UNL     3      -8.331  18.423  66.108  1.00  0.00    -0.133 C  
HETATM   27  H   UNL     3      -6.909  17.427  65.291  1.00  0.00     0.000 HD 
HETATM   28  O   UNL     3      -7.036  18.338  65.528  1.00  0.00    -0.494 OA 
BRANCH  26  29
HETATM   29  C   UNL     3      -8.527  17.468  67.315  1.00  0.00    -0.214 C  
HETATM   30  O   UNL     3      -8.048  18.149  68.557  1.00  0.00    -0.294 OA 
HETATM   31  H   UNL     3      -8.168  17.564  69.296  1.00  0.00     0.000 HD 
BRANCH  29  32
HETATM   32  C   UNL     3     -10.003  17.165  67.652  1.00  0.00    -0.283 C  
HETATM   33  H   UNL     3     -11.062  17.099  69.311  1.00  0.00     0.000 HD 
HETATM   34  O   UNL     3     -10.154  17.285  69.104  1.00  0.00    -0.302 OA 
BRANCH  32  35
HETATM   35  C   UNL     3     -10.846  16.053  67.008  1.00  0.00    -0.227 C  
HETATM   36  H   UNL     3     -10.561  14.786  65.575  1.00  0.00     0.000 HD 
HETATM   37  O   UNL     3     -10.040  15.474  65.973  1.00  0.00    -0.286 OA 
BRANCH  35  38
HETATM   38  C   UNL     3     -11.423  15.000  67.948  1.00  0.00    -0.340 C  
HETATM   39  C   UNL     3     -10.333  13.977  68.360  1.00  0.00    -0.251 C  
HETATM   40  O   UNL     3     -12.508  14.288  67.320  1.00  0.00    -0.589 OA 
HETATM   41  O   UNL     3      -9.158  14.213  67.937  1.00  0.00    -0.176 OA 
HETATM   42  O   UNL     3     -10.796  12.917  68.864  1.00  0.00    -0.242 OA 
HETATM   43  H   UNL     3     -12.868  13.632  67.905  1.00  0.00     0.000 HD 
ENDBRANCH  35  38
ENDBRANCH  32  35
ENDBRANCH  29  32
ENDBRANCH  26  29
ENDBRANCH   6  26
TORSDOF 10
ENDMDL
MODEL      360
REMARK 921   NORMALIZED FREE ENERGY PREDICTED BY IDOCK:   -4.26 KCAL/MOL
REMARK 922        TOTAL FREE ENERGY PREDICTED BY IDOCK:   -9.26 KCAL/MOL
REMARK 923 INTER-LIGAND FREE ENERGY PREDICTED BY IDOCK:   -8.24 KCAL/MOL
REMARK 924 INTRA-LIGAND FREE ENERGY PREDICTED BY IDOCK:   -1.02 KCAL/MOL
REMARK 927      BINDING AFFINITY PREDICTED BY RF-SCORE:    0.00 PKD
ROOT
HETATM    1 CA   UNL     1     -12.245   9.595  67.509  1.00  0.00    -0.099 Ca 
HETATM    2  O   UNL     2     -12.357   8.118  73.053  1.00  0.00    -0.666 OA 
HETATM    3  O   UNL     3     -11.210  14.684  63.962  1.00  0.00    -0.553 OA 
HETATM    4  H   UNL     2     -13.291   8.078  73.222  1.00  0.00     0.000 HD 
HETATM    5  C   UNL     2     -12.149   8.546  71.708  1.00  0.00    -0.333 C  
HETATM    6  C   UNL     3     -12.268  13.930  64.547  1.00  0.00    -0.417 C  
HETATM    7  H   UNL     3     -11.367  14.803  63.033  1.00  0.00     0.000 HD 
ENDROOT
BRANCH   5   8
HETATM    8  C   UNL     2     -10.632   8.611  71.433  1.00  0.00    -0.264 C  
HETATM    9  O   UNL     2      -9.959   7.974  72.514  1.00  0.00    -0.219 OA 
HETATM   10  H   UNL     2      -9.025   8.014  72.345  1.00  0.00     0.000 HD 
BRANCH   8  11
HETATM   11  C   UNL     2     -10.266   7.867  70.139  1.00  0.00    -0.202 C  
HETATM   12  H   UNL     2      -9.047   8.103  68.558  1.00  0.00     0.000 HD 
HETATM   13  O   UNL     2      -9.273   8.563  69.358  1.00  0.00    -0.152 OA 
BRANCH  11  14
HETATM   14  C   UNL     2      -9.890   6.366  70.200  1.00  0.00    -0.167 C  
HETATM   15  O   UNL     2     -10.880   5.646  70.917  1.00  0.00    -0.265 OA 
HETATM   16  H   UNL     2     -10.649   4.725  70.955  1.00  0.00     0.000 HD 
BRANCH  14  17
HETATM   17  C   UNL     2      -8.436   5.998  70.550  1.00  0.00    -0.132 C  
HETATM   18  H   UNL     2      -7.495   5.466  72.177  1.00  0.00     0.000 HD 
HETATM   19  O   UNL     2      -8.392   5.693  71.961  1.00  0.00    -0.120 OA 
BRANCH  17  20
HETATM   20  C   UNL     2      -7.805   4.888  69.710  1.00  0.00    -0.066 C  
HETATM   21  O   UNL     2      -8.701   3.765  69.558  1.00  0.00    -0.070 OA 
HETATM   22  C   UNL     2      -7.480   5.486  68.312  1.00  0.00    -0.073 C  
HETATM   23  H   UNL     2      -8.309   3.075  69.036  1.00  0.00     0.000 HD 
HETATM   24  O   UNL     2      -7.027   6.661  68.346  1.00  0.00    -0.074 OA 
HETATM   25  O   UNL     2      -7.746   4.706  67.359  1.00  0.00    -0.088 OA 
ENDBRANCH  17  20
ENDBRANCH  14  17
ENDBRANCH  11  14
ENDBRANCH   8  11
ENDBRANCH   5   8
BRANCH   6  26
HETATM   26  C   UNL     3     -12.013  13.738  66.049  1.00  0.00    -0.414 C  
HETATM   27  H   UNL     3     -11.909  12.218  67.217  1.00  0.00     0.000 HD 
HETATM   28  O   UNL     3     -12.067  12.337  66.288  1.00  0.00    -0.626 OA 
BRANCH  26  29
HETATM   29  C   UNL     3     -10.681  14.387  66.508  1.00  0.00    -0.306 C  
HETATM   30  O   UNL     3     -10.616  15.786  65.983  1.00  0.00    -0.310 OA 
HETATM   31  H   UNL     3      -9.800  16.183  66.264  1.00  0.00     0.000 HD 
BRANCH  29  32
HETATM   32  C   UNL     3     -10.571  14.600  68.033  1.00  0.00    -0.240 C  
HETATM   33  H   UNL     3     -10.948  13.493  69.618  1.00  0.00     0.000 HD 
HETATM   34  O   UNL     3     -11.017  13.363  68.680  1.00  0.00    -0.244 OA 
BRANCH  32  35
HETATM   35  C   UNL     3     -10.957  15.888  68.775  1.00  0.00    -0.301 C  
HETATM   36  H   UNL     3     -12.050  16.294  70.319  1.00  0.00     0.000 HD 
HETATM   37  O   UNL     3     -11.811  15.497  69.859  1.00  0.00    -0.317 OA 
BRANCH  35  38
HETATM   38  C   UNL     3      -9.812  16.784  69.235  1.00  0.00    -0.168 C  
HETATM   39  C   UNL     3      -9.790  18.103  68.419  1.00  0.00    -0.370 C  
HETATM   40  O   UNL     3      -8.543  16.122  69.072  1.00  0.00    -0.233 OA 
HETATM   41  O   UNL     3     -10.740  18.263  67.590  1.00  0.00    -0.419 OA 
HETATM   42  O   UNL     3      -8.705  18.741  68.515  1.00  0.00    -0.331 OA 
HETATM   43  H   UNL     3      -7.829  16.680  69.358  1.00  0.00     0.000 HD 
ENDBRANCH  35  38
ENDBRANCH  32  35
ENDBRANCH  29  32
ENDBRANCH  26  29
ENDBRANCH   6  26
TORSDOF 10
ENDMDL
MODEL      361
REMARK 921   NORMALIZED FREE ENERGY PREDICTED BY IDOCK:   -4.26 KCAL/MOL
REMARK 922        TOTAL FREE ENERGY PREDICTED BY IDOCK:   -9.25 KCAL/MOL
REMARK 923 INTER-LIGAND FREE ENERGY PREDICTED BY IDOCK:   -6.59 KCAL/MOL
REMARK 924 INTRA-LIGAND FREE ENERGY PREDICTED BY IDOCK:   -2.67 KCAL/MOL
REMARK 927      BINDING AFFINITY PREDICTED BY RF-SCORE:    0.00 PKD
ROOT
HETATM    1 CA   UNL     1      -8.076  11.894  69.832  1.00  0.00    -0.318 Ca 
HETATM    2  O   UNL     2     -12.350  12.478  66.048  1.00  0.00    -0.615 OA 
HETATM    3  O   UNL     3      -5.592   7.480  73.560  1.00  0.00    -0.045 OA 
HETATM    4  H   UNL     2     -12.997  12.948  66.561  1.00  0.00     0.000 HD 
HETATM    5  C   UNL     2     -11.226  12.188  66.878  1.00  0.00    -0.320 C  
HETATM    6  C   UNL     3      -6.510   8.569  73.582  1.00  0.00    -0.090 C  
HETATM    7  H   UNL     3      -4.949   7.579  74.252  1.00  0.00     0.000 HD 
ENDROOT
BRANCH   5   8
HETATM    8  C   UNL     2     -10.174  11.425  66.045  1.00  0.00    -0.245 C  
HETATM    9  O   UNL     2      -9.781  12.257  64.959  1.00  0.00    -0.422 OA 
HETATM   10  H   UNL     2      -9.134  11.787  64.446  1.00  0.00     0.000 HD 
BRANCH   8  11
HETATM   11  C   UNL     2      -8.923  11.108  66.880  1.00  0.00    -0.161 C  
HETATM   12  H   UNL     2      -8.464  10.566  68.760  1.00  0.00     0.000 HD 
HETATM   13  O   UNL     2      -9.237  10.762  68.244  1.00  0.00    -0.145 OA 
BRANCH  11  14
HETATM   14  C   UNL     2      -7.876  10.104  66.338  1.00  0.00    -0.114 C  
HETATM   15  O   UNL     2      -7.157  10.684  65.262  1.00  0.00    -0.304 OA 
HETATM   16  H   UNL     2      -6.515  10.068  64.930  1.00  0.00     0.000 HD 
BRANCH  14  17
HETATM   17  C   UNL     2      -8.322   8.647  66.113  1.00  0.00    -0.125 C  
HETATM   18  H   UNL     2      -8.027   7.307  64.722  1.00  0.00     0.000 HD 
HETATM   19  O   UNL     2      -7.752   8.207  64.861  1.00  0.00    -0.101 OA 
BRANCH  17  20
HETATM   20  C   UNL     2      -8.016   7.670  67.249  1.00  0.00    -0.118 C  
HETATM   21  O   UNL     2      -7.191   8.282  68.265  1.00  0.00    -0.089 OA 
HETATM   22  C   UNL     2      -9.373   7.238  67.872  1.00  0.00    -0.129 C  
HETATM   23  H   UNL     2      -7.001   7.675  68.971  1.00  0.00     0.000 HD 
HETATM   24  O   UNL     2     -10.290   7.044  67.030  1.00  0.00    -0.233 OA 
HETATM   25  O   UNL     2      -9.348   7.173  69.130  1.00  0.00    -0.143 OA 
ENDBRANCH  17  20
ENDBRANCH  14  17
ENDBRANCH  11  14
ENDBRANCH   8  11
ENDBRANCH   5   8
BRANCH   6  26
HETATM   26  C   UNL     3      -7.549   8.409  72.463  1.00  0.00    -0.084 C  
HETATM   27  H   UNL     3      -7.479   7.874  70.621  1.00  0.00     0.000 HD 
HETATM   28  O   UNL     3      -6.836   7.974  71.313  1.00  0.00    -0.044 OA 
BRANCH  26  29
HETATM   29  C   UNL     3      -8.704   7.454  72.866  1.00  0.00    -0.128 C  
HETATM   30  O   UNL     3      -9.071   7.709  74.293  1.00  0.00    -0.404 OA 
HETATM   31  H   UNL     3      -9.778   7.125  74.539  1.00  0.00     0.000 HD 
BRANCH  29  32
HETATM   32  C   UNL     3     -10.034   7.721  72.129  1.00  0.00    -0.193 C  
HETATM   33  H   UNL     3     -10.906   9.319  71.375  1.00  0.00     0.000 HD 
HETATM   34  O   UNL     3     -10.087   9.154  71.829  1.00  0.00    -0.329 OA 
BRANCH  32  35
HETATM   35  C   UNL     3     -11.388   7.091  72.493  1.00  0.00    -0.263 C  
HETATM   36  H   UNL     3     -13.236   7.527  72.123  1.00  0.00     0.000 HD 
HETATM   37  O   UNL     3     -12.399   7.916  71.898  1.00  0.00    -0.295 OA 
BRANCH  35  38
HETATM   38  C   UNL     3     -11.571   5.616  72.152  1.00  0.00    -0.137 C  
HETATM   39  C   UNL     3     -11.199   4.724  73.365  1.00  0.00    -0.343 C  
HETATM   40  O   UNL     3     -10.743   5.239  71.034  1.00  0.00    -0.213 OA 
HETATM   41  O   UNL     3     -10.895   5.338  74.436  1.00  0.00    -0.294 OA 
HETATM   42  O   UNL     3     -11.018   3.511  73.067  1.00  0.00    -0.143 OA 
HETATM   43  H   UNL     3     -10.857   4.320  70.821  1.00  0.00     0.000 HD 
ENDBRANCH  35  38
ENDBRANCH  32  35
ENDBRANCH  29  32
ENDBRANCH  26  29
ENDBRANCH   6  26
TORSDOF 10
ENDMDL
MODEL      362
REMARK 921   NORMALIZED FREE ENERGY PREDICTED BY IDOCK:   -4.26 KCAL/MOL
REMARK 922        TOTAL FREE ENERGY PREDICTED BY IDOCK:   -9.25 KCAL/MOL
REMARK 923 INTER-LIGAND FREE ENERGY PREDICTED BY IDOCK:   -7.39 KCAL/MOL
REMARK 924 INTRA-LIGAND FREE ENERGY PREDICTED BY IDOCK:   -1.86 KCAL/MOL
REMARK 927      BINDING AFFINITY PREDICTED BY RF-SCORE:    0.00 PKD
ROOT
HETATM    1 CA   UNL     1     -12.335   9.608  67.598  1.00  0.00     0.137 Ca 
HETATM    2  O   UNL     2     -12.715   8.123  73.127  1.00  0.00    -0.509 OA 
HETATM    3  O   UNL     3     -11.241  14.726  64.110  1.00  0.00    -0.601 OA 
HETATM    4  H   UNL     2     -13.656   8.058  73.244  1.00  0.00     0.000 HD 
HETATM    5  C   UNL     2     -12.444   8.558  71.796  1.00  0.00    -0.342 C  
HETATM    6  C   UNL     3     -12.309  13.943  64.637  1.00  0.00    -0.388 C  
HETATM    7  H   UNL     3     -11.350  14.842  63.174  1.00  0.00     0.000 HD 
ENDROOT
BRANCH   5   8
HETATM    8  C   UNL     2     -10.916   8.665  71.606  1.00  0.00    -0.308 C  
HETATM    9  O   UNL     2     -10.385   7.345  71.546  1.00  0.00    -0.201 OA 
HETATM   10  H   UNL     2      -9.445   7.411  71.429  1.00  0.00     0.000 HD 
BRANCH   8  11
HETATM   11  C   UNL     2     -10.565   9.380  70.292  1.00  0.00    -0.250 C  
HETATM   12  H   UNL     2      -9.261  10.757  69.628  1.00  0.00     0.000 HD 
HETATM   13  O   UNL     2      -9.478  10.315  70.441  1.00  0.00     0.127 OA 
BRANCH  11  14
HETATM   14  C   UNL     2     -10.336   8.548  69.006  1.00  0.00    -0.216 C  
HETATM   15  O   UNL     2     -11.318   7.530  68.904  1.00  0.00    -0.379 OA 
HETATM   16  H   UNL     2     -11.177   7.019  68.115  1.00  0.00     0.000 HD 
BRANCH  14  17
HETATM   17  C   UNL     2      -8.898   8.102  68.681  1.00  0.00    -0.134 C  
HETATM   18  H   UNL     2      -7.744   6.631  69.245  1.00  0.00     0.000 HD 
HETATM   19  O   UNL     2      -8.631   6.906  69.446  1.00  0.00    -0.132 OA 
BRANCH  17  20
HETATM   20  C   UNL     2      -8.575   7.911  67.199  1.00  0.00    -0.128 C  
HETATM   21  O   UNL     2      -9.626   7.191  66.517  1.00  0.00    -0.208 OA 
HETATM   22  C   UNL     2      -8.419   9.324  66.569  1.00  0.00    -0.126 C  
HETATM   23  H   UNL     2      -9.425   7.073  65.596  1.00  0.00     0.000 HD 
HETATM   24  O   UNL     2      -7.814  10.152  67.301  1.00  0.00    -0.102 OA 
HETATM   25  O   UNL     2      -8.946   9.424  65.429  1.00  0.00    -0.179 OA 
ENDBRANCH  17  20
ENDBRANCH  14  17
ENDBRANCH  11  14
ENDBRANCH   8  11
ENDBRANCH   5   8
BRANCH   6  26
HETATM   26  C   UNL     3     -12.134  13.757  66.150  1.00  0.00    -0.441 C  
HETATM   27  H   UNL     3     -11.812  12.252  67.297  1.00  0.00     0.000 HD 
HETATM   28  O   UNL     3     -11.921  12.367  66.360  1.00  0.00    -0.559 OA 
BRANCH  26  29
HETATM   29  C   UNL     3     -10.998  14.644  66.725  1.00  0.00    -0.323 C  
HETATM   30  O   UNL     3     -11.172  16.042  66.222  1.00  0.00    -0.055 OA 
HETATM   31  H   UNL     3     -10.477  16.585  66.574  1.00  0.00     0.000 HD 
BRANCH  29  32
HETATM   32  C   UNL     3     -11.053  14.833  68.256  1.00  0.00    -0.274 C  
HETATM   33  H   UNL     3     -12.473  14.720  69.617  1.00  0.00     0.000 HD 
HETATM   34  O   UNL     3     -12.439  14.605  68.675  1.00  0.00    -0.054 OA 
BRANCH  32  35
HETATM   35  C   UNL     3     -10.320  15.935  69.037  1.00  0.00    -0.231 C  
HETATM   36  H   UNL     3     -10.721  16.984  70.612  1.00  0.00     0.000 HD 
HETATM   37  O   UNL     3     -11.174  16.303  70.128  1.00  0.00    -0.358 OA 
BRANCH  35  38
HETATM   38  C   UNL     3      -8.900  15.621  69.494  1.00  0.00    -0.213 C  
HETATM   39  C   UNL     3      -7.879  16.543  68.778  1.00  0.00    -0.235 C  
HETATM   40  O   UNL     3      -8.559  14.249  69.211  1.00  0.00    -0.362 OA 
HETATM   41  O   UNL     3      -8.370  17.436  68.019  1.00  0.00    -0.218 OA 
HETATM   42  O   UNL     3      -6.686  16.138  68.858  1.00  0.00    -0.130 OA 
HETATM   43  H   UNL     3      -7.674  14.054  69.496  1.00  0.00     0.000 HD 
ENDBRANCH  35  38
ENDBRANCH  32  35
ENDBRANCH  29  32
ENDBRANCH  26  29
ENDBRANCH   6  26
TORSDOF 10
ENDMDL
MODEL      363
REMARK 921   NORMALIZED FREE ENERGY PREDICTED BY IDOCK:   -4.25 KCAL/MOL
REMARK 922        TOTAL FREE ENERGY PREDICTED BY IDOCK:   -9.23 KCAL/MOL
REMARK 923 INTER-LIGAND FREE ENERGY PREDICTED BY IDOCK:   -7.98 KCAL/MOL
REMARK 924 INTRA-LIGAND FREE ENERGY PREDICTED BY IDOCK:   -1.25 KCAL/MOL
REMARK 927      BINDING AFFINITY PREDICTED BY RF-SCORE:    0.00 PKD
ROOT
HETATM    1 CA   UNL     1     -10.583   8.103  68.253  1.00  0.00    -0.183 Ca 
HETATM    2  O   UNL     2      -8.000  10.783  63.887  1.00  0.00    -0.359 OA 
HETATM    3  O   UNL     3      -9.299   3.716  72.573  1.00  0.00    -0.112 OA 
HETATM    4  H   UNL     2      -8.379  10.338  63.138  1.00  0.00     0.000 HD 
HETATM    5  C   UNL     2      -8.496  10.180  65.081  1.00  0.00    -0.161 C  
HETATM    6  C   UNL     3      -9.898   3.875  71.290  1.00  0.00    -0.157 C  
HETATM    7  H   UNL     3      -9.895   3.267  73.160  1.00  0.00     0.000 HD 
ENDROOT
BRANCH   5   8
HETATM    8  C   UNL     2      -7.881  10.903  66.299  1.00  0.00    -0.158 C  
HETATM    9  O   UNL     2      -6.707  11.581  65.863  1.00  0.00    -0.347 OA 
HETATM   10  H   UNL     2      -6.329  12.026  66.613  1.00  0.00     0.000 HD 
BRANCH   8  11
HETATM   11  C   UNL     2      -8.849  11.949  66.875  1.00  0.00    -0.197 C  
HETATM   12  H   UNL     2      -9.140  12.944  68.596  1.00  0.00     0.000 HD 
HETATM   13  O   UNL     2      -8.542  12.298  68.240  1.00  0.00    -0.174 OA 
BRANCH  11  14
HETATM   14  C   UNL     2      -9.136  13.246  66.080  1.00  0.00     0.123 C  
HETATM   15  O   UNL     2      -8.369  14.317  66.604  1.00  0.00    -0.412 OA 
HETATM   16  H   UNL     2      -8.545  15.113  66.116  1.00  0.00     0.000 HD 
BRANCH  14  17
HETATM   17  C   UNL     2     -10.604  13.590  65.764  1.00  0.00    -0.283 C  
HETATM   18  H   UNL     2     -11.506  14.891  64.620  1.00  0.00     0.000 HD 
HETATM   19  O   UNL     2     -10.600  14.679  64.815  1.00  0.00    -0.421 OA 
BRANCH  17  20
HETATM   20  C   UNL     2     -11.477  12.427  65.290  1.00  0.00    -0.344 C  
HETATM   21  O   UNL     2     -12.859  12.616  65.665  1.00  0.00    -0.435 OA 
HETATM   22  C   UNL     2     -11.362  12.358  63.741  1.00  0.00    -0.464 C  
HETATM   23  H   UNL     2     -13.401  11.894  65.370  1.00  0.00     0.000 HD 
HETATM   24  O   UNL     2     -10.202  12.569  63.299  1.00  0.00    -0.370 OA 
HETATM   25  O   UNL     2     -12.461  12.126  63.168  1.00  0.00    -0.486 OA 
ENDBRANCH  17  20
ENDBRANCH  14  17
ENDBRANCH  11  14
ENDBRANCH   8  11
ENDBRANCH   5   8
BRANCH   6  26
HETATM   26  C   UNL     3      -8.934   4.600  70.341  1.00  0.00    -0.101 C  
HETATM   27  H   UNL     3      -8.228   4.232  68.594  1.00  0.00     0.000 HD 
HETATM   28  O   UNL     3      -8.825   3.783  69.182  1.00  0.00    -0.084 OA 
BRANCH  26  29
HETATM   29  C   UNL     3      -9.393   6.049  70.029  1.00  0.00    -0.153 C  
HETATM   30  O   UNL     3      -9.565   6.197  68.551  1.00  0.00    -0.119 OA 
HETATM   31  H   UNL     3      -9.846   7.084  68.360  1.00  0.00     0.000 HD 
BRANCH  29  32
HETATM   32  C   UNL     3     -10.800   6.397  70.562  1.00  0.00    -0.279 C  
HETATM   33  H   UNL     3     -12.620   6.347  69.810  1.00  0.00     0.000 HD 
HETATM   34  O   UNL     3     -11.754   6.134  69.482  1.00  0.00    -0.298 OA 
BRANCH  32  35
HETATM   35  C   UNL     3     -11.137   7.617  71.434  1.00  0.00    -0.238 C  
HETATM   36  H   UNL     3     -12.703   8.726  71.676  1.00  0.00     0.000 HD 
HETATM   37  O   UNL     3     -12.494   7.972  71.137  1.00  0.00    -0.284 OA 
BRANCH  35  38
HETATM   38  C   UNL     3     -10.890   7.478  72.932  1.00  0.00    -0.373 C  
HETATM   39  C   UNL     3      -9.446   7.915  73.290  1.00  0.00    -0.285 C  
HETATM   40  O   UNL     3     -11.078   6.114  73.361  1.00  0.00    -0.435 OA 
HETATM   41  O   UNL     3      -8.750   8.382  72.334  1.00  0.00    -0.195 OA 
HETATM   42  O   UNL     3      -9.069   7.533  74.433  1.00  0.00    -0.194 OA 
HETATM   43  H   UNL     3     -10.924   6.028  74.294  1.00  0.00     0.000 HD 
ENDBRANCH  35  38
ENDBRANCH  32  35
ENDBRANCH  29  32
ENDBRANCH  26  29
ENDBRANCH   6  26
TORSDOF 10
ENDMDL
MODEL      364
REMARK 921   NORMALIZED FREE ENERGY PREDICTED BY IDOCK:   -4.24 KCAL/MOL
REMARK 922        TOTAL FREE ENERGY PREDICTED BY IDOCK:   -9.22 KCAL/MOL
REMARK 923 INTER-LIGAND FREE ENERGY PREDICTED BY IDOCK:   -6.38 KCAL/MOL
REMARK 924 INTRA-LIGAND FREE ENERGY PREDICTED BY IDOCK:   -2.84 KCAL/MOL
REMARK 927      BINDING AFFINITY PREDICTED BY RF-SCORE:    0.00 PKD
ROOT
HETATM    1 CA   UNL     1     -12.101   6.523  68.010  1.00  0.00    -0.527 Ca 
HETATM    2  O   UNL     2      -9.038   1.674  68.173  1.00  0.00    -0.116 OA 
HETATM    3  O   UNL     3     -11.514  12.578  69.609  1.00  0.00    -0.396 OA 
HETATM    4  H   UNL     2      -9.430   1.224  68.913  1.00  0.00     0.000 HD 
HETATM    5  C   UNL     2      -9.652   2.954  68.033  1.00  0.00    -0.052 C  
HETATM    6  C   UNL     3     -12.033  11.342  70.093  1.00  0.00    -0.377 C  
HETATM    7  H   UNL     3     -12.183  13.251  69.643  1.00  0.00     0.000 HD 
ENDROOT
BRANCH   5   8
HETATM    8  C   UNL     2      -9.016   3.685  66.832  1.00  0.00    -0.144 C  
HETATM    9  O   UNL     2     -10.051   4.000  65.907  1.00  0.00    -0.364 OA 
HETATM   10  H   UNL     2      -9.659   4.450  65.167  1.00  0.00     0.000 HD 
BRANCH   8  11
HETATM   11  C   UNL     2      -8.349   5.000  67.268  1.00  0.00    -0.106 C  
HETATM   12  H   UNL     2      -6.694   5.601  68.235  1.00  0.00     0.000 HD 
HETATM   13  O   UNL     2      -7.106   4.789  67.966  1.00  0.00    -0.060 OA 
BRANCH  11  14
HETATM   14  C   UNL     2      -8.154   6.137  66.235  1.00  0.00    -0.113 C  
HETATM   15  O   UNL     2      -6.774   6.424  66.082  1.00  0.00    -0.050 OA 
HETATM   16  H   UNL     2      -6.654   7.122  65.448  1.00  0.00     0.000 HD 
BRANCH  14  17
HETATM   17  C   UNL     2      -9.068   7.373  66.340  1.00  0.00    -0.160 C  
HETATM   18  H   UNL     2     -10.984   7.661  66.590  1.00  0.00     0.000 HD 
HETATM   19  O   UNL     2     -10.420   6.898  66.525  1.00  0.00    -0.163 OA 
BRANCH  17  20
HETATM   20  C   UNL     2      -8.680   8.404  67.399  1.00  0.00    -0.135 C  
HETATM   21  O   UNL     2      -7.875   7.813  68.443  1.00  0.00    -0.116 OA 
HETATM   22  C   UNL     2      -7.869   9.523  66.687  1.00  0.00    -0.101 C  
HETATM   23  H   UNL     2      -7.634   8.455  69.101  1.00  0.00     0.000 HD 
HETATM   24  O   UNL     2      -8.314   9.841  65.552  1.00  0.00    -0.128 OA 
HETATM   25  O   UNL     2      -6.875   9.921  67.351  1.00  0.00    -0.080 OA 
ENDBRANCH  17  20
ENDBRANCH  14  17
ENDBRANCH  11  14
ENDBRANCH   8  11
ENDBRANCH   5   8
BRANCH   6  26
HETATM   26  C   UNL     3     -10.952  10.254  70.037  1.00  0.00    -0.311 C  
HETATM   27  H   UNL     3      -9.074  10.236  69.638  1.00  0.00     0.000 HD 
HETATM   28  O   UNL     3      -9.744  10.910  69.673  1.00  0.00    -0.004 OA 
BRANCH  26  29
HETATM   29  C   UNL     3     -10.843   9.463  71.367  1.00  0.00    -0.360 C  
HETATM   30  O   UNL     3     -12.218   9.231  71.908  1.00  0.00    -0.356 OA 
HETATM   31  H   UNL     3     -12.151   8.747  72.723  1.00  0.00     0.000 HD 
BRANCH  29  32
HETATM   32  C   UNL     3     -10.303   8.025  71.208  1.00  0.00    -0.193 C  
HETATM   33  H   UNL     3     -10.813   6.465  70.119  1.00  0.00     0.000 HD 
HETATM   34  O   UNL     3     -11.145   7.350  70.217  1.00  0.00    -0.259 OA 
BRANCH  32  35
HETATM   35  C   UNL     3      -9.823   7.130  72.360  1.00  0.00    -0.150 C  
HETATM   36  H   UNL     3      -8.784   7.418  73.966  1.00  0.00     0.000 HD 
HETATM   37  O   UNL     3      -9.081   7.971  73.253  1.00  0.00    -0.247 OA 
BRANCH  35  38
HETATM   38  C   UNL     3     -10.888   6.315  73.085  1.00  0.00    -0.254 C  
HETATM   39  C   UNL     3     -10.465   4.825  73.181  1.00  0.00    -0.201 C  
HETATM   40  O   UNL     3     -12.152   6.390  72.395  1.00  0.00    -0.490 OA 
HETATM   41  O   UNL     3      -9.308   4.544  72.737  1.00  0.00    -0.126 OA 
HETATM   42  O   UNL     3     -11.414   4.046  73.472  1.00  0.00    -0.244 OA 
HETATM   43  H   UNL     3     -12.816   5.882  72.846  1.00  0.00     0.000 HD 
ENDBRANCH  35  38
ENDBRANCH  32  35
ENDBRANCH  29  32
ENDBRANCH  26  29
ENDBRANCH   6  26
TORSDOF 10
ENDMDL
MODEL      365
REMARK 921   NORMALIZED FREE ENERGY PREDICTED BY IDOCK:   -4.23 KCAL/MOL
REMARK 922        TOTAL FREE ENERGY PREDICTED BY IDOCK:   -9.21 KCAL/MOL
REMARK 923 INTER-LIGAND FREE ENERGY PREDICTED BY IDOCK:   -7.70 KCAL/MOL
REMARK 924 INTRA-LIGAND FREE ENERGY PREDICTED BY IDOCK:   -1.51 KCAL/MOL
REMARK 927      BINDING AFFINITY PREDICTED BY RF-SCORE:    0.00 PKD
ROOT
HETATM    1 CA   UNL     1     -10.167  14.195  67.196  1.00  0.00    -0.235 Ca 
HETATM    2  O   UNL     2      -6.692  10.178  69.366  1.00  0.00    -0.053 OA 
HETATM    3  O   UNL     3     -10.002  20.281  65.618  1.00  0.00    -0.572 OA 
HETATM    4  H   UNL     2      -6.994  10.129  70.266  1.00  0.00     0.000 HD 
HETATM    5  C   UNL     2      -7.422  11.200  68.689  1.00  0.00    -0.119 C  
HETATM    6  C   UNL     3     -10.380  19.416  66.685  1.00  0.00    -0.457 C  
HETATM    7  H   UNL     3     -10.723  20.856  65.391  1.00  0.00     0.000 HD 
ENDROOT
BRANCH   5   8
HETATM    8  C   UNL     2      -6.931  11.281  67.228  1.00  0.00    -0.109 C  
HETATM    9  O   UNL     2      -6.004  10.221  67.015  1.00  0.00    -0.050 OA 
HETATM   10  H   UNL     2      -5.702  10.271  66.115  1.00  0.00     0.000 HD 
BRANCH   8  11
HETATM   11  C   UNL     2      -8.093  11.104  66.238  1.00  0.00    -0.142 C  
HETATM   12  H   UNL     2      -9.020   9.618  65.253  1.00  0.00     0.000 HD 
HETATM   13  O   UNL     2      -8.302   9.727  65.865  1.00  0.00    -0.121 OA 
BRANCH  11  14
HETATM   14  C   UNL     2      -9.466  11.752  66.546  1.00  0.00    -0.214 C  
HETATM   15  O   UNL     2      -9.538  12.109  67.916  1.00  0.00    -0.185 OA 
HETATM   16  H   UNL     2     -10.380  12.507  68.105  1.00  0.00     0.000 HD 
BRANCH  14  17
HETATM   17  C   UNL     2     -10.728  11.072  65.982  1.00  0.00    -0.177 C  
HETATM   18  H   UNL     2     -12.072   9.843  66.690  1.00  0.00     0.000 HD 
HETATM   19  O   UNL     2     -11.293  10.262  67.038  1.00  0.00    -0.177 OA 
BRANCH  17  20
HETATM   20  C   UNL     2     -11.770  12.003  65.363  1.00  0.00    -0.255 C  
HETATM   21  O   UNL     2     -11.890  13.234  66.110  1.00  0.00    -0.352 OA 
HETATM   22  C   UNL     2     -11.311  12.319  63.911  1.00  0.00    -0.429 C  
HETATM   23  H   UNL     2     -12.538  13.812  65.725  1.00  0.00     0.000 HD 
HETATM   24  O   UNL     2     -10.823  11.332  63.298  1.00  0.00    -0.326 OA 
HETATM   25  O   UNL     2     -11.479  13.524  63.585  1.00  0.00    -0.257 OA 
ENDBRANCH  17  20
ENDBRANCH  14  17
ENDBRANCH  11  14
ENDBRANCH   8  11
ENDBRANCH   5   8
BRANCH   6  26
HETATM   26  C   UNL     3      -9.214  18.487  67.052  1.00  0.00    -0.284 C  
HETATM   27  H   UNL     3      -7.316  18.528  66.774  1.00  0.00     0.000 HD 
HETATM   28  O   UNL     3      -8.037  19.103  66.547  1.00  0.00    -0.274 OA 
BRANCH  26  29
HETATM   29  C   UNL     3      -9.149  18.198  68.575  1.00  0.00    -0.306 C  
HETATM   30  O   UNL     3     -10.178  19.030  69.272  1.00  0.00    -0.530 OA 
HETATM   31  H   UNL     3     -10.138  18.853  70.205  1.00  0.00     0.000 HD 
BRANCH  29  32
HETATM   32  C   UNL     3      -9.563  16.763  68.967  1.00  0.00    -0.230 C  
HETATM   33  H   UNL     3      -9.183  14.967  68.253  1.00  0.00     0.000 HD 
HETATM   34  O   UNL     3      -8.929  15.850  68.012  1.00  0.00    -0.180 OA 
BRANCH  32  35
HETATM   35  C   UNL     3     -10.968  16.342  69.423  1.00  0.00    -0.337 C  
HETATM   36  H   UNL     3     -12.768  16.791  68.875  1.00  0.00     0.000 HD 
HETATM   37  O   UNL     3     -11.899  17.052  68.594  1.00  0.00     0.433 OA 
BRANCH  35  38
HETATM   38  C   UNL     3     -11.256  14.845  69.464  1.00  0.00    -0.277 C  
HETATM   39  C   UNL     3     -12.263  14.513  70.596  1.00  0.00    -0.331 C  
HETATM   40  O   UNL     3     -10.046  14.095  69.691  1.00  0.00    -0.395 OA 
HETATM   41  O   UNL     3     -12.738  15.507  71.230  1.00  0.00    -0.398 OA 
HETATM   42  O   UNL     3     -12.303  13.288  70.897  1.00  0.00    -0.364 OA 
HETATM   43  H   UNL     3     -10.225  13.162  69.717  1.00  0.00     0.000 HD 
ENDBRANCH  35  38
ENDBRANCH  32  35
ENDBRANCH  29  32
ENDBRANCH  26  29
ENDBRANCH   6  26
TORSDOF 10
ENDMDL
MODEL      366
REMARK 921   NORMALIZED FREE ENERGY PREDICTED BY IDOCK:   -4.23 KCAL/MOL
REMARK 922        TOTAL FREE ENERGY PREDICTED BY IDOCK:   -9.20 KCAL/MOL
REMARK 923 INTER-LIGAND FREE ENERGY PREDICTED BY IDOCK:   -8.82 KCAL/MOL
REMARK 924 INTRA-LIGAND FREE ENERGY PREDICTED BY IDOCK:   -0.38 KCAL/MOL
REMARK 927      BINDING AFFINITY PREDICTED BY RF-SCORE:    0.00 PKD
ROOT
HETATM    1 CA   UNL     1      -8.116  12.182  65.869  1.00  0.00    -0.354 Ca 
HETATM    2  O   UNL     2     -11.279   7.725  67.616  1.00  0.00    -0.467 OA 
HETATM    3  O   UNL     3      -7.626  18.366  66.905  1.00  0.00    -0.208 OA 
HETATM    4  H   UNL     2     -11.869   7.609  66.880  1.00  0.00     0.000 HD 
HETATM    5  C   UNL     2     -10.451   8.860  67.368  1.00  0.00    -0.277 C  
HETATM    6  C   UNL     3      -8.217  17.430  66.008  1.00  0.00    -0.126 C  
HETATM    7  H   UNL     3      -7.126  19.012  66.421  1.00  0.00     0.000 HD 
ENDROOT
BRANCH   5   8
HETATM    8  C   UNL     2      -9.492   9.049  68.563  1.00  0.00    -0.143 C  
HETATM    9  O   UNL     2      -8.584  10.096  68.239  1.00  0.00    -0.113 OA 
HETATM   10  H   UNL     2      -7.994  10.213  68.975  1.00  0.00     0.000 HD 
BRANCH   8  11
HETATM   11  C   UNL     2     -10.257   9.457  69.832  1.00  0.00    -0.222 C  
HETATM   12  H   UNL     2     -11.999  10.328  70.328  1.00  0.00     0.000 HD 
HETATM   13  O   UNL     2     -11.526  10.076  69.543  1.00  0.00    -0.208 OA 
BRANCH  11  14
HETATM   14  C   UNL     2     -10.452   8.427  70.972  1.00  0.00    -0.206 C  
HETATM   15  O   UNL     2     -10.624   9.098  72.210  1.00  0.00    -0.185 OA 
HETATM   16  H   UNL     2     -10.743   8.465  72.909  1.00  0.00     0.000 HD 
BRANCH  14  17
HETATM   17  C   UNL     2      -9.507   7.211  71.016  1.00  0.00    -0.159 C  
HETATM   18  H   UNL     2      -9.060   5.760  69.787  1.00  0.00     0.000 HD 
HETATM   19  O   UNL     2      -9.643   6.510  69.760  1.00  0.00    -0.152 OA 
BRANCH  17  20
HETATM   20  C   UNL     2      -8.044   7.511  71.342  1.00  0.00    -0.096 C  
HETATM   21  O   UNL     2      -7.883   8.848  71.865  1.00  0.00    -0.320 OA 
HETATM   22  C   UNL     2      -7.581   6.476  72.406  1.00  0.00    -0.095 C  
HETATM   23  H   UNL     2      -6.973   9.034  72.068  1.00  0.00     0.000 HD 
HETATM   24  O   UNL     2      -8.015   5.309  72.215  1.00  0.00    -0.103 OA 
HETATM   25  O   UNL     2      -6.861   6.977  73.311  1.00  0.00    -0.073 OA 
ENDBRANCH  17  20
ENDBRANCH  14  17
ENDBRANCH  11  14
ENDBRANCH   8  11
ENDBRANCH   5   8
BRANCH   6  26
HETATM   26  C   UNL     3      -9.027  16.386  66.791  1.00  0.00    -0.236 C  
HETATM   27  H   UNL     3      -9.387  16.072  68.649  1.00  0.00     0.000 HD 
HETATM   28  O   UNL     3      -8.886  16.718  68.166  1.00  0.00    -0.211 OA 
BRANCH  26  29
HETATM   29  C   UNL     3     -10.505  16.318  66.325  1.00  0.00    -0.308 C  
HETATM   30  O   UNL     3     -11.019  17.709  66.132  1.00  0.00    -0.033 OA 
HETATM   31  H   UNL     3     -11.924  17.667  65.847  1.00  0.00     0.000 HD 
BRANCH  29  32
HETATM   32  C   UNL     3     -10.702  15.695  64.925  1.00  0.00    -0.382 C  
HETATM   33  H   UNL     3     -11.412  16.344  63.206  1.00  0.00     0.000 HD 
HETATM   34  O   UNL     3     -11.292  16.726  64.068  1.00  0.00    -1.153 OA 
BRANCH  32  35
HETATM   35  C   UNL     3     -11.206  14.269  64.655  1.00  0.00    -0.366 C  
HETATM   36  H   UNL     3     -10.356  12.556  64.369  1.00  0.00     0.000 HD 
HETATM   37  O   UNL     3     -10.044  13.438  64.535  1.00  0.00    -0.341 OA 
BRANCH  35  38
HETATM   38  C   UNL     3     -12.223  13.704  65.641  1.00  0.00    -0.454 C  
HETATM   39  C   UNL     3     -11.511  12.894  66.756  1.00  0.00    -0.340 C  
HETATM   40  O   UNL     3     -13.163  12.839  64.973  1.00  0.00    -0.768 OA 
HETATM   41  O   UNL     3     -10.240  12.899  66.725  1.00  0.00    -0.235 OA 
HETATM   42  O   UNL     3     -12.286  12.143  67.411  1.00  0.00    -0.486 OA 
HETATM   43  H   UNL     3     -13.796  12.487  65.587  1.00  0.00     0.000 HD 
ENDBRANCH  35  38
ENDBRANCH  32  35
ENDBRANCH  29  32
ENDBRANCH  26  29
ENDBRANCH   6  26
TORSDOF 10
ENDMDL
MODEL      367
REMARK 921   NORMALIZED FREE ENERGY PREDICTED BY IDOCK:   -4.22 KCAL/MOL
REMARK 922        TOTAL FREE ENERGY PREDICTED BY IDOCK:   -9.18 KCAL/MOL
REMARK 923 INTER-LIGAND FREE ENERGY PREDICTED BY IDOCK:   -7.46 KCAL/MOL
REMARK 924 INTRA-LIGAND FREE ENERGY PREDICTED BY IDOCK:   -1.72 KCAL/MOL
REMARK 927      BINDING AFFINITY PREDICTED BY RF-SCORE:    0.00 PKD
ROOT
HETATM    1 CA   UNL     1      -7.458  10.662  67.671  1.00  0.00    -0.082 Ca 
HETATM    2  O   UNL     2      -6.776   5.055  68.685  1.00  0.00    -0.047 OA 
HETATM    3  O   UNL     3     -11.860  14.608  65.527  1.00  0.00    -0.349 OA 
HETATM    4  H   UNL     2      -6.250   4.788  67.940  1.00  0.00     0.000 HD 
HETATM    5  C   UNL     2      -7.098   6.439  68.551  1.00  0.00    -0.083 C  
HETATM    6  C   UNL     3     -10.720  13.870  65.096  1.00  0.00    -0.362 C  
HETATM    7  H   UNL     3     -11.772  15.521  65.282  1.00  0.00     0.000 HD 
ENDROOT
BRANCH   5   8
HETATM    8  C   UNL     2      -7.952   6.873  69.761  1.00  0.00    -0.124 C  
HETATM    9  O   UNL     2      -7.349   8.027  70.336  1.00  0.00    -0.061 OA 
HETATM   10  H   UNL     2      -7.875   8.294  71.081  1.00  0.00     0.000 HD 
BRANCH   8  11
HETATM   11  C   UNL     2      -9.380   7.245  69.332  1.00  0.00    -0.151 C  
HETATM   12  H   UNL     2     -10.405   7.580  67.635  1.00  0.00     0.000 HD 
HETATM   13  O   UNL     2      -9.522   7.350  67.901  1.00  0.00    -0.139 OA 
BRANCH  11  14
HETATM   14  C   UNL     2     -10.581   6.444  69.894  1.00  0.00    -0.243 C  
HETATM   15  O   UNL     2     -11.682   6.529  69.004  1.00  0.00    -0.595 OA 
HETATM   16  H   UNL     2     -12.418   6.038  69.349  1.00  0.00     0.000 HD 
BRANCH  14  17
HETATM   17  C   UNL     2     -10.932   6.620  71.383  1.00  0.00    -0.250 C  
HETATM   18  H   UNL     2     -10.092   6.118  73.073  1.00  0.00     0.000 HD 
HETATM   19  O   UNL     2      -9.874   6.009  72.154  1.00  0.00    -0.162 OA 
BRANCH  17  20
HETATM   20  C   UNL     2     -11.213   8.051  71.840  1.00  0.00    -0.280 C  
HETATM   21  O   UNL     2     -10.382   9.003  71.140  1.00  0.00    -0.239 OA 
HETATM   22  C   UNL     2     -12.710   8.352  71.546  1.00  0.00    -0.308 C  
HETATM   23  H   UNL     2     -10.556   9.892  71.424  1.00  0.00     0.000 HD 
HETATM   24  O   UNL     2     -13.487   7.390  71.788  1.00  0.00    -0.353 OA 
HETATM   25  O   UNL     2     -12.907   9.508  71.085  1.00  0.00    -0.321 OA 
ENDBRANCH  17  20
ENDBRANCH  14  17
ENDBRANCH  11  14
ENDBRANCH   8  11
ENDBRANCH   5   8
BRANCH   6  26
HETATM   26  C   UNL     3     -10.864  12.394  65.492  1.00  0.00    -0.281 C  
HETATM   27  H   UNL     3     -12.315  11.294  66.099  1.00  0.00     0.000 HD 
HETATM   28  O   UNL     3     -12.226  12.207  65.854  1.00  0.00    -0.604 OA 
BRANCH  26  29
HETATM   29  C   UNL     3     -10.391  11.434  64.368  1.00  0.00    -0.320 C  
HETATM   30  O   UNL     3      -9.305  12.101  63.585  1.00  0.00    -0.558 OA 
HETATM   31  H   UNL     3      -9.016  11.513  62.897  1.00  0.00     0.000 HD 
BRANCH  29  32
HETATM   32  C   UNL     3      -9.694  10.154  64.878  1.00  0.00    -0.324 C  
HETATM   33  H   UNL     3      -8.877   9.606  66.585  1.00  0.00     0.000 HD 
HETATM   34  O   UNL     3      -9.306  10.394  66.271  1.00  0.00    -0.159 OA 
BRANCH  32  35
HETATM   35  C   UNL     3      -8.696   9.310  64.070  1.00  0.00    -0.171 C  
HETATM   36  H   UNL     3      -8.486   8.874  62.198  1.00  0.00     0.000 HD 
HETATM   37  O   UNL     3      -9.102   9.396  62.698  1.00  0.00    -0.252 OA 
BRANCH  35  38
HETATM   38  C   UNL     3      -7.217   9.631  64.257  1.00  0.00    -0.122 C  
HETATM   39  C   UNL     3      -6.485   8.452  64.949  1.00  0.00    -0.064 C  
HETATM   40  O   UNL     3      -7.045  10.815  65.061  1.00  0.00    -0.357 OA 
HETATM   41  O   UNL     3      -7.183   7.412  65.165  1.00  0.00    -0.061 OA 
HETATM   42  O   UNL     3      -5.355   8.762  65.419  1.00  0.00    -0.037 OA 
HETATM   43  H   UNL     3      -6.123  11.015  65.178  1.00  0.00     0.000 HD 
ENDBRANCH  35  38
ENDBRANCH  32  35
ENDBRANCH  29  32
ENDBRANCH  26  29
ENDBRANCH   6  26
TORSDOF 10
ENDMDL
MODEL      368
REMARK 921   NORMALIZED FREE ENERGY PREDICTED BY IDOCK:   -4.21 KCAL/MOL
REMARK 922        TOTAL FREE ENERGY PREDICTED BY IDOCK:   -9.18 KCAL/MOL
REMARK 923 INTER-LIGAND FREE ENERGY PREDICTED BY IDOCK:   -7.68 KCAL/MOL
REMARK 924 INTRA-LIGAND FREE ENERGY PREDICTED BY IDOCK:   -1.50 KCAL/MOL
REMARK 927      BINDING AFFINITY PREDICTED BY RF-SCORE:    0.00 PKD
ROOT
HETATM    1 CA   UNL     1     -12.282  10.201  67.678  1.00  0.00    -0.361 Ca 
HETATM    2  O   UNL     2     -10.948  14.627  64.278  1.00  0.00    -0.605 OA 
HETATM    3  O   UNL     3      -9.744   6.873  72.372  1.00  0.00    -0.154 OA 
HETATM    4  H   UNL     2     -10.725  14.185  63.467  1.00  0.00     0.000 HD 
HETATM    5  C   UNL     2     -11.247  13.646  65.271  1.00  0.00    -0.299 C  
HETATM    6  C   UNL     3      -9.919   6.852  70.958  1.00  0.00    -0.188 C  
HETATM    7  H   UNL     3     -10.045   6.057  72.752  1.00  0.00     0.000 HD 
ENDROOT
BRANCH   5   8
HETATM    8  C   UNL     2     -11.610  14.363  66.588  1.00  0.00    -0.384 C  
HETATM    9  O   UNL     2     -12.347  13.454  67.398  1.00  0.00    -0.260 OA 
HETATM   10  H   UNL     2     -12.570  13.895  68.209  1.00  0.00     0.000 HD 
BRANCH   8  11
HETATM   11  C   UNL     2     -10.349  14.778  67.364  1.00  0.00    -0.242 C  
HETATM   12  H   UNL     2      -8.354  14.596  67.204  1.00  0.00     0.000 HD 
HETATM   13  O   UNL     2      -9.133  14.340  66.725  1.00  0.00    -0.249 OA 
BRANCH  11  14
HETATM   14  C   UNL     2     -10.175  16.251  67.809  1.00  0.00    -0.270 C  
HETATM   15  O   UNL     2     -11.384  16.734  68.374  1.00  0.00    -0.283 OA 
HETATM   16  H   UNL     2     -11.277  17.638  68.648  1.00  0.00     0.000 HD 
BRANCH  14  17
HETATM   17  C   UNL     2      -9.476  17.222  66.839  1.00  0.00    -0.257 C  
HETATM   18  H   UNL     2      -9.970  18.105  65.168  1.00  0.00     0.000 HD 
HETATM   19  O   UNL     2     -10.402  17.506  65.767  1.00  0.00    -0.560 OA 
BRANCH  17  20
HETATM   20  C   UNL     2      -8.918  18.503  67.460  1.00  0.00    -0.276 C  
HETATM   21  O   UNL     2      -7.647  18.863  66.876  1.00  0.00    -0.222 OA 
HETATM   22  C   UNL     2      -9.950  19.636  67.200  1.00  0.00    -0.387 C  
HETATM   23  H   UNL     2      -7.300  19.659  67.262  1.00  0.00     0.000 HD 
HETATM   24  O   UNL     2     -11.151  19.280  67.328  1.00  0.00    -0.442 OA 
HETATM   25  O   UNL     2      -9.418  20.732  66.877  1.00  0.00    -0.315 OA 
ENDBRANCH  17  20
ENDBRANCH  14  17
ENDBRANCH  11  14
ENDBRANCH   8  11
ENDBRANCH   5   8
BRANCH   6  26
HETATM   26  C   UNL     3      -9.432   8.172  70.344  1.00  0.00    -0.163 C  
HETATM   27  H   UNL     3      -9.696  10.029  70.752  1.00  0.00     0.000 HD 
HETATM   28  O   UNL     3      -9.997   9.212  71.132  1.00  0.00    -0.268 OA 
BRANCH  26  29
HETATM   29  C   UNL     3      -7.885   8.243  70.252  1.00  0.00    -0.092 C  
HETATM   30  O   UNL     3      -7.409   7.223  69.268  1.00  0.00    -0.082 OA 
HETATM   31  H   UNL     3      -6.462   7.267  69.212  1.00  0.00     0.000 HD 
BRANCH  29  32
HETATM   32  C   UNL     3      -7.345   9.559  69.652  1.00  0.00    -0.084 C  
HETATM   33  H   UNL     3      -6.435  11.146  70.382  1.00  0.00     0.000 HD 
HETATM   34  O   UNL     3      -6.767  10.337  70.751  1.00  0.00    -0.322 OA 
BRANCH  32  35
HETATM   35  C   UNL     3      -8.056  10.397  68.577  1.00  0.00    -0.116 C  
HETATM   36  H   UNL     3      -8.216  12.290  68.212  1.00  0.00     0.000 HD 
HETATM   37  O   UNL     3      -7.777  11.771  68.876  1.00  0.00    -0.116 OA 
BRANCH  35  38
HETATM   38  C   UNL     3      -7.752  10.048  67.124  1.00  0.00    -0.092 C  
HETATM   39  C   UNL     3      -8.998   9.427  66.440  1.00  0.00    -0.152 C  
HETATM   40  O   UNL     3      -6.664   9.108  67.037  1.00  0.00    -0.070 OA 
HETATM   41  O   UNL     3     -10.058   9.387  67.140  1.00  0.00    -0.198 OA 
HETATM   42  O   UNL     3      -8.738   8.830  65.359  1.00  0.00    -0.171 OA 
HETATM   43  H   UNL     3      -6.474   8.891  66.131  1.00  0.00     0.000 HD 
ENDBRANCH  35  38
ENDBRANCH  32  35
ENDBRANCH  29  32
ENDBRANCH  26  29
ENDBRANCH   6  26
TORSDOF 10
ENDMDL
MODEL      369
REMARK 921   NORMALIZED FREE ENERGY PREDICTED BY IDOCK:   -4.20 KCAL/MOL
REMARK 922        TOTAL FREE ENERGY PREDICTED BY IDOCK:   -9.15 KCAL/MOL
REMARK 923 INTER-LIGAND FREE ENERGY PREDICTED BY IDOCK:   -8.40 KCAL/MOL
REMARK 924 INTRA-LIGAND FREE ENERGY PREDICTED BY IDOCK:   -0.76 KCAL/MOL
REMARK 927      BINDING AFFINITY PREDICTED BY RF-SCORE:    0.00 PKD
ROOT
HETATM    1 CA   UNL     1     -10.367  11.386  70.733  1.00  0.00    -0.137 Ca 
HETATM    2  O   UNL     2     -14.144  15.703  70.862  1.00  0.00    -0.821 OA 
HETATM    3  O   UNL     3      -7.256   7.912  66.513  1.00  0.00    -0.079 OA 
HETATM    4  H   UNL     2     -14.952  15.245  71.064  1.00  0.00     0.000 HD 
HETATM    5  C   UNL     2     -13.094  14.748  70.726  1.00  0.00    -0.336 C  
HETATM    6  C   UNL     3      -8.430   7.897  67.321  1.00  0.00    -0.121 C  
HETATM    7  H   UNL     3      -6.753   7.118  66.652  1.00  0.00     0.000 HD 
ENDROOT
BRANCH   5   8
HETATM    8  C   UNL     2     -11.781  15.492  70.399  1.00  0.00    -0.339 C  
HETATM    9  O   UNL     2     -10.926  15.398  71.533  1.00  0.00    -0.430 OA 
HETATM   10  H   UNL     2     -10.118  15.856  71.332  1.00  0.00     0.000 HD 
BRANCH   8  11
HETATM   11  C   UNL     2     -11.059  14.851  69.203  1.00  0.00    -0.269 C  
HETATM   12  H   UNL     2     -10.767  13.022  68.424  1.00  0.00     0.000 HD 
HETATM   13  O   UNL     2     -11.213  13.418  69.163  1.00  0.00    -0.255 OA 
BRANCH  11  14
HETATM   14  C   UNL     2     -11.286  15.417  67.780  1.00  0.00    -0.321 C  
HETATM   15  O   UNL     2     -12.340  14.717  67.140  1.00  0.00    -0.533 OA 
HETATM   16  H   UNL     2     -12.479  15.064  66.266  1.00  0.00     0.000 HD 
BRANCH  14  17
HETATM   17  C   UNL     2     -10.048  15.678  66.900  1.00  0.00    -0.263 C  
HETATM   18  H   UNL     2      -9.576  15.331  65.037  1.00  0.00     0.000 HD 
HETATM   19  O   UNL     2     -10.340  15.170  65.579  1.00  0.00    -0.316 OA 
BRANCH  17  20
HETATM   20  C   UNL     2      -9.550  17.122  66.855  1.00  0.00    -0.262 C  
HETATM   21  O   UNL     2     -10.629  18.060  67.069  1.00  0.00    -0.366 OA 
HETATM   22  C   UNL     2      -8.488  17.286  67.979  1.00  0.00    -0.229 C  
HETATM   23  H   UNL     2     -10.319  18.958  67.040  1.00  0.00     0.000 HD 
HETATM   24  O   UNL     2      -7.716  16.299  68.108  1.00  0.00    -0.150 OA 
HETATM   25  O   UNL     2      -8.585  18.377  68.603  1.00  0.00    -0.326 OA 
ENDBRANCH  17  20
ENDBRANCH  14  17
ENDBRANCH  11  14
ENDBRANCH   8  11
ENDBRANCH   5   8
BRANCH   6  26
HETATM   26  C   UNL     3      -9.242   9.181  67.097  1.00  0.00    -0.133 C  
HETATM   27  H   UNL     3     -10.885   9.599  66.198  1.00  0.00     0.000 HD 
HETATM   28  O   UNL     3     -10.383   8.805  66.336  1.00  0.00    -0.271 OA 
BRANCH  26  29
HETATM   29  C   UNL     3      -9.601   9.890  68.430  1.00  0.00    -0.148 C  
HETATM   30  O   UNL     3     -10.288  11.182  68.123  1.00  0.00    -0.176 OA 
HETATM   31  H   UNL     3     -10.508  11.616  68.939  1.00  0.00     0.000 HD 
BRANCH  29  32
HETATM   32  C   UNL     3     -10.655   9.148  69.280  1.00  0.00    -0.216 C  
HETATM   33  H   UNL     3     -12.432   9.605  69.995  1.00  0.00     0.000 HD 
HETATM   34  O   UNL     3     -11.783  10.062  69.472  1.00  0.00    -0.131 OA 
BRANCH  32  35
HETATM   35  C   UNL     3     -10.343   8.250  70.487  1.00  0.00    -0.202 C  
HETATM   36  H   UNL     3     -10.202   8.534  72.395  1.00  0.00     0.000 HD 
HETATM   37  O   UNL     3     -10.395   9.089  71.648  1.00  0.00    -0.311 OA 
BRANCH  35  38
HETATM   38  C   UNL     3     -11.191   6.992  70.643  1.00  0.00    -0.288 C  
HETATM   39  C   UNL     3     -12.235   7.174  71.775  1.00  0.00    -0.344 C  
HETATM   40  O   UNL     3     -10.368   5.851  70.956  1.00  0.00    -0.205 OA 
HETATM   41  O   UNL     3     -12.277   8.324  72.316  1.00  0.00    -0.344 OA 
HETATM   42  O   UNL     3     -12.746   6.091  72.174  1.00  0.00    -0.076 OA 
HETATM   43  H   UNL     3     -10.896   5.067  71.053  1.00  0.00     0.000 HD 
ENDBRANCH  35  38
ENDBRANCH  32  35
ENDBRANCH  29  32
ENDBRANCH  26  29
ENDBRANCH   6  26
TORSDOF 10
ENDMDL
MODEL      370
REMARK 921   NORMALIZED FREE ENERGY PREDICTED BY IDOCK:   -4.20 KCAL/MOL
REMARK 922        TOTAL FREE ENERGY PREDICTED BY IDOCK:   -9.15 KCAL/MOL
REMARK 923 INTER-LIGAND FREE ENERGY PREDICTED BY IDOCK:   -8.39 KCAL/MOL
REMARK 924 INTRA-LIGAND FREE ENERGY PREDICTED BY IDOCK:   -0.76 KCAL/MOL
REMARK 927      BINDING AFFINITY PREDICTED BY RF-SCORE:    0.00 PKD
ROOT
HETATM    1 CA   UNL     1      -8.918  14.429  69.444  1.00  0.00    -0.232 Ca 
HETATM    2  O   UNL     2      -6.806   9.102  69.166  1.00  0.00    -0.050 OA 
HETATM    3  O   UNL     3      -9.402  19.550  65.826  1.00  0.00    -0.386 OA 
HETATM    4  H   UNL     2      -6.004   9.187  69.668  1.00  0.00     0.000 HD 
HETATM    5  C   UNL     2      -7.434  10.380  69.079  1.00  0.00    -0.106 C  
HETATM    6  C   UNL     3      -8.587  18.980  66.846  1.00  0.00    -0.295 C  
HETATM    7  H   UNL     3      -9.667  20.429  66.071  1.00  0.00     0.000 HD 
ENDROOT
BRANCH   5   8
HETATM    8  C   UNL     2      -8.736  10.242  68.262  1.00  0.00    -0.126 C  
HETATM    9  O   UNL     2      -8.622   9.084  67.441  1.00  0.00    -0.115 OA 
HETATM   10  H   UNL     2      -9.424   8.999  66.939  1.00  0.00     0.000 HD 
BRANCH   8  11
HETATM   11  C   UNL     2      -9.954  10.057  69.181  1.00  0.00    -0.204 C  
HETATM   12  H   UNL     2     -11.958  10.145  69.062  1.00  0.00     0.000 HD 
HETATM   13  O   UNL     2     -11.205  10.259  68.494  1.00  0.00    -0.252 OA 
BRANCH  11  14
HETATM   14  C   UNL     2     -10.066   8.784  70.057  1.00  0.00    -0.190 C  
HETATM   15  O   UNL     2      -9.662   9.072  71.386  1.00  0.00    -0.276 OA 
HETATM   16  H   UNL     2      -9.730   8.291  71.923  1.00  0.00     0.000 HD 
BRANCH  14  17
HETATM   17  C   UNL     2      -9.522   7.462  69.483  1.00  0.00    -0.155 C  
HETATM   18  H   UNL     2      -8.496   5.961  70.196  1.00  0.00     0.000 HD 
HETATM   19  O   UNL     2      -8.831   6.777  70.551  1.00  0.00    -0.149 OA 
BRANCH  17  20
HETATM   20  C   UNL     2     -10.546   6.558  68.798  1.00  0.00    -0.243 C  
HETATM   21  O   UNL     2     -11.299   7.276  67.795  1.00  0.00    -0.485 OA 
HETATM   22  C   UNL     2      -9.767   5.392  68.128  1.00  0.00    -0.137 C  
HETATM   23  H   UNL     2     -11.936   6.714  67.370  1.00  0.00     0.000 HD 
HETATM   24  O   UNL     2      -8.812   4.946  68.817  1.00  0.00    -0.092 OA 
HETATM   25  O   UNL     2     -10.201   5.093  66.983  1.00  0.00    -0.196 OA 
ENDBRANCH  17  20
ENDBRANCH  14  17
ENDBRANCH  11  14
ENDBRANCH   8  11
ENDBRANCH   5   8
BRANCH   6  26
HETATM   26  C   UNL     3      -8.158  17.560  66.449  1.00  0.00    -0.274 C  
HETATM   27  H   UNL     3      -6.476  16.647  66.312  1.00  0.00     0.000 HD 
HETATM   28  O   UNL     3      -6.741  17.525  66.558  1.00  0.00    -0.191 OA 
BRANCH  26  29
HETATM   29  C   UNL     3      -8.865  16.472  67.300  1.00  0.00    -0.192 C  
HETATM   30  O   UNL     3      -8.819  16.875  68.740  1.00  0.00    -0.261 OA 
HETATM   31  H   UNL     3      -9.252  16.208  69.260  1.00  0.00     0.000 HD 
BRANCH  29  32
HETATM   32  C   UNL     3     -10.382  16.349  67.039  1.00  0.00    -0.293 C  
HETATM   33  H   UNL     3     -11.983  16.248  68.183  1.00  0.00     0.000 HD 
HETATM   34  O   UNL     3     -11.049  16.323  68.344  1.00  0.00    -0.340 OA 
BRANCH  32  35
HETATM   35  C   UNL     3     -11.025  15.451  65.972  1.00  0.00    -0.286 C  
HETATM   36  H   UNL     3     -10.968  15.377  64.040  1.00  0.00     0.000 HD 
HETATM   37  O   UNL     3     -10.570  15.933  64.700  1.00  0.00    -0.525 OA 
BRANCH  35  38
HETATM   38  C   UNL     3     -10.820  13.948  66.127  1.00  0.00    -0.290 C  
HETATM   39  C   UNL     3     -12.096  13.175  65.700  1.00  0.00    -0.449 C  
HETATM   40  O   UNL     3     -10.514  13.608  67.494  1.00  0.00    -0.239 OA 
HETATM   41  O   UNL     3     -13.042  13.879  65.226  1.00  0.00    -0.777 OA 
HETATM   42  O   UNL     3     -12.120  11.977  66.096  1.00  0.00    -0.582 OA 
HETATM   43  H   UNL     3     -10.386  12.672  67.591  1.00  0.00     0.000 HD 
ENDBRANCH  35  38
ENDBRANCH  32  35
ENDBRANCH  29  32
ENDBRANCH  26  29
ENDBRANCH   6  26
TORSDOF 10
ENDMDL
MODEL      371
REMARK 921   NORMALIZED FREE ENERGY PREDICTED BY IDOCK:   -4.19 KCAL/MOL
REMARK 922        TOTAL FREE ENERGY PREDICTED BY IDOCK:   -9.13 KCAL/MOL
REMARK 923 INTER-LIGAND FREE ENERGY PREDICTED BY IDOCK:   -7.02 KCAL/MOL
REMARK 924 INTRA-LIGAND FREE ENERGY PREDICTED BY IDOCK:   -2.12 KCAL/MOL
REMARK 927      BINDING AFFINITY PREDICTED BY RF-SCORE:    0.00 PKD
ROOT
HETATM    1 CA   UNL     1      -8.109  10.925  67.753  1.00  0.00    -0.103 Ca 
HETATM    2  O   UNL     2      -7.451   5.509  69.529  1.00  0.00    -0.068 OA 
HETATM    3  O   UNL     3     -12.088  14.344  64.284  1.00  0.00    -0.518 OA 
HETATM    4  H   UNL     2      -6.765   5.199  68.948  1.00  0.00     0.000 HD 
HETATM    5  C   UNL     2      -7.788   6.848  69.171  1.00  0.00    -0.111 C  
HETATM    6  C   UNL     3     -10.854  13.638  64.193  1.00  0.00    -0.156 C  
HETATM    7  H   UNL     3     -11.983  15.231  63.959  1.00  0.00     0.000 HD 
ENDROOT
BRANCH   5   8
HETATM    8  C   UNL     2      -8.901   7.352  70.114  1.00  0.00    -0.147 C  
HETATM    9  O   UNL     2      -8.456   8.563  70.715  1.00  0.00    -0.125 OA 
HETATM   10  H   UNL     2      -9.141   8.874  71.296  1.00  0.00     0.000 HD 
BRANCH   8  11
HETATM   11  C   UNL     2     -10.195   7.651  69.341  1.00  0.00    -0.206 C  
HETATM   12  H   UNL     2     -11.896   6.711  68.829  1.00  0.00     0.000 HD 
HETATM   13  O   UNL     2     -11.096   6.526  69.307  1.00  0.00    -0.300 OA 
BRANCH  11  14
HETATM   14  C   UNL     2     -11.005   8.929  69.671  1.00  0.00    -0.123 C  
HETATM   15  O   UNL     2     -10.554  10.011  68.872  1.00  0.00    -0.200 OA 
HETATM   16  H   UNL     2     -11.051  10.795  69.075  1.00  0.00     0.000 HD 
BRANCH  14  17
HETATM   17  C   UNL     2     -11.245   9.270  71.154  1.00  0.00    -0.343 C  
HETATM   18  H   UNL     2     -11.907  10.828  72.127  1.00  0.00     0.000 HD 
HETATM   19  O   UNL     2     -11.760  10.619  71.212  1.00  0.00    -0.261 OA 
BRANCH  17  20
HETATM   20  C   UNL     2     -12.126   8.293  71.931  1.00  0.00    -0.332 C  
HETATM   21  O   UNL     2     -12.926   7.481  71.044  1.00  0.00    -0.546 OA 
HETATM   22  C   UNL     2     -11.186   7.378  72.767  1.00  0.00    -0.332 C  
HETATM   23  H   UNL     2     -13.474   6.874  71.527  1.00  0.00     0.000 HD 
HETATM   24  O   UNL     2     -10.208   7.979  73.285  1.00  0.00    -0.304 OA 
HETATM   25  O   UNL     2     -11.541   6.169  72.774  1.00  0.00    -0.231 OA 
ENDBRANCH  17  20
ENDBRANCH  14  17
ENDBRANCH  11  14
ENDBRANCH   8  11
ENDBRANCH   5   8
BRANCH   6  26
HETATM   26  C   UNL     3     -11.024  12.205  64.717  1.00  0.00    -0.310 C  
HETATM   27  H   UNL     3     -12.529  11.091  65.137  1.00  0.00     0.000 HD 
HETATM   28  O   UNL     3     -12.424  11.977  64.813  1.00  0.00    -0.383 OA 
BRANCH  26  29
HETATM   29  C   UNL     3     -10.292  11.163  63.830  1.00  0.00    -0.386 C  
HETATM   30  O   UNL     3      -9.194  11.848  63.081  1.00  0.00    -0.641 OA 
HETATM   31  H   UNL     3      -8.746  11.210  62.538  1.00  0.00     0.000 HD 
BRANCH  29  32
HETATM   32  C   UNL     3      -9.528  10.080  64.622  1.00  0.00    -0.305 C  
HETATM   33  H   UNL     3      -9.765   9.219  66.378  1.00  0.00     0.000 HD 
HETATM   34  O   UNL     3     -10.235   9.886  65.891  1.00  0.00    -0.261 OA 
BRANCH  32  35
HETATM   35  C   UNL     3      -7.999   9.967  64.715  1.00  0.00    -0.144 C  
HETATM   36  H   UNL     3      -6.588  11.108  65.384  1.00  0.00     0.000 HD 
HETATM   37  O   UNL     3      -7.534  11.178  65.326  1.00  0.00     0.232 OA 
BRANCH  35  38
HETATM   38  C   UNL     3      -7.444   8.723  65.399  1.00  0.00    -0.086 C  
HETATM   39  C   UNL     3      -7.168   7.605  64.361  1.00  0.00    -0.077 C  
HETATM   40  O   UNL     3      -8.370   8.219  66.382  1.00  0.00    -0.109 OA 
HETATM   41  O   UNL     3      -7.358   7.915  63.143  1.00  0.00    -0.092 OA 
HETATM   42  O   UNL     3      -7.017   6.461  64.874  1.00  0.00    -0.049 OA 
HETATM   43  H   UNL     3      -8.024   7.444  66.809  1.00  0.00     0.000 HD 
ENDBRANCH  35  38
ENDBRANCH  32  35
ENDBRANCH  29  32
ENDBRANCH  26  29
ENDBRANCH   6  26
TORSDOF 10
ENDMDL
MODEL      372
REMARK 921   NORMALIZED FREE ENERGY PREDICTED BY IDOCK:   -4.18 KCAL/MOL
REMARK 922        TOTAL FREE ENERGY PREDICTED BY IDOCK:   -9.13 KCAL/MOL
REMARK 923 INTER-LIGAND FREE ENERGY PREDICTED BY IDOCK:   -8.37 KCAL/MOL
REMARK 924 INTRA-LIGAND FREE ENERGY PREDICTED BY IDOCK:   -0.76 KCAL/MOL
REMARK 927      BINDING AFFINITY PREDICTED BY RF-SCORE:    0.00 PKD
ROOT
HETATM    1 CA   UNL     1     -10.054  14.202  70.473  1.00  0.00    -0.266 Ca 
HETATM    2  O   UNL     2      -8.740   8.885  68.761  1.00  0.00    -0.134 OA 
HETATM    3  O   UNL     3     -10.590  19.983  68.055  1.00  0.00    -0.357 OA 
HETATM    4  H   UNL     2      -7.850   8.795  69.081  1.00  0.00     0.000 HD 
HETATM    5  C   UNL     2      -9.204  10.203  69.051  1.00  0.00    -0.185 C  
HETATM    6  C   UNL     3      -9.668  19.145  68.748  1.00  0.00    -0.430 C  
HETATM    7  H   UNL     3     -10.687  20.811  68.510  1.00  0.00     0.000 HD 
ENDROOT
BRANCH   5   8
HETATM    8  C   UNL     2     -10.650  10.349  68.532  1.00  0.00    -0.209 C  
HETATM    9  O   UNL     2     -11.034   9.113  67.940  1.00  0.00    -0.483 OA 
HETATM   10  H   UNL     2     -11.924   9.203  67.620  1.00  0.00     0.000 HD 
BRANCH   8  11
HETATM   11  C   UNL     2     -11.627  10.654  69.678  1.00  0.00    -0.296 C  
HETATM   12  H   UNL     2     -13.259  11.779  70.008  1.00  0.00     0.000 HD 
HETATM   13  O   UNL     2     -12.654  11.591  69.299  1.00  0.00    -0.156 OA 
BRANCH  11  14
HETATM   14  C   UNL     2     -12.280   9.485  70.457  1.00  0.00    -0.034 C  
HETATM   15  O   UNL     2     -13.676   9.705  70.583  1.00  0.00    -0.579 OA 
HETATM   16  H   UNL     2     -14.076   8.988  71.061  1.00  0.00     0.000 HD 
BRANCH  14  17
HETATM   17  C   UNL     2     -11.580   8.988  71.736  1.00  0.00    -0.374 C  
HETATM   18  H   UNL     2     -12.155   8.567  73.554  1.00  0.00     0.000 HD 
HETATM   19  O   UNL     2     -12.588   8.873  72.765  1.00  0.00    -0.306 OA 
BRANCH  17  20
HETATM   20  C   UNL     2     -10.763   7.704  71.596  1.00  0.00    -0.211 C  
HETATM   21  O   UNL     2     -10.817   7.187  70.248  1.00  0.00    -0.235 OA 
HETATM   22  C   UNL     2      -9.291   8.044  71.964  1.00  0.00    -0.178 C  
HETATM   23  H   UNL     2     -10.309   6.388  70.162  1.00  0.00     0.000 HD 
HETATM   24  O   UNL     2      -9.171   8.829  72.942  1.00  0.00    -0.278 OA 
HETATM   25  O   UNL     2      -8.447   7.496  71.206  1.00  0.00    -0.114 OA 
ENDBRANCH  17  20
ENDBRANCH  14  17
ENDBRANCH  11  14
ENDBRANCH   8  11
ENDBRANCH   5   8
BRANCH   6  26
HETATM   26  C   UNL     3      -9.513  17.807  68.012  1.00  0.00    -0.281 C  
HETATM   27  H   UNL     3      -9.233  15.989  68.561  1.00  0.00     0.000 HD 
HETATM   28  O   UNL     3      -9.329  16.817  69.016  1.00  0.00    -0.262 OA 
BRANCH  26  29
HETATM   29  C   UNL     3     -10.709  17.510  67.070  1.00  0.00    -0.157 C  
HETATM   30  O   UNL     3     -10.447  18.137  65.738  1.00  0.00    -0.584 OA 
HETATM   31  H   UNL     3     -11.180  17.955  65.162  1.00  0.00     0.000 HD 
BRANCH  29  32
HETATM   32  C   UNL     3     -10.878  16.019  66.708  1.00  0.00    -0.195 C  
HETATM   33  H   UNL     3     -11.367  14.395  67.710  1.00  0.00     0.000 HD 
HETATM   34  O   UNL     3     -11.263  15.313  67.933  1.00  0.00    -0.309 OA 
BRANCH  32  35
HETATM   35  C   UNL     3      -9.949  15.226  65.775  1.00  0.00    -0.360 C  
HETATM   36  H   UNL     3      -8.162  15.494  65.085  1.00  0.00     0.000 HD 
HETATM   37  O   UNL     3      -8.737  15.984  65.662  1.00  0.00    -0.206 OA 
BRANCH  35  38
HETATM   38  C   UNL     3      -9.688  13.770  66.143  1.00  0.00    -0.264 C  
HETATM   39  C   UNL     3      -8.378  13.639  66.963  1.00  0.00    -0.082 C  
HETATM   40  O   UNL     3      -9.574  12.953  64.961  1.00  0.00    -0.490 OA 
HETATM   41  O   UNL     3      -7.796  14.728  67.262  1.00  0.00    -0.188 OA 
HETATM   42  O   UNL     3      -7.935  12.459  67.027  1.00  0.00    -0.167 OA 
HETATM   43  H   UNL     3      -9.412  12.045  65.190  1.00  0.00     0.000 HD 
ENDBRANCH  35  38
ENDBRANCH  32  35
ENDBRANCH  29  32
ENDBRANCH  26  29
ENDBRANCH   6  26
TORSDOF 10
ENDMDL
MODEL      373
REMARK 921   NORMALIZED FREE ENERGY PREDICTED BY IDOCK:   -4.17 KCAL/MOL
REMARK 922        TOTAL FREE ENERGY PREDICTED BY IDOCK:   -9.11 KCAL/MOL
REMARK 923 INTER-LIGAND FREE ENERGY PREDICTED BY IDOCK:   -7.02 KCAL/MOL
REMARK 924 INTRA-LIGAND FREE ENERGY PREDICTED BY IDOCK:   -2.09 KCAL/MOL
REMARK 927      BINDING AFFINITY PREDICTED BY RF-SCORE:    0.00 PKD
ROOT
HETATM    1 CA   UNL     1      -7.614  10.833  69.824  1.00  0.00    -0.105 Ca 
HETATM    2  O   UNL     2     -11.534  14.732  68.291  1.00  0.00    -0.289 OA 
HETATM    3  O   UNL     3      -7.091   4.595  70.428  1.00  0.00    -0.046 OA 
HETATM    4  H   UNL     2     -11.804  15.075  69.135  1.00  0.00     0.000 HD 
HETATM    5  C   UNL     2     -10.590  13.683  68.499  1.00  0.00    -0.250 C  
HETATM    6  C   UNL     3      -7.363   5.770  71.188  1.00  0.00    -0.082 C  
HETATM    7  H   UNL     3      -6.396   4.094  70.837  1.00  0.00     0.000 HD 
ENDROOT
BRANCH   5   8
HETATM    8  C   UNL     2     -10.152  13.126  67.128  1.00  0.00    -0.242 C  
HETATM    9  O   UNL     2     -11.311  12.641  66.457  1.00  0.00    -0.291 OA 
HETATM   10  H   UNL     2     -11.041  12.298  65.613  1.00  0.00     0.000 HD 
BRANCH   8  11
HETATM   11  C   UNL     2      -9.520  14.222  66.256  1.00  0.00    -0.252 C  
HETATM   12  H   UNL     2     -10.102  15.828  65.197  1.00  0.00     0.000 HD 
HETATM   13  O   UNL     2     -10.493  15.150  65.737  1.00  0.00    -0.297 OA 
BRANCH  11  14
HETATM   14  C   UNL     2      -8.305  15.020  66.791  1.00  0.00    -0.154 C  
HETATM   15  O   UNL     2      -7.222  14.141  67.050  1.00  0.00    -0.353 OA 
HETATM   16  H   UNL     2      -6.477  14.631  67.379  1.00  0.00     0.000 HD 
BRANCH  14  17
HETATM   17  C   UNL     2      -8.560  16.079  67.881  1.00  0.00    -0.164 C  
HETATM   18  H   UNL     2      -7.617  16.667  69.487  1.00  0.00     0.000 HD 
HETATM   19  O   UNL     2      -7.460  16.013  68.815  1.00  0.00    -0.153 OA 
BRANCH  17  20
HETATM   20  C   UNL     2      -8.798  17.505  67.386  1.00  0.00    -0.229 C  
HETATM   21  O   UNL     2      -8.635  17.602  65.953  1.00  0.00    -0.526 OA 
HETATM   22  C   UNL     2     -10.253  17.896  67.771  1.00  0.00    -0.368 C  
HETATM   23  H   UNL     2      -8.783  18.488  65.646  1.00  0.00     0.000 HD 
HETATM   24  O   UNL     2     -10.610  17.498  68.911  1.00  0.00    -0.316 OA 
HETATM   25  O   UNL     2     -10.856  18.532  66.866  1.00  0.00    -0.337 OA 
ENDBRANCH  17  20
ENDBRANCH  14  17
ENDBRANCH  11  14
ENDBRANCH   8  11
ENDBRANCH   5   8
BRANCH   6  26
HETATM   26  C   UNL     3      -8.487   6.580  70.528  1.00  0.00    -0.138 C  
HETATM   27  H   UNL     3      -8.883   7.122  68.730  1.00  0.00     0.000 HD 
HETATM   28  O   UNL     3      -8.187   6.621  69.138  1.00  0.00    -0.118 OA 
BRANCH  26  29
HETATM   29  C   UNL     3      -9.891   5.997  70.835  1.00  0.00    -0.184 C  
HETATM   30  O   UNL     3      -9.738   4.804  71.724  1.00  0.00    -0.152 OA 
HETATM   31  H   UNL     3     -10.599   4.447  71.912  1.00  0.00     0.000 HD 
BRANCH  29  32
HETATM   32  C   UNL     3     -10.793   6.924  71.678  1.00  0.00    -0.226 C  
HETATM   33  H   UNL     3     -11.954   6.676  73.250  1.00  0.00     0.000 HD 
HETATM   34  O   UNL     3     -11.399   6.105  72.731  1.00  0.00    -0.264 OA 
BRANCH  32  35
HETATM   35  C   UNL     3     -11.708   8.021  71.111  1.00  0.00    -0.284 C  
HETATM   36  H   UNL     3     -13.359   8.848  71.685  1.00  0.00     0.000 HD 
HETATM   37  O   UNL     3     -12.794   8.169  72.035  1.00  0.00    -0.324 OA 
BRANCH  35  38
HETATM   38  C   UNL     3     -11.050   9.354  70.772  1.00  0.00    -0.300 C  
HETATM   39  C   UNL     3     -10.667   9.408  69.270  1.00  0.00    -0.211 C  
HETATM   40  O   UNL     3      -9.859   9.556  71.557  1.00  0.00    -0.195 OA 
HETATM   41  O   UNL     3     -11.023   8.411  68.567  1.00  0.00     0.014 OA 
HETATM   42  O   UNL     3      -9.847  10.326  68.988  1.00  0.00    -0.186 OA 
HETATM   43  H   UNL     3      -9.449  10.386  71.346  1.00  0.00     0.000 HD 
ENDBRANCH  35  38
ENDBRANCH  32  35
ENDBRANCH  29  32
ENDBRANCH  26  29
ENDBRANCH   6  26
TORSDOF 10
ENDMDL
MODEL      374
REMARK 921   NORMALIZED FREE ENERGY PREDICTED BY IDOCK:   -4.17 KCAL/MOL
REMARK 922        TOTAL FREE ENERGY PREDICTED BY IDOCK:   -9.10 KCAL/MOL
REMARK 923 INTER-LIGAND FREE ENERGY PREDICTED BY IDOCK:   -7.55 KCAL/MOL
REMARK 924 INTRA-LIGAND FREE ENERGY PREDICTED BY IDOCK:   -1.56 KCAL/MOL
REMARK 927      BINDING AFFINITY PREDICTED BY RF-SCORE:    0.00 PKD
ROOT
HETATM    1 CA   UNL     1     -11.358  13.523  70.771  1.00  0.00    -0.462 Ca 
HETATM    2  O   UNL     2      -9.347   8.164  71.163  1.00  0.00    -0.145 OA 
HETATM    3  O   UNL     3     -10.721  18.587  67.096  1.00  0.00    -0.409 OA 
HETATM    4  H   UNL     2      -8.716   8.247  71.869  1.00  0.00     0.000 HD 
HETATM    5  C   UNL     2      -9.903   9.448  70.888  1.00  0.00    -0.268 C  
HETATM    6  C   UNL     3     -10.234  18.023  68.310  1.00  0.00    -0.395 C  
HETATM    7  H   UNL     3     -11.029  19.473  67.246  1.00  0.00     0.000 HD 
ENDROOT
BRANCH   5   8
HETATM    8  C   UNL     2     -10.928   9.314  69.742  1.00  0.00    -0.196 C  
HETATM    9  O   UNL     2     -11.440  10.610  69.453  1.00  0.00    -0.250 OA 
HETATM   10  H   UNL     2     -12.072  10.527  68.747  1.00  0.00     0.000 HD 
BRANCH   8  11
HETATM   11  C   UNL     2     -10.269   8.766  68.465  1.00  0.00    -0.195 C  
HETATM   12  H   UNL     2     -10.746   8.458  66.538  1.00  0.00     0.000 HD 
HETATM   13  O   UNL     2     -11.153   8.797  67.327  1.00  0.00     0.023 OA 
BRANCH  11  14
HETATM   14  C   UNL     2      -8.880   9.295  68.034  1.00  0.00    -0.128 C  
HETATM   15  O   UNL     2      -7.947   9.130  69.090  1.00  0.00    -0.093 OA 
HETATM   16  H   UNL     2      -7.094   9.455  68.825  1.00  0.00     0.000 HD 
BRANCH  14  17
HETATM   17  C   UNL     2      -8.816  10.657  67.316  1.00  0.00    -0.136 C  
HETATM   18  H   UNL     2      -9.281  12.494  67.788  1.00  0.00     0.000 HD 
HETATM   19  O   UNL     2      -9.320  11.654  68.231  1.00  0.00    -0.181 OA 
BRANCH  17  20
HETATM   20  C   UNL     2      -7.454  11.049  66.744  1.00  0.00    -0.139 C  
HETATM   21  O   UNL     2      -6.385  10.745  67.667  1.00  0.00    -0.055 OA 
HETATM   22  C   UNL     2      -7.250  10.245  65.429  1.00  0.00    -0.143 C  
HETATM   23  H   UNL     2      -5.539  10.989  67.311  1.00  0.00     0.000 HD 
HETATM   24  O   UNL     2      -8.287  10.142  64.720  1.00  0.00    -0.152 OA 
HETATM   25  O   UNL     2      -6.079   9.800  65.290  1.00  0.00    -0.072 OA 
ENDBRANCH  17  20
ENDBRANCH  14  17
ENDBRANCH  11  14
ENDBRANCH   8  11
ENDBRANCH   5   8
BRANCH   6  26
HETATM   26  C   UNL     3      -9.737  16.591  68.067  1.00  0.00    -0.236 C  
HETATM   27  H   UNL     3      -9.610  15.005  69.142  1.00  0.00     0.000 HD 
HETATM   28  O   UNL     3      -9.917  15.891  69.292  1.00  0.00    -0.222 OA 
BRANCH  26  29
HETATM   29  C   UNL     3     -10.450  15.916  66.865  1.00  0.00    -0.309 C  
HETATM   30  O   UNL     3      -9.744  16.301  65.604  1.00  0.00    -0.464 OA 
HETATM   31  H   UNL     3     -10.181  15.888  64.868  1.00  0.00     0.000 HD 
BRANCH  29  32
HETATM   32  C   UNL     3     -10.344  14.376  66.848  1.00  0.00    -0.265 C  
HETATM   33  H   UNL     3      -9.269  13.071  65.837  1.00  0.00     0.000 HD 
HETATM   34  O   UNL     3      -9.334  14.019  65.847  1.00  0.00    -0.137 OA 
BRANCH  32  35
HETATM   35  C   UNL     3     -11.533  13.408  66.933  1.00  0.00    -0.342 C  
HETATM   36  H   UNL     3     -12.809  12.936  68.309  1.00  0.00     0.000 HD 
HETATM   37  O   UNL     3     -12.073  13.535  68.256  1.00  0.00    -0.354 OA 
BRANCH  35  38
HETATM   38  C   UNL     3     -12.605  13.541  65.856  1.00  0.00    -0.396 C  
HETATM   39  C   UNL     3     -12.441  12.434  64.782  1.00  0.00    -0.401 C  
HETATM   40  O   UNL     3     -12.525  14.826  65.208  1.00  0.00    -0.226 OA 
HETATM   41  O   UNL     3     -11.533  11.573  65.002  1.00  0.00    -0.171 OA 
HETATM   42  O   UNL     3     -13.073  12.666  63.715  1.00  0.00    -0.630 OA 
HETATM   43  H   UNL     3     -13.193  14.909  64.536  1.00  0.00     0.000 HD 
ENDBRANCH  35  38
ENDBRANCH  32  35
ENDBRANCH  29  32
ENDBRANCH  26  29
ENDBRANCH   6  26
TORSDOF 10
ENDMDL
MODEL      375
REMARK 921   NORMALIZED FREE ENERGY PREDICTED BY IDOCK:   -4.15 KCAL/MOL
REMARK 922        TOTAL FREE ENERGY PREDICTED BY IDOCK:   -9.07 KCAL/MOL
REMARK 923 INTER-LIGAND FREE ENERGY PREDICTED BY IDOCK:   -6.41 KCAL/MOL
REMARK 924 INTRA-LIGAND FREE ENERGY PREDICTED BY IDOCK:   -2.66 KCAL/MOL
REMARK 927      BINDING AFFINITY PREDICTED BY RF-SCORE:    0.00 PKD
ROOT
HETATM    1 CA   UNL     1      -9.034  13.888  66.603  1.00  0.00    -0.195 Ca 
HETATM    2  O   UNL     2      -7.410   9.924  70.421  1.00  0.00    -0.148 OA 
HETATM    3  O   UNL     3      -8.325  20.047  65.546  1.00  0.00    -0.458 OA 
HETATM    4  H   UNL     2      -8.203   9.816  70.934  1.00  0.00     0.000 HD 
HETATM    5  C   UNL     2      -7.626  10.945  69.448  1.00  0.00    -0.094 C  
HETATM    6  C   UNL     3      -9.227  19.113  66.133  1.00  0.00    -0.229 C  
HETATM    7  H   UNL     3      -8.784  20.600  64.925  1.00  0.00     0.000 HD 
ENDROOT
BRANCH   5   8
HETATM    8  C   UNL     2      -6.339  11.121  68.615  1.00  0.00    -0.044 C  
HETATM    9  O   UNL     2      -5.230  11.109  69.508  1.00  0.00    -0.044 OA 
HETATM   10  H   UNL     2      -4.437  11.218  68.995  1.00  0.00     0.000 HD 
BRANCH   8  11
HETATM   11  C   UNL     2      -6.158   9.967  67.615  1.00  0.00    -0.057 C  
HETATM   12  H   UNL     2      -6.376   7.970  67.564  1.00  0.00     0.000 HD 
HETATM   13  O   UNL     2      -6.488   8.684  68.182  1.00  0.00    -0.058 OA 
BRANCH  11  14
HETATM   14  C   UNL     2      -6.794  10.069  66.207  1.00  0.00    -0.099 C  
HETATM   15  O   UNL     2      -6.900  11.429  65.819  1.00  0.00    -0.354 OA 
HETATM   16  H   UNL     2      -7.290  11.492  64.955  1.00  0.00     0.000 HD 
BRANCH  14  17
HETATM   17  C   UNL     2      -8.037   9.208  65.911  1.00  0.00    -0.111 C  
HETATM   18  H   UNL     2      -9.965   9.449  66.104  1.00  0.00     0.000 HD 
HETATM   19  O   UNL     2      -9.199   9.980  66.286  1.00  0.00    -0.153 OA 
BRANCH  17  20
HETATM   20  C   UNL     2      -8.152   8.666  64.487  1.00  0.00    -0.162 C  
HETATM   21  O   UNL     2      -7.107   9.188  63.636  1.00  0.00    -0.092 OA 
HETATM   22  C   UNL     2      -8.034   7.118  64.565  1.00  0.00    -0.104 C  
HETATM   23  H   UNL     2      -7.179   8.851  62.751  1.00  0.00     0.000 HD 
HETATM   24  O   UNL     2      -8.635   6.603  65.545  1.00  0.00    -0.149 OA 
HETATM   25  O   UNL     2      -7.331   6.623  63.644  1.00  0.00    -0.060 OA 
ENDBRANCH  17  20
ENDBRANCH  14  17
ENDBRANCH  11  14
ENDBRANCH   8  11
ENDBRANCH   5   8
BRANCH   6  26
HETATM   26  C   UNL     3      -8.486  18.219  67.137  1.00  0.00    -0.250 C  
HETATM   27  H   UNL     3      -6.834  18.358  68.105  1.00  0.00     0.000 HD 
HETATM   28  O   UNL     3      -7.293  18.911  67.484  1.00  0.00    -0.225 OA 
BRANCH  26  29
HETATM   29  C   UNL     3      -9.364  17.858  68.364  1.00  0.00    -0.288 C  
HETATM   30  O   UNL     3     -10.722  18.458  68.184  1.00  0.00    -0.321 OA 
HETATM   31  H   UNL     3     -11.259  18.237  68.935  1.00  0.00     0.000 HD 
BRANCH  29  32
HETATM   32  C   UNL     3      -9.682  16.353  68.495  1.00  0.00    -0.228 C  
HETATM   33  H   UNL     3      -8.670  14.690  68.195  1.00  0.00     0.000 HD 
HETATM   34  O   UNL     3      -8.474  15.616  68.114  1.00  0.00    -0.145 OA 
BRANCH  32  35
HETATM   35  C   UNL     3     -11.001  15.688  68.071  1.00  0.00    -0.318 C  
HETATM   36  H   UNL     3     -11.848  15.306  66.375  1.00  0.00     0.000 HD 
HETATM   37  O   UNL     3     -11.033  15.717  66.638  1.00  0.00    -0.299 OA 
BRANCH  35  38
HETATM   38  C   UNL     3     -11.277  14.296  68.628  1.00  0.00    -0.264 C  
HETATM   39  C   UNL     3     -12.219  14.377  69.858  1.00  0.00    -0.340 C  
HETATM   40  O   UNL     3     -10.053  13.650  69.029  1.00  0.00    -0.421 OA 
HETATM   41  O   UNL     3     -12.665  15.533  70.145  1.00  0.00    -0.347 OA 
HETATM   42  O   UNL     3     -12.236  13.325  70.554  1.00  0.00    -0.354 OA 
HETATM   43  H   UNL     3     -10.225  12.782  69.376  1.00  0.00     0.000 HD 
ENDBRANCH  35  38
ENDBRANCH  32  35
ENDBRANCH  29  32
ENDBRANCH  26  29
ENDBRANCH   6  26
TORSDOF 10
ENDMDL
MODEL      376
REMARK 921   NORMALIZED FREE ENERGY PREDICTED BY IDOCK:   -4.13 KCAL/MOL
REMARK 922        TOTAL FREE ENERGY PREDICTED BY IDOCK:   -9.05 KCAL/MOL
REMARK 923 INTER-LIGAND FREE ENERGY PREDICTED BY IDOCK:   -8.53 KCAL/MOL
REMARK 924 INTRA-LIGAND FREE ENERGY PREDICTED BY IDOCK:   -0.51 KCAL/MOL
REMARK 927      BINDING AFFINITY PREDICTED BY RF-SCORE:    0.00 PKD
ROOT
HETATM    1 CA   UNL     1     -11.292   8.103  66.895  1.00  0.00    -0.370 Ca 
HETATM    2  O   UNL     2      -6.892   9.405  63.450  1.00  0.00    -0.094 OA 
HETATM    3  O   UNL     3     -13.353   9.428  72.687  1.00  0.00    -0.585 OA 
HETATM    4  H   UNL     2      -6.361   8.620  63.513  1.00  0.00     0.000 HD 
HETATM    5  C   UNL     2      -8.017   9.271  64.317  1.00  0.00    -0.135 C  
HETATM    6  C   UNL     3     -12.611   8.449  71.965  1.00  0.00    -0.356 C  
HETATM    7  H   UNL     3     -14.052   9.013  73.179  1.00  0.00     0.000 HD 
ENDROOT
BRANCH   5   8
HETATM    8  C   UNL     2      -8.881  10.547  64.215  1.00  0.00    -0.197 C  
HETATM    9  O   UNL     2     -10.127  10.190  63.626  1.00  0.00    -0.483 OA 
HETATM   10  H   UNL     2     -10.659  10.975  63.563  1.00  0.00     0.000 HD 
BRANCH   8  11
HETATM   11  C   UNL     2      -9.163  11.143  65.603  1.00  0.00    -0.218 C  
HETATM   12  H   UNL     2      -8.144  11.654  67.258  1.00  0.00     0.000 HD 
HETATM   13  O   UNL     2      -7.970  11.285  66.400  1.00  0.00    -0.164 OA 
BRANCH  11  14
HETATM   14  C   UNL     2     -10.001  12.439  65.723  1.00  0.00    -0.254 C  
HETATM   15  O   UNL     2      -9.358  13.355  66.595  1.00  0.00    -0.252 OA 
HETATM   16  H   UNL     2      -9.873  14.151  66.668  1.00  0.00     0.000 HD 
BRANCH  14  17
HETATM   17  C   UNL     2     -11.521  12.300  65.930  1.00  0.00    -0.376 C  
HETATM   18  H   UNL     2     -12.684  11.951  67.461  1.00  0.00     0.000 HD 
HETATM   19  O   UNL     2     -11.746  12.037  67.333  1.00  0.00    -0.470 OA 
BRANCH  17  20
HETATM   20  C   UNL     2     -12.375  13.465  65.428  1.00  0.00    -0.477 C  
HETATM   21  O   UNL     2     -11.682  14.725  65.565  1.00  0.00    -0.342 OA 
HETATM   22  C   UNL     2     -12.687  13.203  63.928  1.00  0.00    -0.034 C  
HETATM   23  H   UNL     2     -12.213  15.449  65.253  1.00  0.00     0.000 HD 
HETATM   24  O   UNL     2     -12.941  11.999  63.656  1.00  0.00    -0.747 OA 
HETATM   25  O   UNL     2     -12.611  14.238  63.213  1.00  0.00    -0.716 OA 
ENDBRANCH  17  20
ENDBRANCH  14  17
ENDBRANCH  11  14
ENDBRANCH   8  11
ENDBRANCH   5   8
BRANCH   6  26
HETATM   26  C   UNL     3     -11.482   9.120  71.170  1.00  0.00    -0.318 C  
HETATM   27  H   UNL     3      -9.627   9.482  71.503  1.00  0.00     0.000 HD 
HETATM   28  O   UNL     3     -10.326   9.067  71.995  1.00  0.00    -0.339 OA 
BRANCH  26  29
HETATM   29  C   UNL     3     -11.273   8.466  69.779  1.00  0.00     0.034 C  
HETATM   30  O   UNL     3     -11.482   9.500  68.719  1.00  0.00    -0.453 OA 
HETATM   31  H   UNL     3     -11.354   9.099  67.867  1.00  0.00     0.000 HD 
BRANCH  29  32
HETATM   32  C   UNL     3      -9.826   8.001  69.507  1.00  0.00    -0.181 C  
HETATM   33  H   UNL     3      -8.482   6.983  70.526  1.00  0.00     0.000 HD 
HETATM   34  O   UNL     3      -9.372   7.270  70.694  1.00  0.00    -0.158 OA 
BRANCH  32  35
HETATM   35  C   UNL     3      -8.742   8.844  68.818  1.00  0.00    -0.137 C  
HETATM   36  H   UNL     3      -8.235  10.710  68.863  1.00  0.00     0.000 HD 
HETATM   37  O   UNL     3      -8.906  10.188  69.289  1.00  0.00    -0.161 OA 
BRANCH  35  38
HETATM   38  C   UNL     3      -7.304   8.354  68.954  1.00  0.00    -0.090 C  
HETATM   39  C   UNL     3      -6.564   9.137  70.071  1.00  0.00    -0.045 C  
HETATM   40  O   UNL     3      -6.583   8.525  67.718  1.00  0.00    -0.059 OA 
HETATM   41  O   UNL     3      -7.265   9.968  70.729  1.00  0.00    -0.328 OA 
HETATM   42  O   UNL     3      -5.308   9.018  70.027  1.00  0.00    -0.028 OA 
HETATM   43  H   UNL     3      -5.687   8.220  67.803  1.00  0.00     0.000 HD 
ENDBRANCH  35  38
ENDBRANCH  32  35
ENDBRANCH  29  32
ENDBRANCH  26  29
ENDBRANCH   6  26
TORSDOF 10
ENDMDL
MODEL      377
REMARK 921   NORMALIZED FREE ENERGY PREDICTED BY IDOCK:   -4.13 KCAL/MOL
REMARK 922        TOTAL FREE ENERGY PREDICTED BY IDOCK:   -9.04 KCAL/MOL
REMARK 923 INTER-LIGAND FREE ENERGY PREDICTED BY IDOCK:   -7.05 KCAL/MOL
REMARK 924 INTRA-LIGAND FREE ENERGY PREDICTED BY IDOCK:   -2.00 KCAL/MOL
REMARK 927      BINDING AFFINITY PREDICTED BY RF-SCORE:    0.00 PKD
ROOT
HETATM    1 CA   UNL     1     -12.276   9.957  68.117  1.00  0.00    -0.516 Ca 
HETATM    2  O   UNL     2     -12.218  12.689  63.071  1.00  0.00    -0.641 OA 
HETATM    3  O   UNL     3      -8.240   8.096  72.567  1.00  0.00    -0.133 OA 
HETATM    4  H   UNL     2     -12.317  11.967  62.461  1.00  0.00     0.000 HD 
HETATM    5  C   UNL     2     -12.145  12.166  64.397  1.00  0.00    -0.357 C  
HETATM    6  C   UNL     3      -8.925   7.618  71.412  1.00  0.00    -0.132 C  
HETATM    7  H   UNL     3      -8.393   7.516  73.303  1.00  0.00     0.000 HD 
ENDROOT
BRANCH   5   8
HETATM    8  C   UNL     2     -11.984  13.339  65.388  1.00  0.00    -0.395 C  
HETATM    9  O   UNL     2     -13.197  14.084  65.391  1.00  0.00    -0.761 OA 
HETATM   10  H   UNL     2     -13.097  14.806  66.001  1.00  0.00     0.000 HD 
BRANCH   8  11
HETATM   11  C   UNL     2     -11.732  12.831  66.817  1.00  0.00    -0.392 C  
HETATM   12  H   UNL     2     -10.755  11.334  67.733  1.00  0.00     0.000 HD 
HETATM   13  O   UNL     2     -10.911  11.647  66.850  1.00  0.00    -0.250 OA 
BRANCH  11  14
HETATM   14  C   UNL     2     -11.231  13.817  67.901  1.00  0.00    -0.274 C  
HETATM   15  O   UNL     2     -12.332  14.350  68.619  1.00  0.00    -0.573 OA 
HETATM   16  H   UNL     2     -12.024  14.955  69.284  1.00  0.00     0.000 HD 
BRANCH  14  17
HETATM   17  C   UNL     2     -10.154  14.844  67.502  1.00  0.00    -0.228 C  
HETATM   18  H   UNL     2     -10.099  16.787  67.305  1.00  0.00     0.000 HD 
HETATM   19  O   UNL     2     -10.764  16.153  67.552  1.00  0.00    -0.311 OA 
BRANCH  17  20
HETATM   20  C   UNL     2      -8.853  14.794  68.301  1.00  0.00    -0.179 C  
HETATM   21  O   UNL     2      -9.106  14.738  69.722  1.00  0.00    -0.418 OA 
HETATM   22  C   UNL     2      -8.082  13.518  67.859  1.00  0.00    -0.165 C  
HETATM   23  H   UNL     2      -8.297  14.707  70.219  1.00  0.00     0.000 HD 
HETATM   24  O   UNL     2      -8.136  13.284  66.623  1.00  0.00     0.128 OA 
HETATM   25  O   UNL     2      -7.542  12.903  68.818  1.00  0.00    -0.107 OA 
ENDBRANCH  17  20
ENDBRANCH  14  17
ENDBRANCH  11  14
ENDBRANCH   8  11
ENDBRANCH   5   8
BRANCH   6  26
HETATM   26  C   UNL     3      -8.677   8.556  70.223  1.00  0.00    -0.142 C  
HETATM   27  H   UNL     3      -8.745  10.457  69.966  1.00  0.00     0.000 HD 
HETATM   28  O   UNL     3      -8.898   9.877  70.702  1.00  0.00    -0.088 OA 
BRANCH  26  29
HETATM   29  C   UNL     3      -7.271   8.358  69.599  1.00  0.00    -0.057 C  
HETATM   30  O   UNL     3      -6.497   7.396  70.442  1.00  0.00    -0.038 OA 
HETATM   31  H   UNL     3      -5.635   7.274  70.060  1.00  0.00     0.000 HD 
BRANCH  29  32
HETATM   32  C   UNL     3      -7.280   7.658  68.222  1.00  0.00    -0.093 C  
HETATM   33  H   UNL     3      -6.825   8.205  66.386  1.00  0.00     0.000 HD 
HETATM   34  O   UNL     3      -6.820   8.636  67.233  1.00  0.00    -0.066 OA 
BRANCH  32  35
HETATM   35  C   UNL     3      -8.378   6.707  67.722  1.00  0.00    -0.122 C  
HETATM   36  H   UNL     3      -9.286   6.443  66.035  1.00  0.00     0.000 HD 
HETATM   37  O   UNL     3      -8.607   7.031  66.345  1.00  0.00    -0.122 OA 
BRANCH  35  38
HETATM   38  C   UNL     3      -8.141   5.216  67.934  1.00  0.00    -0.098 C  
HETATM   39  C   UNL     3      -9.490   4.452  68.003  1.00  0.00    -0.156 C  
HETATM   40  O   UNL     3      -7.416   4.978  69.156  1.00  0.00    -0.060 OA 
HETATM   41  O   UNL     3     -10.535   5.146  67.795  1.00  0.00    -0.137 OA 
HETATM   42  O   UNL     3      -9.392   3.291  68.487  1.00  0.00    -0.164 OA 
HETATM   43  H   UNL     3      -7.268   4.048  69.288  1.00  0.00     0.000 HD 
ENDBRANCH  35  38
ENDBRANCH  32  35
ENDBRANCH  29  32
ENDBRANCH  26  29
ENDBRANCH   6  26
TORSDOF 10
ENDMDL
MODEL      378
REMARK 921   NORMALIZED FREE ENERGY PREDICTED BY IDOCK:   -4.12 KCAL/MOL
REMARK 922        TOTAL FREE ENERGY PREDICTED BY IDOCK:   -9.03 KCAL/MOL
REMARK 923 INTER-LIGAND FREE ENERGY PREDICTED BY IDOCK:   -6.74 KCAL/MOL
REMARK 924 INTRA-LIGAND FREE ENERGY PREDICTED BY IDOCK:   -2.29 KCAL/MOL
REMARK 927      BINDING AFFINITY PREDICTED BY RF-SCORE:    0.00 PKD
ROOT
HETATM    1 CA   UNL     1      -9.525   9.561  64.537  1.00  0.00    -0.215 Ca 
HETATM    2  O   UNL     2     -10.426   4.271  66.569  1.00  0.00    -0.325 OA 
HETATM    3  O   UNL     3     -11.620  15.423  65.434  1.00  0.00    -0.186 OA 
HETATM    4  H   UNL     2     -10.951   3.887  65.876  1.00  0.00     0.000 HD 
HETATM    5  C   UNL     2     -10.164   5.636  66.246  1.00  0.00    -0.113 C  
HETATM    6  C   UNL     3     -11.812  14.287  64.595  1.00  0.00    -0.448 C  
HETATM    7  H   UNL     3     -11.464  16.197  64.907  1.00  0.00     0.000 HD 
ENDROOT
BRANCH   5   8
HETATM    8  C   UNL     2      -9.310   6.260  67.370  1.00  0.00    -0.115 C  
HETATM    9  O   UNL     2      -8.211   6.934  66.767  1.00  0.00    -0.110 OA 
HETATM   10  H   UNL     2      -7.685   7.318  67.459  1.00  0.00     0.000 HD 
BRANCH   8  11
HETATM   11  C   UNL     2     -10.116   7.291  68.177  1.00  0.00    -0.173 C  
HETATM   12  H   UNL     2     -11.720   8.477  67.930  1.00  0.00     0.000 HD 
HETATM   13  O   UNL     2     -11.221   7.840  67.431  1.00  0.00     0.066 OA 
BRANCH  11  14
HETATM   14  C   UNL     2     -10.604   6.934  69.602  1.00  0.00    -0.231 C  
HETATM   15  O   UNL     2     -11.863   7.538  69.851  1.00  0.00    -0.469 OA 
HETATM   16  H   UNL     2     -12.163   7.319  70.726  1.00  0.00     0.000 HD 
BRANCH  14  17
HETATM   17  C   UNL     2      -9.592   7.038  70.759  1.00  0.00    -0.164 C  
HETATM   18  H   UNL     2      -8.524   8.475  71.539  1.00  0.00     0.000 HD 
HETATM   19  O   UNL     2      -9.148   8.412  70.825  1.00  0.00    -0.142 OA 
BRANCH  17  20
HETATM   20  C   UNL     2     -10.075   6.533  72.118  1.00  0.00    -0.179 C  
HETATM   21  O   UNL     2     -11.517   6.457  72.173  1.00  0.00    -0.272 OA 
HETATM   22  C   UNL     2      -9.472   5.116  72.332  1.00  0.00    -0.143 C  
HETATM   23  H   UNL     2     -11.817   6.143  73.018  1.00  0.00     0.000 HD 
HETATM   24  O   UNL     2      -8.280   4.998  71.941  1.00  0.00    -0.112 OA 
HETATM   25  O   UNL     2     -10.283   4.298  72.843  1.00  0.00    -0.153 OA 
ENDBRANCH  17  20
ENDBRANCH  14  17
ENDBRANCH  11  14
ENDBRANCH   8  11
ENDBRANCH   5   8
BRANCH   6  26
HETATM   26  C   UNL     3     -12.064  13.035  65.448  1.00  0.00    -0.444 C  
HETATM   27  H   UNL     3     -13.263  11.541  65.330  1.00  0.00     0.000 HD 
HETATM   28  O   UNL     3     -13.107  12.315  64.803  1.00  0.00    -0.724 OA 
BRANCH  26  29
HETATM   29  C   UNL     3     -10.776  12.195  65.656  1.00  0.00    -0.275 C  
HETATM   30  O   UNL     3      -9.783  12.559  64.598  1.00  0.00    -0.488 OA 
HETATM   31  H   UNL     3      -8.995  12.044  64.726  1.00  0.00     0.000 HD 
BRANCH  29  32
HETATM   32  C   UNL     3     -10.010  12.520  66.956  1.00  0.00    -0.214 C  
HETATM   33  H   UNL     3      -8.609  13.812  67.454  1.00  0.00     0.000 HD 
HETATM   34  O   UNL     3      -9.080  13.612  66.654  1.00  0.00    -0.238 OA 
BRANCH  32  35
HETATM   35  C   UNL     3      -9.475  11.477  67.950  1.00  0.00    -0.178 C  
HETATM   36  H   UNL     3     -10.280  10.319  69.273  1.00  0.00     0.000 HD 
HETATM   37  O   UNL     3     -10.611  10.964  68.659  1.00  0.00    -0.174 OA 
BRANCH  35  38
HETATM   38  C   UNL     3      -8.602  10.367  67.375  1.00  0.00    -0.125 C  
HETATM   39  C   UNL     3      -7.315  10.190  68.222  1.00  0.00    -0.081 C  
HETATM   40  O   UNL     3      -8.221  10.663  66.016  1.00  0.00    -0.148 OA 
HETATM   41  O   UNL     3      -7.231  10.908  69.268  1.00  0.00    -0.106 OA 
HETATM   42  O   UNL     3      -6.411   9.529  67.639  1.00  0.00    -0.057 OA 
HETATM   43  H   UNL     3      -7.677   9.971  65.658  1.00  0.00     0.000 HD 
ENDBRANCH  35  38
ENDBRANCH  32  35
ENDBRANCH  29  32
ENDBRANCH  26  29
ENDBRANCH   6  26
TORSDOF 10
ENDMDL
MODEL      379
REMARK 921   NORMALIZED FREE ENERGY PREDICTED BY IDOCK:   -4.12 KCAL/MOL
REMARK 922        TOTAL FREE ENERGY PREDICTED BY IDOCK:   -9.02 KCAL/MOL
REMARK 923 INTER-LIGAND FREE ENERGY PREDICTED BY IDOCK:   -8.20 KCAL/MOL
REMARK 924 INTRA-LIGAND FREE ENERGY PREDICTED BY IDOCK:   -0.83 KCAL/MOL
REMARK 927      BINDING AFFINITY PREDICTED BY RF-SCORE:    0.00 PKD
ROOT
HETATM    1 CA   UNL     1     -10.117   7.092  66.902  1.00  0.00    -0.145 Ca 
HETATM    2  O   UNL     2      -6.083   9.911  63.953  1.00  0.00    -0.108 OA 
HETATM    3  O   UNL     3     -12.282   6.669  72.792  1.00  0.00    -0.461 OA 
HETATM    4  H   UNL     2      -5.418   9.241  63.848  1.00  0.00     0.000 HD 
HETATM    5  C   UNL     2      -7.150   9.384  64.739  1.00  0.00    -0.102 C  
HETATM    6  C   UNL     3     -11.389   6.030  71.884  1.00  0.00    -0.279 C  
HETATM    7  H   UNL     3     -12.886   6.034  73.159  1.00  0.00     0.000 HD 
ENDROOT
BRANCH   5   8
HETATM    8  C   UNL     2      -8.231  10.473  64.908  1.00  0.00    -0.117 C  
HETATM    9  O   UNL     2      -8.043  11.445  63.885  1.00  0.00     0.050 OA 
HETATM   10  H   UNL     2      -8.709  12.115  63.989  1.00  0.00     0.000 HD 
BRANCH   8  11
HETATM   11  C   UNL     2      -9.644   9.887  64.756  1.00  0.00    -0.271 C  
HETATM   12  H   UNL     2     -10.781   8.460  65.597  1.00  0.00     0.000 HD 
HETATM   13  O   UNL     2      -9.908   8.822  65.691  1.00  0.00    -0.107 OA 
BRANCH  11  14
HETATM   14  C   UNL     2     -10.866  10.836  64.722  1.00  0.00     0.025 C  
HETATM   15  O   UNL     2     -11.158  11.205  63.384  1.00  0.00    -0.704 OA 
HETATM   16  H   UNL     2     -11.908  11.788  63.363  1.00  0.00     0.000 HD 
BRANCH  14  17
HETATM   17  C   UNL     2     -10.913  11.991  65.741  1.00  0.00    -0.307 C  
HETATM   18  H   UNL     2      -9.846  12.514  67.291  1.00  0.00     0.000 HD 
HETATM   19  O   UNL     2      -9.817  11.801  66.662  1.00  0.00    -0.196 OA 
BRANCH  17  20
HETATM   20  C   UNL     2     -10.924  13.402  65.154  1.00  0.00    -0.303 C  
HETATM   21  O   UNL     2     -10.015  13.517  64.037  1.00  0.00    -0.734 OA 
HETATM   22  C   UNL     2     -12.374  13.700  64.678  1.00  0.00    -0.371 C  
HETATM   23  H   UNL     2     -10.022  14.394  63.672  1.00  0.00     0.000 HD 
HETATM   24  O   UNL     2     -13.270  13.274  65.454  1.00  0.00    -0.570 OA 
HETATM   25  O   UNL     2     -12.423  14.302  63.572  1.00  0.00    -0.798 OA 
ENDBRANCH  17  20
ENDBRANCH  14  17
ENDBRANCH  11  14
ENDBRANCH   8  11
ENDBRANCH   5   8
BRANCH   6  26
HETATM   26  C   UNL     3     -10.413   7.055  71.291  1.00  0.00    -0.206 C  
HETATM   27  H   UNL     3     -10.160   7.831  69.553  1.00  0.00     0.000 HD 
HETATM   28  O   UNL     3     -10.764   7.196  69.920  1.00  0.00    -0.227 OA 
BRANCH  26  29
HETATM   29  C   UNL     3     -10.425   8.398  72.068  1.00  0.00    -0.314 C  
HETATM   30  O   UNL     3      -9.081   9.042  71.948  1.00  0.00    -0.365 OA 
HETATM   31  H   UNL     3      -9.089   9.864  72.425  1.00  0.00     0.000 HD 
BRANCH  29  32
HETATM   32  C   UNL     3     -11.361   9.470  71.468  1.00  0.00    -0.385 C  
HETATM   33  H   UNL     3     -13.229   9.488  70.845  1.00  0.00     0.000 HD 
HETATM   34  O   UNL     3     -12.654   8.828  71.214  1.00  0.00    -0.306 OA 
BRANCH  32  35
HETATM   35  C   UNL     3     -10.948  10.518  70.424  1.00  0.00    -0.178 C  
HETATM   36  H   UNL     3      -9.832  10.500  68.844  1.00  0.00     0.000 HD 
HETATM   37  O   UNL     3     -10.088   9.852  69.490  1.00  0.00    -0.193 OA 
BRANCH  35  38
HETATM   38  C   UNL     3     -12.074  11.278  69.733  1.00  0.00    -0.325 C  
HETATM   39  C   UNL     3     -11.586  12.674  69.266  1.00  0.00    -0.318 C  
HETATM   40  O   UNL     3     -13.196  11.456  70.620  1.00  0.00     0.044 OA 
HETATM   41  O   UNL     3     -10.353  12.924  69.447  1.00  0.00     0.216 OA 
HETATM   42  O   UNL     3     -12.523  13.470  68.981  1.00  0.00    -0.141 OA 
HETATM   43  H   UNL     3     -13.898  11.930  70.190  1.00  0.00     0.000 HD 
ENDBRANCH  35  38
ENDBRANCH  32  35
ENDBRANCH  29  32
ENDBRANCH  26  29
ENDBRANCH   6  26
TORSDOF 10
ENDMDL
MODEL      380
REMARK 921   NORMALIZED FREE ENERGY PREDICTED BY IDOCK:   -4.10 KCAL/MOL
REMARK 922        TOTAL FREE ENERGY PREDICTED BY IDOCK:   -9.00 KCAL/MOL
REMARK 923 INTER-LIGAND FREE ENERGY PREDICTED BY IDOCK:   -6.98 KCAL/MOL
REMARK 924 INTRA-LIGAND FREE ENERGY PREDICTED BY IDOCK:   -2.02 KCAL/MOL
REMARK 927      BINDING AFFINITY PREDICTED BY RF-SCORE:    0.00 PKD
ROOT
HETATM    1 CA   UNL     1      -6.883   8.858  66.728  1.00  0.00    -0.064 Ca 
HETATM    2  O   UNL     2      -6.677  13.442  70.173  1.00  0.00    -0.368 OA 
HETATM    3  O   UNL     3     -10.498   3.808  65.740  1.00  0.00    -0.392 OA 
HETATM    4  H   UNL     2      -6.001  13.188  70.790  1.00  0.00     0.000 HD 
HETATM    5  C   UNL     2      -6.904  12.363  69.267  1.00  0.00    -0.028 C  
HETATM    6  C   UNL     3      -9.318   4.216  66.425  1.00  0.00    -0.171 C  
HETATM    7  H   UNL     3     -10.319   3.044  65.205  1.00  0.00     0.000 HD 
ENDROOT
BRANCH   5   8
HETATM    8  C   UNL     2      -8.003  12.776  68.265  1.00  0.00    -0.151 C  
HETATM    9  O   UNL     2      -9.263  12.398  68.809  1.00  0.00    -0.393 OA 
HETATM   10  H   UNL     2      -9.939  12.652  68.192  1.00  0.00     0.000 HD 
BRANCH   8  11
HETATM   11  C   UNL     2      -8.016  14.297  68.045  1.00  0.00    -0.142 C  
HETATM   12  H   UNL     2      -6.822  15.718  67.275  1.00  0.00     0.000 HD 
HETATM   13  O   UNL     2      -6.814  14.778  67.410  1.00  0.00    -0.203 OA 
BRANCH  11  14
HETATM   14  C   UNL     2      -9.239  14.962  67.367  1.00  0.00    -0.194 C  
HETATM   15  O   UNL     2      -8.889  15.413  66.069  1.00  0.00    -0.432 OA 
HETATM   16  H   UNL     2      -9.640  15.821  65.653  1.00  0.00     0.000 HD 
BRANCH  14  17
HETATM   17  C   UNL     2     -10.075  15.954  68.198  1.00  0.00    -0.229 C  
HETATM   18  H   UNL     2     -10.456  17.867  68.099  1.00  0.00     0.000 HD 
HETATM   19  O   UNL     2      -9.940  17.255  67.586  1.00  0.00    -0.278 OA 
BRANCH  17  20
HETATM   20  C   UNL     2     -11.542  15.578  68.411  1.00  0.00    -0.357 C  
HETATM   21  O   UNL     2     -11.902  14.402  67.653  1.00  0.00    -0.369 OA 
HETATM   22  C   UNL     2     -11.737  15.298  69.928  1.00  0.00    -0.323 C  
HETATM   23  H   UNL     2     -12.813  14.169  67.786  1.00  0.00     0.000 HD 
HETATM   24  O   UNL     2     -11.116  16.093  70.684  1.00  0.00    -0.349 OA 
HETATM   25  O   UNL     2     -12.469  14.300  70.163  1.00  0.00    -0.340 OA 
ENDBRANCH  17  20
ENDBRANCH  14  17
ENDBRANCH  11  14
ENDBRANCH   8  11
ENDBRANCH   5   8
BRANCH   6  26
HETATM   26  C   UNL     3      -9.608   5.451  67.290  1.00  0.00    -0.132 C  
HETATM   27  H   UNL     3     -11.156   6.536  67.618  1.00  0.00     0.000 HD 
HETATM   28  O   UNL     3     -10.977   5.772  67.083  1.00  0.00    -0.268 OA 
BRANCH  26  29
HETATM   29  C   UNL     3      -9.251   5.221  68.783  1.00  0.00    -0.116 C  
HETATM   30  O   UNL     3      -7.765   5.270  68.940  1.00  0.00    -0.080 OA 
HETATM   31  H   UNL     3      -7.547   5.129  69.854  1.00  0.00     0.000 HD 
BRANCH  29  32
HETATM   32  C   UNL     3      -9.721   6.348  69.728  1.00  0.00    -0.154 C  
HETATM   33  H   UNL     3     -10.708   6.407  71.432  1.00  0.00     0.000 HD 
HETATM   34  O   UNL     3     -10.419   5.714  70.850  1.00  0.00    -0.230 OA 
BRANCH  32  35
HETATM   35  C   UNL     3     -10.318   7.689  69.276  1.00  0.00    -0.217 C  
HETATM   36  H   UNL     3     -11.533   8.973  70.061  1.00  0.00     0.000 HD 
HETATM   37  O   UNL     3     -11.164   8.143  70.341  1.00  0.00    -0.264 OA 
BRANCH  35  38
HETATM   38  C   UNL     3      -9.332   8.761  68.823  1.00  0.00    -0.141 C  
HETATM   39  C   UNL     3      -9.747   9.338  67.445  1.00  0.00    -0.161 C  
HETATM   40  O   UNL     3      -8.000   8.221  68.714  1.00  0.00    -0.110 OA 
HETATM   41  O   UNL     3     -10.844   8.909  66.967  1.00  0.00    -0.190 OA 
HETATM   42  O   UNL     3      -8.828   9.982  66.867  1.00  0.00    -0.131 OA 
HETATM   43  H   UNL     3      -7.385   8.889  68.432  1.00  0.00     0.000 HD 
ENDBRANCH  35  38
ENDBRANCH  32  35
ENDBRANCH  29  32
ENDBRANCH  26  29
ENDBRANCH   6  26
TORSDOF 10
ENDMDL
MODEL      381
REMARK 921   NORMALIZED FREE ENERGY PREDICTED BY IDOCK:   -4.09 KCAL/MOL
REMARK 922        TOTAL FREE ENERGY PREDICTED BY IDOCK:   -8.98 KCAL/MOL
REMARK 923 INTER-LIGAND FREE ENERGY PREDICTED BY IDOCK:   -6.49 KCAL/MOL
REMARK 924 INTRA-LIGAND FREE ENERGY PREDICTED BY IDOCK:   -2.49 KCAL/MOL
REMARK 927      BINDING AFFINITY PREDICTED BY RF-SCORE:    0.00 PKD
ROOT
HETATM    1 CA   UNL     1     -12.055   6.293  68.200  1.00  0.00    -0.466 Ca 
HETATM    2  O   UNL     2      -8.810   1.666  69.193  1.00  0.00    -0.060 OA 
HETATM    3  O   UNL     3     -11.575  12.562  68.348  1.00  0.00    -0.279 OA 
HETATM    4  H   UNL     2      -9.128   1.388  70.045  1.00  0.00     0.000 HD 
HETATM    5  C   UNL     2      -9.480   2.869  68.821  1.00  0.00    -0.111 C  
HETATM    6  C   UNL     3     -12.009  11.459  69.137  1.00  0.00    -0.328 C  
HETATM    7  H   UNL     3     -12.264  13.213  68.285  1.00  0.00     0.000 HD 
ENDROOT
BRANCH   5   8
HETATM    8  C   UNL     2      -8.964   3.321  67.438  1.00  0.00    -0.151 C  
HETATM    9  O   UNL     2      -9.593   2.517  66.447  1.00  0.00    -0.381 OA 
HETATM   10  H   UNL     2      -9.275   2.795  65.596  1.00  0.00     0.000 HD 
BRANCH   8  11
HETATM   11  C   UNL     2      -9.324   4.789  67.160  1.00  0.00    -0.135 C  
HETATM   12  H   UNL     2      -9.861   6.430  68.189  1.00  0.00     0.000 HD 
HETATM   13  O   UNL     2      -9.638   5.522  68.361  1.00  0.00    -0.114 OA 
BRANCH  11  14
HETATM   14  C   UNL     2      -8.389   5.653  66.278  1.00  0.00    -0.114 C  
HETATM   15  O   UNL     2      -8.202   6.928  66.871  1.00  0.00    -0.111 OA 
HETATM   16  H   UNL     2      -7.628   7.457  66.330  1.00  0.00     0.000 HD 
BRANCH  14  17
HETATM   17  C   UNL     2      -8.643   5.671  64.759  1.00  0.00    -0.061 C  
HETATM   18  H   UNL     2      -8.349   6.962  63.322  1.00  0.00     0.000 HD 
HETATM   19  O   UNL     2      -8.193   6.950  64.259  1.00  0.00    -0.077 OA 
BRANCH  17  20
HETATM   20  C   UNL     2      -8.044   4.510  63.966  1.00  0.00    -0.098 C  
HETATM   21  O   UNL     2      -7.173   3.702  64.788  1.00  0.00    -0.064 OA 
HETATM   22  C   UNL     2      -9.223   3.642  63.445  1.00  0.00    -0.103 C  
HETATM   23  H   UNL     2      -6.801   2.980  64.294  1.00  0.00     0.000 HD 
HETATM   24  O   UNL     2     -10.216   4.305  63.044  1.00  0.00    -0.113 OA 
HETATM   25  O   UNL     2      -9.008   2.403  63.531  1.00  0.00    -0.091 OA 
ENDBRANCH  17  20
ENDBRANCH  14  17
ENDBRANCH  11  14
ENDBRANCH   8  11
ENDBRANCH   5   8
BRANCH   6  26
HETATM   26  C   UNL     3     -10.895  10.407  69.238  1.00  0.00    -0.241 C  
HETATM   27  H   UNL     3      -9.041  10.354  68.747  1.00  0.00     0.000 HD 
HETATM   28  O   UNL     3      -9.730  11.005  68.684  1.00  0.00    -0.183 OA 
BRANCH  26  29
HETATM   29  C   UNL     3     -10.694   9.900  70.690  1.00  0.00    -0.303 C  
HETATM   30  O   UNL     3     -11.998   9.980  71.418  1.00  0.00    -0.365 OA 
HETATM   31  H   UNL     3     -11.874   9.670  72.308  1.00  0.00     0.000 HD 
BRANCH  29  32
HETATM   32  C   UNL     3     -10.347   8.399  70.796  1.00  0.00    -0.195 C  
HETATM   33  H   UNL     3     -11.284   6.725  70.352  1.00  0.00     0.000 HD 
HETATM   34  O   UNL     3     -11.498   7.648  70.287  1.00  0.00    -0.237 OA 
BRANCH  32  35
HETATM   35  C   UNL     3      -9.624   7.741  71.982  1.00  0.00    -0.168 C  
HETATM   36  H   UNL     3      -8.310   8.331  73.272  1.00  0.00     0.000 HD 
HETATM   37  O   UNL     3      -8.757   8.738  72.539  1.00  0.00    -0.406 OA 
BRANCH  35  38
HETATM   38  C   UNL     3     -10.502   7.082  73.039  1.00  0.00    -0.277 C  
HETATM   39  C   UNL     3     -10.506   5.541  72.864  1.00  0.00    -0.214 C  
HETATM   40  O   UNL     3     -11.860   7.558  72.951  1.00  0.00    -0.580 OA 
HETATM   41  O   UNL     3      -9.741   5.080  71.958  1.00  0.00    -0.155 OA 
HETATM   42  O   UNL     3     -11.441   4.961  73.482  1.00  0.00    -0.311 OA 
HETATM   43  H   UNL     3     -12.408   7.147  73.610  1.00  0.00     0.000 HD 
ENDBRANCH  35  38
ENDBRANCH  32  35
ENDBRANCH  29  32
ENDBRANCH  26  29
ENDBRANCH   6  26
TORSDOF 10
ENDMDL
MODEL      382
REMARK 921   NORMALIZED FREE ENERGY PREDICTED BY IDOCK:   -4.09 KCAL/MOL
REMARK 922        TOTAL FREE ENERGY PREDICTED BY IDOCK:   -8.98 KCAL/MOL
REMARK 923 INTER-LIGAND FREE ENERGY PREDICTED BY IDOCK:   -7.53 KCAL/MOL
REMARK 924 INTRA-LIGAND FREE ENERGY PREDICTED BY IDOCK:   -1.45 KCAL/MOL
REMARK 927      BINDING AFFINITY PREDICTED BY RF-SCORE:    0.00 PKD
ROOT
HETATM    1 CA   UNL     1      -6.704   8.520  66.506  1.00  0.00    -0.056 Ca 
HETATM    2  O   UNL     2      -7.417  13.869  68.458  1.00  0.00    -0.109 OA 
HETATM    3  O   UNL     3      -9.551   2.921  66.821  1.00  0.00    -0.400 OA 
HETATM    4  H   UNL     2      -6.781  13.902  69.164  1.00  0.00     0.000 HD 
HETATM    5  C   UNL     2      -7.416  12.557  67.897  1.00  0.00    -0.120 C  
HETATM    6  C   UNL     3      -8.506   3.676  67.428  1.00  0.00    -0.096 C  
HETATM    7  H   UNL     3      -9.225   2.072  66.546  1.00  0.00     0.000 HD 
ENDROOT
BRANCH   5   8
HETATM    8  C   UNL     2      -8.449  12.503  66.751  1.00  0.00    -0.070 C  
HETATM    9  O   UNL     2      -8.241  11.297  66.025  1.00  0.00    -0.294 OA 
HETATM   10  H   UNL     2      -8.876  11.264  65.319  1.00  0.00     0.000 HD 
BRANCH   8  11
HETATM   11  C   UNL     2      -9.886  12.490  67.295  1.00  0.00    -0.204 C  
HETATM   12  H   UNL     2     -10.858  11.956  68.970  1.00  0.00     0.000 HD 
HETATM   13  O   UNL     2      -9.970  11.964  68.634  1.00  0.00    -0.207 OA 
BRANCH  11  14
HETATM   14  C   UNL     2     -10.749  13.774  67.208  1.00  0.00    -0.283 C  
HETATM   15  O   UNL     2     -12.059  13.512  67.684  1.00  0.00    -0.347 OA 
HETATM   16  H   UNL     2     -12.588  14.299  67.631  1.00  0.00     0.000 HD 
BRANCH  14  17
HETATM   17  C   UNL     2     -10.680  14.604  65.913  1.00  0.00    -0.309 C  
HETATM   18  H   UNL     2      -9.369  15.807  65.107  1.00  0.00     0.000 HD 
HETATM   19  O   UNL     2      -9.411  15.295  65.907  1.00  0.00    -0.326 OA 
BRANCH  17  20
HETATM   20  C   UNL     2     -10.913  13.836  64.612  1.00  0.00    -0.400 C  
HETATM   21  O   UNL     2     -10.001  12.723  64.483  1.00  0.00    -0.532 OA 
HETATM   22  C   UNL     2     -12.376  13.310  64.636  1.00  0.00    -0.391 C  
HETATM   23  H   UNL     2     -10.146  12.246  63.675  1.00  0.00     0.000 HD 
HETATM   24  O   UNL     2     -13.211  14.126  65.109  1.00  0.00    -0.743 OA 
HETATM   25  O   UNL     2     -12.492  12.134  64.198  1.00  0.00    -0.431 OA 
ENDBRANCH  17  20
ENDBRANCH  14  17
ENDBRANCH  11  14
ENDBRANCH   8  11
ENDBRANCH   5   8
BRANCH   6  26
HETATM   26  C   UNL     3      -9.033   5.048  67.873  1.00  0.00    -0.108 C  
HETATM   27  H   UNL     3     -10.566   5.652  68.856  1.00  0.00     0.000 HD 
HETATM   28  O   UNL     3     -10.241   4.803  68.581  1.00  0.00    -0.106 OA 
BRANCH  26  29
HETATM   29  C   UNL     3      -7.986   5.840  68.700  1.00  0.00    -0.101 C  
HETATM   30  O   UNL     3      -7.076   6.568  67.764  1.00  0.00    -0.082 OA 
HETATM   31  H   UNL     3      -6.435   7.053  68.271  1.00  0.00     0.000 HD 
BRANCH  29  32
HETATM   32  C   UNL     3      -8.582   6.989  69.543  1.00  0.00    -0.134 C  
HETATM   33  H   UNL     3      -8.789   7.330  71.472  1.00  0.00     0.000 HD 
HETATM   34  O   UNL     3      -8.423   6.623  70.953  1.00  0.00    -0.131 OA 
BRANCH  32  35
HETATM   35  C   UNL     3      -9.881   7.742  69.218  1.00  0.00    -0.173 C  
HETATM   36  H   UNL     3     -11.235   8.638  70.268  1.00  0.00     0.000 HD 
HETATM   37  O   UNL     3     -10.432   8.171  70.470  1.00  0.00    -0.207 OA 
BRANCH  35  38
HETATM   38  C   UNL     3      -9.778   8.881  68.210  1.00  0.00    -0.157 C  
HETATM   39  C   UNL     3     -10.450   8.487  66.869  1.00  0.00    -0.275 C  
HETATM   40  O   UNL     3      -8.400   9.218  67.951  1.00  0.00    -0.115 OA 
HETATM   41  O   UNL     3     -11.033   7.357  66.847  1.00  0.00    -0.324 OA 
HETATM   42  O   UNL     3     -10.132   9.233  65.902  1.00  0.00    -0.293 OA 
HETATM   43  H   UNL     3      -8.336   9.928  67.323  1.00  0.00     0.000 HD 
ENDBRANCH  35  38
ENDBRANCH  32  35
ENDBRANCH  29  32
ENDBRANCH  26  29
ENDBRANCH   6  26
TORSDOF 10
ENDMDL
MODEL      383
REMARK 921   NORMALIZED FREE ENERGY PREDICTED BY IDOCK:   -4.08 KCAL/MOL
REMARK 922        TOTAL FREE ENERGY PREDICTED BY IDOCK:   -8.96 KCAL/MOL
REMARK 923 INTER-LIGAND FREE ENERGY PREDICTED BY IDOCK:   -8.38 KCAL/MOL
REMARK 924 INTRA-LIGAND FREE ENERGY PREDICTED BY IDOCK:   -0.58 KCAL/MOL
REMARK 927      BINDING AFFINITY PREDICTED BY RF-SCORE:    0.00 PKD
ROOT
HETATM    1 CA   UNL     1      -8.911  10.369  68.266  1.00  0.00    -0.117 Ca 
HETATM    2  O   UNL     2     -12.506  14.799  68.874  1.00  0.00    -0.573 OA 
HETATM    3  O   UNL     3      -9.061   4.321  66.548  1.00  0.00    -0.116 OA 
HETATM    4  H   UNL     2     -12.619  14.827  69.818  1.00  0.00     0.000 HD 
HETATM    5  C   UNL     2     -11.675  13.689  68.541  1.00  0.00    -0.357 C  
HETATM    6  C   UNL     3      -9.087   5.152  67.705  1.00  0.00    -0.111 C  
HETATM    7  H   UNL     3      -8.382   3.662  66.632  1.00  0.00     0.000 HD 
ENDROOT
BRANCH   5   8
HETATM    8  C   UNL     2     -11.492  13.644  67.009  1.00  0.00    -0.343 C  
HETATM    9  O   UNL     2     -12.696  14.109  66.407  1.00  0.00    -0.529 OA 
HETATM   10  H   UNL     2     -12.583  14.081  65.464  1.00  0.00     0.000 HD 
BRANCH   8  11
HETATM   11  C   UNL     2     -10.347  14.563  66.556  1.00  0.00    -0.283 C  
HETATM   12  H   UNL     2      -8.708  14.469  65.397  1.00  0.00     0.000 HD 
HETATM   13  O   UNL     2      -9.416  13.900  65.677  1.00  0.00    -0.099 OA 
BRANCH  11  14
HETATM   14  C   UNL     2     -10.672  15.961  65.975  1.00  0.00    -0.284 C  
HETATM   15  O   UNL     2     -10.705  15.904  64.558  1.00  0.00    -0.794 OA 
HETATM   16  H   UNL     2     -10.905  16.762  64.202  1.00  0.00     0.000 HD 
BRANCH  14  17
HETATM   17  C   UNL     2      -9.930  17.178  66.561  1.00  0.00    -0.302 C  
HETATM   18  H   UNL     2      -9.165  18.818  65.826  1.00  0.00     0.000 HD 
HETATM   19  O   UNL     2      -9.622  18.067  65.464  1.00  0.00    -0.231 OA 
BRANCH  17  20
HETATM   20  C   UNL     2     -10.638  17.908  67.702  1.00  0.00    -0.387 C  
HETATM   21  O   UNL     2     -10.688  17.099  68.897  1.00  0.00    -0.323 OA 
HETATM   22  C   UNL     2      -9.841  19.212  67.988  1.00  0.00    -0.356 C  
HETATM   23  H   UNL     2     -11.128  17.553  69.606  1.00  0.00     0.000 HD 
HETATM   24  O   UNL     2      -9.421  19.798  66.955  1.00  0.00    -0.326 OA 
HETATM   25  O   UNL     2      -9.719  19.463  69.217  1.00  0.00    -0.379 OA 
ENDBRANCH  17  20
ENDBRANCH  14  17
ENDBRANCH  11  14
ENDBRANCH   8  11
ENDBRANCH   5   8
BRANCH   6  26
HETATM   26  C   UNL     3     -10.184   6.217  67.568  1.00  0.00    -0.173 C  
HETATM   27  H   UNL     3     -11.671   6.479  66.383  1.00  0.00     0.000 HD 
HETATM   28  O   UNL     3     -10.992   5.820  66.468  1.00  0.00    -0.253 OA 
BRANCH  26  29
HETATM   29  C   UNL     3     -10.987   6.407  68.882  1.00  0.00    -0.346 C  
HETATM   30  O   UNL     3     -10.749   5.228  69.771  1.00  0.00    -0.286 OA 
HETATM   31  H   UNL     3     -11.241   5.344  70.576  1.00  0.00     0.000 HD 
BRANCH  29  32
HETATM   32  C   UNL     3     -10.505   7.584  69.756  1.00  0.00    -0.230 C  
HETATM   33  H   UNL     3     -10.357   9.532  69.501  1.00  0.00     0.000 HD 
HETATM   34  O   UNL     3     -10.653   8.807  68.963  1.00  0.00    -0.222 OA 
BRANCH  32  35
HETATM   35  C   UNL     3      -9.270   7.558  70.670  1.00  0.00    -0.159 C  
HETATM   36  H   UNL     3      -8.606   6.350  72.027  1.00  0.00     0.000 HD 
HETATM   37  O   UNL     3      -9.369   6.367  71.462  1.00  0.00    -0.149 OA 
BRANCH  35  38
HETATM   38  C   UNL     3      -7.912   7.690  69.991  1.00  0.00    -0.114 C  
HETATM   39  C   UNL     3      -6.987   8.641  70.796  1.00  0.00    -0.059 C  
HETATM   40  O   UNL     3      -8.052   8.210  68.654  1.00  0.00    -0.120 OA 
HETATM   41  O   UNL     3      -7.455   9.075  71.895  1.00  0.00    -0.325 OA 
HETATM   42  O   UNL     3      -5.985   9.046  70.145  1.00  0.00    -0.033 OA 
HETATM   43  H   UNL     3      -7.206   8.292  68.230  1.00  0.00     0.000 HD 
ENDBRANCH  35  38
ENDBRANCH  32  35
ENDBRANCH  29  32
ENDBRANCH  26  29
ENDBRANCH   6  26
TORSDOF 10
ENDMDL
MODEL      384
REMARK 921   NORMALIZED FREE ENERGY PREDICTED BY IDOCK:   -4.05 KCAL/MOL
REMARK 922        TOTAL FREE ENERGY PREDICTED BY IDOCK:   -8.92 KCAL/MOL
REMARK 923 INTER-LIGAND FREE ENERGY PREDICTED BY IDOCK:   -7.61 KCAL/MOL
REMARK 924 INTRA-LIGAND FREE ENERGY PREDICTED BY IDOCK:   -1.32 KCAL/MOL
REMARK 927      BINDING AFFINITY PREDICTED BY RF-SCORE:    0.00 PKD
ROOT
HETATM    1 CA   UNL     1      -9.030  11.510  66.826  1.00  0.00    -0.147 Ca 
HETATM    2  O   UNL     2     -13.822  14.373  65.498  1.00  0.00    -0.258 OA 
HETATM    3  O   UNL     3      -5.145   7.285  64.256  1.00  0.00    -0.028 OA 
HETATM    4  H   UNL     2     -14.476  13.891  65.991  1.00  0.00     0.000 HD 
HETATM    5  C   UNL     2     -12.556  13.738  65.668  1.00  0.00    -0.509 C  
HETATM    6  C   UNL     3      -6.265   7.381  65.132  1.00  0.00    -0.038 C  
HETATM    7  H   UNL     3      -4.447   6.790  64.669  1.00  0.00     0.000 HD 
ENDROOT
BRANCH   5   8
HETATM    8  C   UNL     2     -11.493  14.521  64.868  1.00  0.00    -0.396 C  
HETATM    9  O   UNL     2     -12.165  15.298  63.883  1.00  0.00    -0.964 OA 
HETATM   10  H   UNL     2     -11.511  15.780  63.391  1.00  0.00     0.000 HD 
BRANCH   8  11
HETATM   11  C   UNL     2     -10.705  15.480  65.776  1.00  0.00    -0.353 C  
HETATM   12  H   UNL     2     -10.761  16.149  67.670  1.00  0.00     0.000 HD 
HETATM   13  O   UNL     2     -11.248  15.556  67.109  1.00  0.00    -0.299 OA 
BRANCH  11  14
HETATM   14  C   UNL     2      -9.165  15.350  65.871  1.00  0.00    -0.239 C  
HETATM   15  O   UNL     2      -8.819  14.196  66.619  1.00  0.00    -0.390 OA 
HETATM   16  H   UNL     2      -7.874  14.117  66.677  1.00  0.00     0.000 HD 
BRANCH  14  17
HETATM   17  C   UNL     2      -8.353  16.614  66.211  1.00  0.00    -0.325 C  
HETATM   18  H   UNL     2      -8.663  18.538  66.071  1.00  0.00     0.000 HD 
HETATM   19  O   UNL     2      -9.164  17.758  65.861  1.00  0.00    -0.519 OA 
BRANCH  17  20
HETATM   20  C   UNL     2      -7.829  16.708  67.644  1.00  0.00    -0.174 C  
HETATM   21  O   UNL     2      -8.572  15.848  68.536  1.00  0.00    -0.174 OA 
HETATM   22  C   UNL     2      -6.336  16.274  67.625  1.00  0.00    -0.157 C  
HETATM   23  H   UNL     2      -8.246  15.906  69.426  1.00  0.00     0.000 HD 
HETATM   24  O   UNL     2      -5.689  16.694  66.630  1.00  0.00    -0.331 OA 
HETATM   25  O   UNL     2      -6.015  15.545  68.601  1.00  0.00    -0.094 OA 
ENDBRANCH  17  20
ENDBRANCH  14  17
ENDBRANCH  11  14
ENDBRANCH   8  11
ENDBRANCH   5   8
BRANCH   6  26
HETATM   26  C   UNL     3      -7.393   8.180  64.464  1.00  0.00    -0.088 C  
HETATM   27  H   UNL     3      -8.245   8.134  62.745  1.00  0.00     0.000 HD 
HETATM   28  O   UNL     3      -7.547   7.640  63.158  1.00  0.00    -0.104 OA 
BRANCH  26  29
HETATM   29  C   UNL     3      -8.702   8.158  65.296  1.00  0.00    -0.059 C  
HETATM   30  O   UNL     3      -9.110   6.737  65.522  1.00  0.00    -0.370 OA 
HETATM   31  H   UNL     3      -9.912   6.724  66.032  1.00  0.00     0.000 HD 
BRANCH  29  32
HETATM   32  C   UNL     3      -8.548   8.692  66.737  1.00  0.00    -0.120 C  
HETATM   33  H   UNL     3      -7.403  10.042  67.600  1.00  0.00     0.000 HD 
HETATM   34  O   UNL     3      -7.498   9.713  66.714  1.00  0.00    -0.093 OA 
BRANCH  32  35
HETATM   35  C   UNL     3      -8.575   7.827  68.007  1.00  0.00    -0.123 C  
HETATM   36  H   UNL     3      -7.357   7.534  69.480  1.00  0.00     0.000 HD 
HETATM   37  O   UNL     3      -7.340   8.068  68.694  1.00  0.00    -0.085 OA 
BRANCH  35  38
HETATM   38  C   UNL     3      -9.786   7.988  68.919  1.00  0.00    -0.175 C  
HETATM   39  C   UNL     3      -9.901   6.785  69.891  1.00  0.00    -0.164 C  
HETATM   40  O   UNL     3     -11.002   8.075  68.150  1.00  0.00    -0.447 OA 
HETATM   41  O   UNL     3      -8.960   5.931  69.837  1.00  0.00    -0.136 OA 
HETATM   42  O   UNL     3     -11.031   6.686  70.445  1.00  0.00    -0.249 OA 
HETATM   43  H   UNL     3     -11.757   8.175  68.718  1.00  0.00     0.000 HD 
ENDBRANCH  35  38
ENDBRANCH  32  35
ENDBRANCH  29  32
ENDBRANCH  26  29
ENDBRANCH   6  26
TORSDOF 10
ENDMDL
MODEL      385
REMARK 921   NORMALIZED FREE ENERGY PREDICTED BY IDOCK:   -4.05 KCAL/MOL
REMARK 922        TOTAL FREE ENERGY PREDICTED BY IDOCK:   -8.92 KCAL/MOL
REMARK 923 INTER-LIGAND FREE ENERGY PREDICTED BY IDOCK:   -7.40 KCAL/MOL
REMARK 924 INTRA-LIGAND FREE ENERGY PREDICTED BY IDOCK:   -1.52 KCAL/MOL
REMARK 927      BINDING AFFINITY PREDICTED BY RF-SCORE:    0.00 PKD
ROOT
HETATM    1 CA   UNL     1     -10.754  10.332  68.091  1.00  0.00    -0.163 Ca 
HETATM    2  O   UNL     2     -12.970  14.470  64.792  1.00  0.00    -0.562 OA 
HETATM    3  O   UNL     3      -5.125   8.038  69.707  1.00  0.00    -0.022 OA 
HETATM    4  H   UNL     2     -13.270  13.975  64.039  1.00  0.00     0.000 HD 
HETATM    5  C   UNL     2     -12.320  13.582  65.699  1.00  0.00    -0.476 C  
HETATM    6  C   UNL     3      -6.198   7.819  68.796  1.00  0.00    -0.039 C  
HETATM    7  H   UNL     3      -4.921   7.236  70.173  1.00  0.00     0.000 HD 
ENDROOT
BRANCH   5   8
HETATM    8  C   UNL     2     -11.832  14.386  66.923  1.00  0.00    -0.410 C  
HETATM    9  O   UNL     2     -12.037  13.590  68.085  1.00  0.00    -0.346 OA 
HETATM   10  H   UNL     2     -11.737  14.086  68.839  1.00  0.00     0.000 HD 
BRANCH   8  11
HETATM   11  C   UNL     2     -10.331  14.703  66.821  1.00  0.00    -0.268 C  
HETATM   12  H   UNL     2      -8.753  14.174  65.695  1.00  0.00     0.000 HD 
HETATM   13  O   UNL     2      -9.681  13.978  65.758  1.00  0.00    -0.275 OA 
BRANCH  11  14
HETATM   14  C   UNL     2      -9.863  16.179  66.778  1.00  0.00    -0.245 C  
HETATM   15  O   UNL     2      -9.245  16.457  65.532  1.00  0.00    -0.419 OA 
HETATM   16  H   UNL     2      -8.957  17.362  65.506  1.00  0.00     0.000 HD 
BRANCH  14  17
HETATM   17  C   UNL     2      -9.126  16.738  68.010  1.00  0.00    -0.228 C  
HETATM   18  H   UNL     2      -9.674  17.541  69.705  1.00  0.00     0.000 HD 
HETATM   19  O   UNL     2     -10.129  17.195  68.945  1.00  0.00    -0.293 OA 
BRANCH  17  20
HETATM   20  C   UNL     2      -8.120  15.798  68.673  1.00  0.00    -0.161 C  
HETATM   21  O   UNL     2      -8.758  14.595  69.155  1.00  0.00    -0.322 OA 
HETATM   22  C   UNL     2      -7.052  15.429  67.606  1.00  0.00    -0.180 C  
HETATM   23  H   UNL     2      -8.133  14.011  69.567  1.00  0.00     0.000 HD 
HETATM   24  O   UNL     2      -6.708  16.388  66.865  1.00  0.00    -0.198 OA 
HETATM   25  O   UNL     2      -6.715  14.215  67.634  1.00  0.00    -0.169 OA 
ENDBRANCH  17  20
ENDBRANCH  14  17
ENDBRANCH  11  14
ENDBRANCH   8  11
ENDBRANCH   5   8
BRANCH   6  26
HETATM   26  C   UNL     3      -6.527   9.116  68.043  1.00  0.00    -0.059 C  
HETATM   27  H   UNL     3      -5.577  10.238  66.809  1.00  0.00     0.000 HD 
HETATM   28  O   UNL     3      -5.374   9.436  67.275  1.00  0.00    -0.036 OA 
BRANCH  26  29
HETATM   29  C   UNL     3      -7.816   8.989  67.189  1.00  0.00    -0.099 C  
HETATM   30  O   UNL     3      -8.999   8.926  68.101  1.00  0.00    -0.137 OA 
HETATM   31  H   UNL     3      -9.788   8.848  67.577  1.00  0.00     0.000 HD 
BRANCH  29  32
HETATM   32  C   UNL     3      -8.129  10.230  66.325  1.00  0.00    -0.129 C  
HETATM   33  H   UNL     3      -9.010  11.962  66.653  1.00  0.00     0.000 HD 
HETATM   34  O   UNL     3      -8.817  11.198  67.184  1.00  0.00    -0.139 OA 
BRANCH  32  35
HETATM   35  C   UNL     3      -8.629  10.193  64.872  1.00  0.00    -0.178 C  
HETATM   36  H   UNL     3      -8.423   8.963  63.394  1.00  0.00     0.000 HD 
HETATM   37  O   UNL     3      -8.114   8.986  64.292  1.00  0.00    -0.135 OA 
BRANCH  35  38
HETATM   38  C   UNL     3     -10.131  10.342  64.660  1.00  0.00    -0.308 C  
HETATM   39  C   UNL     3     -10.423  11.317  63.490  1.00  0.00    -0.395 C  
HETATM   40  O   UNL     3     -10.772  10.846  65.849  1.00  0.00    -0.215 OA 
HETATM   41  O   UNL     3      -9.409  11.754  62.861  1.00  0.00    -0.355 OA 
HETATM   42  O   UNL     3     -11.614  11.734  63.462  1.00  0.00    -0.434 OA 
HETATM   43  H   UNL     3     -11.708  10.940  65.716  1.00  0.00     0.000 HD 
ENDBRANCH  35  38
ENDBRANCH  32  35
ENDBRANCH  29  32
ENDBRANCH  26  29
ENDBRANCH   6  26
TORSDOF 10
ENDMDL
MODEL      386
REMARK 921   NORMALIZED FREE ENERGY PREDICTED BY IDOCK:   -4.03 KCAL/MOL
REMARK 922        TOTAL FREE ENERGY PREDICTED BY IDOCK:   -8.89 KCAL/MOL
REMARK 923 INTER-LIGAND FREE ENERGY PREDICTED BY IDOCK:   -8.00 KCAL/MOL
REMARK 924 INTRA-LIGAND FREE ENERGY PREDICTED BY IDOCK:   -0.89 KCAL/MOL
REMARK 927      BINDING AFFINITY PREDICTED BY RF-SCORE:    0.00 PKD
ROOT
HETATM    1 CA   UNL     1      -6.578  12.143  67.493  1.00  0.00    -0.063 Ca 
HETATM    2  O   UNL     2      -8.076   6.769  66.154  1.00  0.00    -0.105 OA 
HETATM    3  O   UNL     3      -8.852  17.984  66.979  1.00  0.00    -0.243 OA 
HETATM    4  H   UNL     2      -7.540   6.606  65.385  1.00  0.00     0.000 HD 
HETATM    5  C   UNL     2      -7.869   8.113  66.584  1.00  0.00    -0.094 C  
HETATM    6  C   UNL     3      -7.975  17.069  66.329  1.00  0.00    -0.308 C  
HETATM    7  H   UNL     3      -8.409  18.810  67.132  1.00  0.00     0.000 HD 
ENDROOT
BRANCH   5   8
HETATM    8  C   UNL     2      -8.739   8.377  67.831  1.00  0.00    -0.138 C  
HETATM    9  O   UNL     2     -10.066   8.653  67.395  1.00  0.00    -0.191 OA 
HETATM   10  H   UNL     2     -10.601   8.816  68.163  1.00  0.00     0.000 HD 
BRANCH   8  11
HETATM   11  C   UNL     2      -8.786   7.146  68.750  1.00  0.00    -0.130 C  
HETATM   12  H   UNL     2      -7.508   5.837  69.582  1.00  0.00     0.000 HD 
HETATM   13  O   UNL     2      -7.479   6.599  69.015  1.00  0.00    -0.091 OA 
BRANCH  11  14
HETATM   14  C   UNL     2      -9.578   7.213  70.079  1.00  0.00    -0.164 C  
HETATM   15  O   UNL     2      -9.103   6.224  70.978  1.00  0.00    -0.152 OA 
HETATM   16  H   UNL     2      -9.589   6.265  71.794  1.00  0.00     0.000 HD 
BRANCH  14  17
HETATM   17  C   UNL     2     -11.111   7.340  70.001  1.00  0.00    -0.240 C  
HETATM   18  H   UNL     2     -12.513   6.539  68.902  1.00  0.00     0.000 HD 
HETATM   19  O   UNL     2     -11.567   6.460  68.950  1.00  0.00    -0.230 OA 
BRANCH  17  20
HETATM   20  C   UNL     2     -11.870   7.104  71.307  1.00  0.00    -0.318 C  
HETATM   21  O   UNL     2     -11.631   5.776  71.825  1.00  0.00    -0.208 OA 
HETATM   22  C   UNL     2     -11.373   8.160  72.334  1.00  0.00    -0.391 C  
HETATM   23  H   UNL     2     -12.102   5.629  72.636  1.00  0.00     0.000 HD 
HETATM   24  O   UNL     2     -11.188   9.307  71.847  1.00  0.00    -0.370 OA 
HETATM   25  O   UNL     2     -11.209   7.693  73.493  1.00  0.00    -0.283 OA 
ENDBRANCH  17  20
ENDBRANCH  14  17
ENDBRANCH  11  14
ENDBRANCH   8  11
ENDBRANCH   5   8
BRANCH   6  26
HETATM   26  C   UNL     3      -8.691  15.734  66.082  1.00  0.00    -0.258 C  
HETATM   27  H   UNL     3      -8.576  13.977  66.847  1.00  0.00     0.000 HD 
HETATM   28  O   UNL     3      -8.132  14.803  67.000  1.00  0.00    -0.205 OA 
BRANCH  26  29
HETATM   29  C   UNL     3     -10.233  15.862  66.200  1.00  0.00    -0.324 C  
HETATM   30  O   UNL     3     -10.741  16.690  65.063  1.00  0.00    -0.677 OA 
HETATM   31  H   UNL     3     -11.685  16.769  65.136  1.00  0.00     0.000 HD 
BRANCH  29  32
HETATM   32  C   UNL     3     -10.997  14.534  66.011  1.00  0.00    -0.324 C  
HETATM   33  H   UNL     3     -12.337  13.876  64.725  1.00  0.00     0.000 HD 
HETATM   34  O   UNL     3     -11.867  14.694  64.843  1.00  0.00    -0.381 OA 
BRANCH  32  35
HETATM   35  C   UNL     3     -11.595  13.689  67.146  1.00  0.00    -0.361 C  
HETATM   36  H   UNL     3     -12.650  12.070  67.227  1.00  0.00     0.000 HD 
HETATM   37  O   UNL     3     -12.280  12.593  66.525  1.00  0.00    -0.538 OA 
BRANCH  35  38
HETATM   38  C   UNL     3     -10.634  13.227  68.236  1.00  0.00    -0.251 C  
HETATM   39  C   UNL     3      -9.880  11.946  67.793  1.00  0.00    -0.184 C  
HETATM   40  O   UNL     3     -11.340  12.945  69.460  1.00  0.00    -0.394 OA 
HETATM   41  O   UNL     3     -10.106  11.546  66.608  1.00  0.00    -0.203 OA 
HETATM   42  O   UNL     3      -9.319  11.333  68.744  1.00  0.00    -0.182 OA 
HETATM   43  H   UNL     3     -10.741  12.657  70.139  1.00  0.00     0.000 HD 
ENDBRANCH  35  38
ENDBRANCH  32  35
ENDBRANCH  29  32
ENDBRANCH  26  29
ENDBRANCH   6  26
TORSDOF 10
ENDMDL
MODEL      387
REMARK 921   NORMALIZED FREE ENERGY PREDICTED BY IDOCK:   -4.03 KCAL/MOL
REMARK 922        TOTAL FREE ENERGY PREDICTED BY IDOCK:   -8.88 KCAL/MOL
REMARK 923 INTER-LIGAND FREE ENERGY PREDICTED BY IDOCK:   -7.15 KCAL/MOL
REMARK 924 INTRA-LIGAND FREE ENERGY PREDICTED BY IDOCK:   -1.73 KCAL/MOL
REMARK 927      BINDING AFFINITY PREDICTED BY RF-SCORE:    0.00 PKD
ROOT
HETATM    1 CA   UNL     1     -11.941  11.106  67.409  1.00  0.00    -0.278 Ca 
HETATM    2  O   UNL     2     -13.693   8.348  72.126  1.00  0.00    -0.422 OA 
HETATM    3  O   UNL     3      -9.131  16.504  65.821  1.00  0.00    -0.487 OA 
HETATM    4  H   UNL     2     -14.630   8.500  72.100  1.00  0.00     0.000 HD 
HETATM    5  C   UNL     2     -13.083   9.037  71.035  1.00  0.00    -0.021 C  
HETATM    6  C   UNL     3     -10.422  15.914  65.946  1.00  0.00    -0.359 C  
HETATM    7  H   UNL     3      -9.029  16.890  64.959  1.00  0.00     0.000 HD 
ENDROOT
BRANCH   5   8
HETATM    8  C   UNL     2     -11.560   8.789  71.077  1.00  0.00    -0.288 C  
HETATM    9  O   UNL     2     -11.164   8.704  72.442  1.00  0.00    -0.357 OA 
HETATM   10  H   UNL     2     -10.226   8.552  72.468  1.00  0.00     0.000 HD 
BRANCH   8  11
HETATM   11  C   UNL     2     -11.190   7.465  70.390  1.00  0.00    -0.262 C  
HETATM   12  H   UNL     2     -12.019   5.670  70.034  1.00  0.00     0.000 HD 
HETATM   13  O   UNL     2     -12.248   6.488  70.459  1.00  0.00    -0.325 OA 
BRANCH  11  14
HETATM   14  C   UNL     2     -10.621   7.484  68.950  1.00  0.00    -0.169 C  
HETATM   15  O   UNL     2     -11.426   6.684  68.098  1.00  0.00    -0.551 OA 
HETATM   16  H   UNL     2     -11.077   6.696  67.215  1.00  0.00     0.000 HD 
BRANCH  14  17
HETATM   17  C   UNL     2      -9.102   7.301  68.771  1.00  0.00    -0.127 C  
HETATM   18  H   UNL     2      -7.516   8.326  69.268  1.00  0.00     0.000 HD 
HETATM   19  O   UNL     2      -8.453   8.439  69.379  1.00  0.00    -0.122 OA 
BRANCH  17  20
HETATM   20  C   UNL     2      -8.523   5.980  69.277  1.00  0.00    -0.115 C  
HETATM   21  O   UNL     2      -9.564   5.022  69.566  1.00  0.00    -0.136 OA 
HETATM   22  C   UNL     2      -7.594   5.420  68.163  1.00  0.00    -0.081 C  
HETATM   23  H   UNL     2      -9.204   4.201  69.880  1.00  0.00     0.000 HD 
HETATM   24  O   UNL     2      -6.899   6.295  67.581  1.00  0.00    -0.064 OA 
HETATM   25  O   UNL     2      -7.702   4.175  68.001  1.00  0.00    -0.071 OA 
ENDBRANCH  17  20
ENDBRANCH  14  17
ENDBRANCH  11  14
ENDBRANCH   8  11
ENDBRANCH   5   8
BRANCH   6  26
HETATM   26  C   UNL     3     -10.587  15.290  67.339  1.00  0.00    -0.282 C  
HETATM   27  H   UNL     3     -11.952  15.340  68.688  1.00  0.00     0.000 HD 
HETATM   28  O   UNL     3     -11.850  15.726  67.826  1.00  0.00    -0.102 OA 
BRANCH  26  29
HETATM   29  C   UNL     3     -10.439  13.746  67.314  1.00  0.00    -0.264 C  
HETATM   30  O   UNL     3      -9.040  13.398  66.918  1.00  0.00    -0.231 OA 
HETATM   31  H   UNL     3      -8.950  12.452  66.902  1.00  0.00     0.000 HD 
BRANCH  29  32
HETATM   32  C   UNL     3     -10.569  13.073  68.697  1.00  0.00    -0.236 C  
HETATM   33  H   UNL     3     -10.031  11.334  69.450  1.00  0.00     0.000 HD 
HETATM   34  O   UNL     3      -9.952  11.748  68.598  1.00  0.00    -0.212 OA 
BRANCH  32  35
HETATM   35  C   UNL     3     -11.813  13.136  69.597  1.00  0.00    -0.324 C  
HETATM   36  H   UNL     3     -13.012  11.823  70.357  1.00  0.00     0.000 HD 
HETATM   37  O   UNL     3     -12.243  11.784  69.800  1.00  0.00    -0.269 OA 
BRANCH  35  38
HETATM   38  C   UNL     3     -11.672  13.902  70.908  1.00  0.00     0.011 C  
HETATM   39  C   UNL     3     -13.030  14.522  71.328  1.00  0.00    -0.333 C  
HETATM   40  O   UNL     3     -10.702  14.961  70.785  1.00  0.00    -0.521 OA 
HETATM   41  O   UNL     3     -14.026  14.236  70.592  1.00  0.00     0.180 OA 
HETATM   42  O   UNL     3     -12.928  15.418  72.211  1.00  0.00    -0.335 OA 
HETATM   43  H   UNL     3     -10.614  15.438  71.602  1.00  0.00     0.000 HD 
ENDBRANCH  35  38
ENDBRANCH  32  35
ENDBRANCH  29  32
ENDBRANCH  26  29
ENDBRANCH   6  26
TORSDOF 10
ENDMDL
MODEL      388
REMARK 921   NORMALIZED FREE ENERGY PREDICTED BY IDOCK:   -4.02 KCAL/MOL
REMARK 922        TOTAL FREE ENERGY PREDICTED BY IDOCK:   -8.87 KCAL/MOL
REMARK 923 INTER-LIGAND FREE ENERGY PREDICTED BY IDOCK:   -7.49 KCAL/MOL
REMARK 924 INTRA-LIGAND FREE ENERGY PREDICTED BY IDOCK:   -1.38 KCAL/MOL
REMARK 927      BINDING AFFINITY PREDICTED BY RF-SCORE:    0.00 PKD
ROOT
HETATM    1 CA   UNL     1     -11.456  10.938  66.600  1.00  0.00    -0.281 Ca 
HETATM    2  O   UNL     2     -11.451  15.988  63.877  1.00  0.00    -1.188 OA 
HETATM    3  O   UNL     3      -7.778   7.616  70.472  1.00  0.00    -0.086 OA 
HETATM    4  H   UNL     2     -11.234  15.727  62.989  1.00  0.00     0.000 HD 
HETATM    5  C   UNL     2     -11.428  14.834  64.716  1.00  0.00    -0.410 C  
HETATM    6  C   UNL     3      -8.102   7.759  69.092  1.00  0.00    -0.125 C  
HETATM    7  H   UNL     3      -7.860   6.708  70.736  1.00  0.00     0.000 HD 
ENDROOT
BRANCH   5   8
HETATM    8  C   UNL     2     -11.780  15.258  66.158  1.00  0.00     0.109 C  
HETATM    9  O   UNL     2     -12.461  14.175  66.783  1.00  0.00    -0.558 OA 
HETATM   10  H   UNL     2     -12.678  14.436  67.670  1.00  0.00     0.000 HD 
BRANCH   8  11
HETATM   11  C   UNL     2     -10.515  15.561  66.976  1.00  0.00    -0.304 C  
HETATM   12  H   UNL     2      -9.251  14.600  68.207  1.00  0.00     0.000 HD 
HETATM   13  O   UNL     2     -10.033  14.413  67.701  1.00  0.00    -0.222 OA 
BRANCH  11  14
HETATM   14  C   UNL     2      -9.313  16.262  66.294  1.00  0.00    -0.326 C  
HETATM   15  O   UNL     2      -8.095  15.735  66.796  1.00  0.00    -0.233 OA 
HETATM   16  H   UNL     2      -7.358  16.165  66.378  1.00  0.00     0.000 HD 
BRANCH  14  17
HETATM   17  C   UNL     2      -9.353  17.796  66.158  1.00  0.00    -0.132 C  
HETATM   18  H   UNL     2     -10.576  19.082  65.343  1.00  0.00     0.000 HD 
HETATM   19  O   UNL     2     -10.552  18.136  65.427  1.00  0.00    -0.636 OA 
BRANCH  17  20
HETATM   20  C   UNL     2      -9.240  18.586  67.461  1.00  0.00    -0.279 C  
HETATM   21  O   UNL     2      -9.257  17.714  68.613  1.00  0.00    -0.282 OA 
HETATM   22  C   UNL     2      -7.897  19.367  67.420  1.00  0.00    -0.255 C  
HETATM   23  H   UNL     2      -9.187  18.205  69.423  1.00  0.00     0.000 HD 
HETATM   24  O   UNL     2      -7.620  19.859  66.294  1.00  0.00    -0.282 OA 
HETATM   25  O   UNL     2      -7.281  19.363  68.520  1.00  0.00    -0.292 OA 
ENDBRANCH  17  20
ENDBRANCH  14  17
ENDBRANCH  11  14
ENDBRANCH   8  11
ENDBRANCH   5   8
BRANCH   6  26
HETATM   26  C   UNL     3      -7.969   9.228  68.666  1.00  0.00    -0.100 C  
HETATM   27  H   UNL     3      -7.733  10.888  69.599  1.00  0.00     0.000 HD 
HETATM   28  O   UNL     3      -7.815   9.979  69.863  1.00  0.00    -0.158 OA 
BRANCH  26  29
HETATM   29  C   UNL     3      -6.815   9.445  67.653  1.00  0.00    -0.076 C  
HETATM   30  O   UNL     3      -6.668   8.216  66.812  1.00  0.00    -0.062 OA 
HETATM   31  H   UNL     3      -5.961   8.349  66.192  1.00  0.00     0.000 HD 
BRANCH  29  32
HETATM   32  C   UNL     3      -7.093  10.537  66.598  1.00  0.00    -0.118 C  
HETATM   33  H   UNL     3      -8.418  11.983  66.414  1.00  0.00     0.000 HD 
HETATM   34  O   UNL     3      -8.247  11.310  67.063  1.00  0.00    -0.138 OA 
BRANCH  32  35
HETATM   35  C   UNL     3      -7.029  10.332  65.076  1.00  0.00    -0.112 C  
HETATM   36  H   UNL     3      -5.752   9.533  63.862  1.00  0.00     0.000 HD 
HETATM   37  O   UNL     3      -5.792   9.660  64.803  1.00  0.00    -0.071 OA 
BRANCH  35  38
HETATM   38  C   UNL     3      -8.220   9.637  64.427  1.00  0.00    -0.157 C  
HETATM   39  C   UNL     3      -8.436  10.157  62.982  1.00  0.00    -0.180 C  
HETATM   40  O   UNL     3      -9.425   9.866  65.184  1.00  0.00    -0.236 OA 
HETATM   41  O   UNL     3      -7.572  10.983  62.551  1.00  0.00    -0.064 OA 
HETATM   42  O   UNL     3      -9.570   9.873  62.505  1.00  0.00    -0.235 OA 
HETATM   43  H   UNL     3     -10.168   9.433  64.779  1.00  0.00     0.000 HD 
ENDBRANCH  35  38
ENDBRANCH  32  35
ENDBRANCH  29  32
ENDBRANCH  26  29
ENDBRANCH   6  26
TORSDOF 10
ENDMDL
MODEL      389
REMARK 921   NORMALIZED FREE ENERGY PREDICTED BY IDOCK:   -4.02 KCAL/MOL
REMARK 922        TOTAL FREE ENERGY PREDICTED BY IDOCK:   -8.86 KCAL/MOL
REMARK 923 INTER-LIGAND FREE ENERGY PREDICTED BY IDOCK:   -6.96 KCAL/MOL
REMARK 924 INTRA-LIGAND FREE ENERGY PREDICTED BY IDOCK:   -1.91 KCAL/MOL
REMARK 927      BINDING AFFINITY PREDICTED BY RF-SCORE:    0.00 PKD
ROOT
HETATM    1 CA   UNL     1     -11.055  14.893  66.235  1.00  0.00    -0.297 Ca 
HETATM    2  O   UNL     2     -10.812   9.797  68.860  1.00  0.00    -0.224 OA 
HETATM    3  O   UNL     3      -7.670  20.173  65.774  1.00  0.00    -0.461 OA 
HETATM    4  H   UNL     2     -11.428   9.919  69.573  1.00  0.00     0.000 HD 
HETATM    5  C   UNL     2     -10.701  11.019  68.132  1.00  0.00    -0.205 C  
HETATM    6  C   UNL     3      -8.767  19.611  66.490  1.00  0.00    -0.362 C  
HETATM    7  H   UNL     3      -7.919  21.008  65.395  1.00  0.00     0.000 HD 
ENDROOT
BRANCH   5   8
HETATM    8  C   UNL     2      -9.700  10.821  66.974  1.00  0.00    -0.176 C  
HETATM    9  O   UNL     2      -8.463  10.387  67.529  1.00  0.00    -0.115 OA 
HETATM   10  H   UNL     2      -7.846  10.265  66.816  1.00  0.00     0.000 HD 
BRANCH   8  11
HETATM   11  C   UNL     2     -10.187   9.742  65.993  1.00  0.00    -0.193 C  
HETATM   12  H   UNL     2     -10.318   9.460  64.008  1.00  0.00     0.000 HD 
HETATM   13  O   UNL     2     -10.017  10.127  64.615  1.00  0.00    -0.328 OA 
BRANCH  11  14
HETATM   14  C   UNL     2      -9.710   8.279  66.167  1.00  0.00    -0.119 C  
HETATM   15  O   UNL     2     -10.456   7.643  67.192  1.00  0.00    -0.287 OA 
HETATM   16  H   UNL     2     -10.163   6.745  67.298  1.00  0.00     0.000 HD 
BRANCH  14  17
HETATM   17  C   UNL     2      -8.193   8.013  66.203  1.00  0.00    -0.116 C  
HETATM   18  H   UNL     2      -7.042   6.672  67.035  1.00  0.00     0.000 HD 
HETATM   19  O   UNL     2      -7.978   6.835  67.012  1.00  0.00    -0.106 OA 
BRANCH  17  20
HETATM   20  C   UNL     2      -7.500   7.903  64.846  1.00  0.00    -0.082 C  
HETATM   21  O   UNL     2      -8.456   7.746  63.775  1.00  0.00    -0.373 OA 
HETATM   22  C   UNL     2      -6.686   9.210  64.629  1.00  0.00    -0.082 C  
HETATM   23  H   UNL     2      -8.025   7.678  62.931  1.00  0.00     0.000 HD 
HETATM   24  O   UNL     2      -6.105   9.635  65.663  1.00  0.00    -0.061 OA 
HETATM   25  O   UNL     2      -6.758   9.655  63.452  1.00  0.00    -0.100 OA 
ENDBRANCH  17  20
ENDBRANCH  14  17
ENDBRANCH  11  14
ENDBRANCH   8  11
ENDBRANCH   5   8
BRANCH   6  26
HETATM   26  C   UNL     3      -8.364  18.262  67.102  1.00  0.00    -0.245 C  
HETATM   27  H   UNL     3      -6.756  17.559  67.880  1.00  0.00     0.000 HD 
HETATM   28  O   UNL     3      -7.005  18.394  67.501  1.00  0.00    -0.201 OA 
BRANCH  26  29
HETATM   29  C   UNL     3      -9.305  17.837  68.260  1.00  0.00    -0.288 C  
HETATM   30  O   UNL     3     -10.497  18.740  68.274  1.00  0.00    -0.354 OA 
HETATM   31  H   UNL     3     -11.073  18.479  68.983  1.00  0.00     0.000 HD 
BRANCH  29  32
HETATM   32  C   UNL     3      -9.946  16.444  68.078  1.00  0.00    -0.242 C  
HETATM   33  H   UNL     3     -11.789  15.751  68.115  1.00  0.00     0.000 HD 
HETATM   34  O   UNL     3     -11.395  16.607  68.228  1.00  0.00    -0.309 OA 
BRANCH  32  35
HETATM   35  C   UNL     3      -9.385  15.132  68.647  1.00  0.00    -0.199 C  
HETATM   36  H   UNL     3     -10.166  13.487  69.300  1.00  0.00     0.000 HD 
HETATM   37  O   UNL     3     -10.513  14.299  68.948  1.00  0.00    -0.243 OA 
BRANCH  35  38
HETATM   38  C   UNL     3      -8.341  14.410  67.802  1.00  0.00    -0.169 C  
HETATM   39  C   UNL     3      -6.909  14.799  68.253  1.00  0.00    -0.114 C  
HETATM   40  O   UNL     3      -8.489  14.740  66.407  1.00  0.00    -0.428 OA 
HETATM   41  O   UNL     3      -6.831  15.559  69.269  1.00  0.00    -0.136 OA 
HETATM   42  O   UNL     3      -6.014  14.501  67.415  1.00  0.00    -0.344 OA 
HETATM   43  H   UNL     3      -7.838  14.290  65.881  1.00  0.00     0.000 HD 
ENDBRANCH  35  38
ENDBRANCH  32  35
ENDBRANCH  29  32
ENDBRANCH  26  29
ENDBRANCH   6  26
TORSDOF 10
ENDMDL
MODEL      390
REMARK 921   NORMALIZED FREE ENERGY PREDICTED BY IDOCK:   -4.02 KCAL/MOL
REMARK 922        TOTAL FREE ENERGY PREDICTED BY IDOCK:   -8.86 KCAL/MOL
REMARK 923 INTER-LIGAND FREE ENERGY PREDICTED BY IDOCK:   -7.85 KCAL/MOL
REMARK 924 INTRA-LIGAND FREE ENERGY PREDICTED BY IDOCK:   -1.01 KCAL/MOL
REMARK 927      BINDING AFFINITY PREDICTED BY RF-SCORE:    0.00 PKD
ROOT
HETATM    1 CA   UNL     1     -11.317   9.937  67.330  1.00  0.00    -0.279 Ca 
HETATM    2  O   UNL     2     -11.862  13.159  62.614  1.00  0.00    -0.560 OA 
HETATM    3  O   UNL     3      -7.158   8.907  71.934  1.00  0.00    -0.248 OA 
HETATM    4  H   UNL     2     -11.685  12.526  61.928  1.00  0.00     0.000 HD 
HETATM    5  C   UNL     2     -11.700  12.524  63.881  1.00  0.00    -0.452 C  
HETATM    6  C   UNL     3      -7.582   8.385  70.677  1.00  0.00    -0.070 C  
HETATM    7  H   UNL     3      -7.156   8.220  72.590  1.00  0.00     0.000 HD 
ENDROOT
BRANCH   5   8
HETATM    8  C   UNL     2     -11.987  13.552  64.996  1.00  0.00    -0.372 C  
HETATM    9  O   UNL     2     -13.293  13.300  65.503  1.00  0.00    -0.403 OA 
HETATM   10  H   UNL     2     -13.470  13.933  66.189  1.00  0.00     0.000 HD 
BRANCH   8  11
HETATM   11  C   UNL     2     -10.990  13.410  66.157  1.00  0.00    -0.276 C  
HETATM   12  H   UNL     2      -9.403  12.281  66.650  1.00  0.00     0.000 HD 
HETATM   13  O   UNL     2     -10.019  12.368  65.932  1.00  0.00    -0.250 OA 
BRANCH  11  14
HETATM   14  C   UNL     2     -10.260  14.665  66.695  1.00  0.00    -0.274 C  
HETATM   15  O   UNL     2      -9.259  15.076  65.778  1.00  0.00    -0.478 OA 
HETATM   16  H   UNL     2      -8.811  15.846  66.109  1.00  0.00     0.000 HD 
BRANCH  14  17
HETATM   17  C   UNL     2      -9.831  14.672  68.175  1.00  0.00    -0.224 C  
HETATM   18  H   UNL     2      -9.878  13.377  69.636  1.00  0.00     0.000 HD 
HETATM   19  O   UNL     2     -10.143  13.373  68.724  1.00  0.00    -0.192 OA 
BRANCH  17  20
HETATM   20  C   UNL     2      -8.381  15.070  68.449  1.00  0.00    -0.154 C  
HETATM   21  O   UNL     2      -8.286  15.998  69.552  1.00  0.00    -0.199 OA 
HETATM   22  C   UNL     2      -7.597  13.772  68.793  1.00  0.00    -0.099 C  
HETATM   23  H   UNL     2      -7.385  16.245  69.723  1.00  0.00     0.000 HD 
HETATM   24  O   UNL     2      -7.913  12.776  68.090  1.00  0.00    -0.137 OA 
HETATM   25  O   UNL     2      -6.782  13.916  69.744  1.00  0.00    -0.096 OA 
ENDBRANCH  17  20
ENDBRANCH  14  17
ENDBRANCH  11  14
ENDBRANCH   8  11
ENDBRANCH   5   8
BRANCH   6  26
HETATM   26  C   UNL     3      -7.586   9.496  69.617  1.00  0.00    -0.103 C  
HETATM   27  H   UNL     3      -6.789   9.712  67.885  1.00  0.00     0.000 HD 
HETATM   28  O   UNL     3      -6.786   9.025  68.540  1.00  0.00    -0.062 OA 
BRANCH  26  29
HETATM   29  C   UNL     3      -9.023   9.892  69.186  1.00  0.00    -0.169 C  
HETATM   30  O   UNL     3      -9.083   9.955  67.693  1.00  0.00    -0.131 OA 
HETATM   31  H   UNL     3      -9.963  10.198  67.430  1.00  0.00     0.000 HD 
BRANCH  29  32
HETATM   32  C   UNL     3     -10.099   8.835  69.517  1.00  0.00    -0.202 C  
HETATM   33  H   UNL     3     -11.207   7.604  68.451  1.00  0.00     0.000 HD 
HETATM   34  O   UNL     3     -10.546   8.255  68.248  1.00  0.00    -0.187 OA 
BRANCH  32  35
HETATM   35  C   UNL     3     -11.204   8.999  70.572  1.00  0.00    -0.260 C  
HETATM   36  H   UNL     3     -12.697  10.207  70.803  1.00  0.00     0.000 HD 
HETATM   37  O   UNL     3     -12.013  10.105  70.151  1.00  0.00    -0.244 OA 
BRANCH  35  38
HETATM   38  C   UNL     3     -12.036   7.762  70.891  1.00  0.00    -0.210 C  
HETATM   39  C   UNL     3     -11.595   7.141  72.243  1.00  0.00    -0.271 C  
HETATM   40  O   UNL     3     -11.894   6.766  69.860  1.00  0.00    -0.622 OA 
HETATM   41  O   UNL     3     -10.706   7.781  72.888  1.00  0.00    -0.326 OA 
HETATM   42  O   UNL     3     -12.005   5.960  72.416  1.00  0.00    -0.298 OA 
HETATM   43  H   UNL     3     -12.412   5.994  70.058  1.00  0.00     0.000 HD 
ENDBRANCH  35  38
ENDBRANCH  32  35
ENDBRANCH  29  32
ENDBRANCH  26  29
ENDBRANCH   6  26
TORSDOF 10
ENDMDL
MODEL      391
REMARK 921   NORMALIZED FREE ENERGY PREDICTED BY IDOCK:   -4.01 KCAL/MOL
REMARK 922        TOTAL FREE ENERGY PREDICTED BY IDOCK:   -8.86 KCAL/MOL
REMARK 923 INTER-LIGAND FREE ENERGY PREDICTED BY IDOCK:   -8.20 KCAL/MOL
REMARK 924 INTRA-LIGAND FREE ENERGY PREDICTED BY IDOCK:   -0.66 KCAL/MOL
REMARK 927      BINDING AFFINITY PREDICTED BY RF-SCORE:    0.00 PKD
ROOT
HETATM    1 CA   UNL     1      -8.835  14.239  65.625  1.00  0.00    -0.451 Ca 
HETATM    2  O   UNL     2      -7.946  18.634  69.205  1.00  0.00    -0.178 OA 
HETATM    3  O   UNL     3     -10.016   8.067  65.871  1.00  0.00    -0.422 OA 
HETATM    4  H   UNL     2      -7.003  18.738  69.150  1.00  0.00     0.000 HD 
HETATM    5  C   UNL     2      -8.333  17.516  68.408  1.00  0.00    -0.278 C  
HETATM    6  C   UNL     3      -8.942   8.991  65.720  1.00  0.00    -0.197 C  
HETATM    7  H   UNL     3     -10.002   7.430  65.166  1.00  0.00     0.000 HD 
ENDROOT
BRANCH   5   8
HETATM    8  C   UNL     2      -9.865  17.346  68.498  1.00  0.00    -0.320 C  
HETATM    9  O   UNL     2     -10.428  17.761  67.258  1.00  0.00    -0.356 OA 
HETATM   10  H   UNL     2     -11.371  17.656  67.313  1.00  0.00     0.000 HD 
BRANCH   8  11
HETATM   11  C   UNL     2     -10.251  15.876  68.729  1.00  0.00    -0.220 C  
HETATM   12  H   UNL     2      -9.465  14.225  69.563  1.00  0.00     0.000 HD 
HETATM   13  O   UNL     2      -9.226  15.134  69.419  1.00  0.00    -0.220 OA 
BRANCH  11  14
HETATM   14  C   UNL     2     -11.624  15.537  69.360  1.00  0.00    -0.355 C  
HETATM   15  O   UNL     2     -12.439  16.697  69.404  1.00  0.00     0.039 OA 
HETATM   16  H   UNL     2     -13.282  16.489  69.791  1.00  0.00     0.000 HD 
BRANCH  14  17
HETATM   17  C   UNL     2     -11.639  14.681  70.641  1.00  0.00    -0.250 C  
HETATM   18  H   UNL     2     -11.500  15.050  72.554  1.00  0.00     0.000 HD 
HETATM   19  O   UNL     2     -11.491  15.578  71.764  1.00  0.00    -0.390 OA 
BRANCH  17  20
HETATM   20  C   UNL     2     -12.842  13.753  70.812  1.00  0.00    -0.232 C  
HETATM   21  O   UNL     2     -12.428  12.399  71.099  1.00  0.00    -0.343 OA 
HETATM   22  C   UNL     2     -13.690  14.300  71.994  1.00  0.00    -0.450 C  
HETATM   23  H   UNL     2     -13.175  11.822  71.205  1.00  0.00     0.000 HD 
HETATM   24  O   UNL     2     -13.784  15.556  72.025  1.00  0.00    -0.458 OA 
HETATM   25  O   UNL     2     -14.132  13.396  72.753  1.00  0.00    -0.715 OA 
ENDBRANCH  17  20
ENDBRANCH  14  17
ENDBRANCH  11  14
ENDBRANCH   8  11
ENDBRANCH   5   8
BRANCH   6  26
HETATM   26  C   UNL     3      -8.964  10.019  66.860  1.00  0.00    -0.135 C  
HETATM   27  H   UNL     3     -10.346  10.854  67.898  1.00  0.00     0.000 HD 
HETATM   28  O   UNL     3     -10.332  10.218  67.192  1.00  0.00    -0.212 OA 
BRANCH  26  29
HETATM   29  C   UNL     3      -8.097   9.577  68.068  1.00  0.00    -0.102 C  
HETATM   30  O   UNL     3      -8.295  10.547  69.189  1.00  0.00    -0.144 OA 
HETATM   31  H   UNL     3      -7.764  10.276  69.929  1.00  0.00     0.000 HD 
BRANCH  29  32
HETATM   32  C   UNL     3      -8.533   8.240  68.706  1.00  0.00    -0.125 C  
HETATM   33  H   UNL     3      -8.207   6.340  68.303  1.00  0.00     0.000 HD 
HETATM   34  O   UNL     3      -7.940   7.162  67.910  1.00  0.00    -0.112 OA 
BRANCH  32  35
HETATM   35  C   UNL     3      -9.937   7.938  69.252  1.00  0.00    -0.190 C  
HETATM   36  H   UNL     3     -11.423   6.851  68.658  1.00  0.00     0.000 HD 
HETATM   37  O   UNL     3     -10.554   7.038  68.321  1.00  0.00    -0.193 OA 
BRANCH  35  38
HETATM   38  C   UNL     3     -10.020   7.432  70.687  1.00  0.00    -0.186 C  
HETATM   39  C   UNL     3     -10.786   8.443  71.580  1.00  0.00    -0.258 C  
HETATM   40  O   UNL     3      -8.704   7.235  71.242  1.00  0.00    -0.126 OA 
HETATM   41  O   UNL     3     -11.279   9.452  70.984  1.00  0.00    -0.283 OA 
HETATM   42  O   UNL     3     -10.621   8.256  72.817  1.00  0.00    -0.340 OA 
HETATM   43  H   UNL     3      -8.756   6.920  72.137  1.00  0.00     0.000 HD 
ENDBRANCH  35  38
ENDBRANCH  32  35
ENDBRANCH  29  32
ENDBRANCH  26  29
ENDBRANCH   6  26
TORSDOF 10
ENDMDL
MODEL      392
REMARK 921   NORMALIZED FREE ENERGY PREDICTED BY IDOCK:   -4.00 KCAL/MOL
REMARK 922        TOTAL FREE ENERGY PREDICTED BY IDOCK:   -8.84 KCAL/MOL
REMARK 923 INTER-LIGAND FREE ENERGY PREDICTED BY IDOCK:   -8.28 KCAL/MOL
REMARK 924 INTRA-LIGAND FREE ENERGY PREDICTED BY IDOCK:   -0.56 KCAL/MOL
REMARK 927      BINDING AFFINITY PREDICTED BY RF-SCORE:    0.00 PKD
ROOT
HETATM    1 CA   UNL     1      -8.892  12.209  69.547  1.00  0.00    -0.343 Ca 
HETATM    2  O   UNL     2     -13.570  15.298  70.770  1.00  0.00    -0.692 OA 
HETATM    3  O   UNL     3      -7.206   7.369  65.902  1.00  0.00    -0.064 OA 
HETATM    4  H   UNL     2     -13.820  14.941  71.615  1.00  0.00     0.000 HD 
HETATM    5  C   UNL     2     -12.438  14.580  70.283  1.00  0.00    -0.348 C  
HETATM    6  C   UNL     3      -7.615   7.673  67.233  1.00  0.00    -0.108 C  
HETATM    7  H   UNL     3      -6.398   6.870  65.913  1.00  0.00     0.000 HD 
ENDROOT
BRANCH   5   8
HETATM    8  C   UNL     2     -12.032  15.160  68.911  1.00  0.00    -0.253 C  
HETATM    9  O   UNL     2     -11.471  16.450  69.125  1.00  0.00    -0.288 OA 
HETATM   10  H   UNL     2     -11.221  16.807  68.281  1.00  0.00     0.000 HD 
BRANCH   8  11
HETATM   11  C   UNL     2     -10.968  14.285  68.228  1.00  0.00    -0.247 C  
HETATM   12  H   UNL     2      -9.763  12.744  68.688  1.00  0.00     0.000 HD 
HETATM   13  O   UNL     2     -10.421  13.285  69.110  1.00  0.00    -0.081 OA 
BRANCH  11  14
HETATM   14  C   UNL     2     -11.281  13.628  66.861  1.00  0.00    -0.312 C  
HETATM   15  O   UNL     2     -12.012  12.429  67.054  1.00  0.00    -0.541 OA 
HETATM   16  H   UNL     2     -12.204  12.026  66.215  1.00  0.00     0.000 HD 
BRANCH  14  17
HETATM   17  C   UNL     2     -10.144  13.539  65.825  1.00  0.00    -0.287 C  
HETATM   18  H   UNL     2      -8.426  12.614  65.732  1.00  0.00     0.000 HD 
HETATM   19  O   UNL     2      -9.128  12.669  66.371  1.00  0.00    -0.202 OA 
BRANCH  17  20
HETATM   20  C   UNL     2     -10.554  13.117  64.415  1.00  0.00    -0.421 C  
HETATM   21  O   UNL     2     -10.775  11.691  64.332  1.00  0.00    -0.291 OA 
HETATM   22  C   UNL     2     -11.871  13.867  64.067  1.00  0.00    -0.337 C  
HETATM   23  H   UNL     2     -11.030  11.429  63.456  1.00  0.00     0.000 HD 
HETATM   24  O   UNL     2     -11.903  15.064  64.461  1.00  0.00    -0.429 OA 
HETATM   25  O   UNL     2     -12.712  13.149  63.464  1.00  0.00    -0.711 OA 
ENDBRANCH  17  20
ENDBRANCH  14  17
ENDBRANCH  11  14
ENDBRANCH   8  11
ENDBRANCH   5   8
BRANCH   6  26
HETATM   26  C   UNL     3      -8.921   8.480  67.215  1.00  0.00    -0.129 C  
HETATM   27  H   UNL     3     -10.181   8.978  65.857  1.00  0.00     0.000 HD 
HETATM   28  O   UNL     3      -9.373   8.479  65.867  1.00  0.00    -0.209 OA 
BRANCH  26  29
HETATM   29  C   UNL     3      -9.969   7.923  68.214  1.00  0.00    -0.180 C  
HETATM   30  O   UNL     3     -11.262   7.711  67.494  1.00  0.00    -0.491 OA 
HETATM   31  H   UNL     3     -11.904   7.370  68.106  1.00  0.00     0.000 HD 
BRANCH  29  32
HETATM   32  C   UNL     3      -9.651   6.510  68.747  1.00  0.00    -0.126 C  
HETATM   33  H   UNL     3      -9.954   4.678  68.088  1.00  0.00     0.000 HD 
HETATM   34  O   UNL     3     -10.150   5.548  67.761  1.00  0.00    -0.149 OA 
BRANCH  32  35
HETATM   35  C   UNL     3      -9.797   6.063  70.210  1.00  0.00    -0.178 C  
HETATM   36  H   UNL     3     -10.422   4.457  71.087  1.00  0.00     0.000 HD 
HETATM   37  O   UNL     3     -10.332   4.733  70.182  1.00  0.00    -0.242 OA 
BRANCH  35  38
HETATM   38  C   UNL     3      -8.554   6.169  71.086  1.00  0.00    -0.125 C  
HETATM   39  C   UNL     3      -8.930   6.646  72.514  1.00  0.00    -0.131 C  
HETATM   40  O   UNL     3      -7.606   7.099  70.526  1.00  0.00    -0.086 OA 
HETATM   41  O   UNL     3     -10.172   6.785  72.746  1.00  0.00    -0.177 OA 
HETATM   42  O   UNL     3      -7.945   7.058  73.187  1.00  0.00    -0.097 OA 
HETATM   43  H   UNL     3      -6.831   7.165  71.072  1.00  0.00     0.000 HD 
ENDBRANCH  35  38
ENDBRANCH  32  35
ENDBRANCH  29  32
ENDBRANCH  26  29
ENDBRANCH   6  26
TORSDOF 10
ENDMDL
MODEL      393
REMARK 921   NORMALIZED FREE ENERGY PREDICTED BY IDOCK:   -3.98 KCAL/MOL
REMARK 922        TOTAL FREE ENERGY PREDICTED BY IDOCK:   -8.81 KCAL/MOL
REMARK 923 INTER-LIGAND FREE ENERGY PREDICTED BY IDOCK:   -8.12 KCAL/MOL
REMARK 924 INTRA-LIGAND FREE ENERGY PREDICTED BY IDOCK:   -0.69 KCAL/MOL
REMARK 927      BINDING AFFINITY PREDICTED BY RF-SCORE:    0.00 PKD
ROOT
HETATM    1 CA   UNL     1     -12.032  11.130  67.026  1.00  0.00    -0.270 Ca 
HETATM    2  O   UNL     2     -10.977  16.249  64.657  1.00  0.00    -0.759 OA 
HETATM    3  O   UNL     3      -9.023   6.706  70.330  1.00  0.00    -0.150 OA 
HETATM    4  H   UNL     2     -10.891  16.021  63.738  1.00  0.00     0.000 HD 
HETATM    5  C   UNL     2     -11.180  15.055  65.411  1.00  0.00    -0.356 C  
HETATM    6  C   UNL     3      -9.396   7.040  68.996  1.00  0.00    -0.136 C  
HETATM    7  H   UNL     3      -9.307   5.824  70.539  1.00  0.00     0.000 HD 
ENDROOT
BRANCH   5   8
HETATM    8  C   UNL     2     -11.318  15.425  66.903  1.00  0.00    -0.147 C  
HETATM    9  O   UNL     2     -12.326  14.596  67.472  1.00  0.00    -0.585 OA 
HETATM   10  H   UNL     2     -12.411  14.823  68.391  1.00  0.00     0.000 HD 
BRANCH   8  11
HETATM   11  C   UNL     2     -10.007  15.173  67.665  1.00  0.00    -0.229 C  
HETATM   12  H   UNL     2      -8.132  14.563  67.277  1.00  0.00     0.000 HD 
HETATM   13  O   UNL     2      -8.943  14.719  66.806  1.00  0.00    -0.244 OA 
BRANCH  11  14
HETATM   14  C   UNL     2      -9.452  16.263  68.614  1.00  0.00    -0.228 C  
HETATM   15  O   UNL     2     -10.417  16.584  69.603  1.00  0.00    -0.301 OA 
HETATM   16  H   UNL     2     -10.077  17.253  70.186  1.00  0.00     0.000 HD 
BRANCH  14  17
HETATM   17  C   UNL     2      -8.738  17.474  67.984  1.00  0.00    -0.254 C  
HETATM   18  H   UNL     2      -8.502  18.151  66.168  1.00  0.00     0.000 HD 
HETATM   19  O   UNL     2      -8.943  17.404  66.556  1.00  0.00    -0.246 OA 
BRANCH  17  20
HETATM   20  C   UNL     2      -9.121  18.843  68.545  1.00  0.00    -0.352 C  
HETATM   21  O   UNL     2      -7.956  19.671  68.762  1.00  0.00    -0.343 OA 
HETATM   22  C   UNL     2     -10.060  19.526  67.512  1.00  0.00    -0.406 C  
HETATM   23  H   UNL     2      -8.194  20.522  69.110  1.00  0.00     0.000 HD 
HETATM   24  O   UNL     2     -10.893  18.748  66.977  1.00  0.00    -0.405 OA 
HETATM   25  O   UNL     2      -9.820  20.753  67.352  1.00  0.00    -0.464 OA 
ENDBRANCH  17  20
ENDBRANCH  14  17
ENDBRANCH  11  14
ENDBRANCH   8  11
ENDBRANCH   5   8
BRANCH   6  26
HETATM   26  C   UNL     3      -8.937   8.466  68.660  1.00  0.00    -0.140 C  
HETATM   27  H   UNL     3      -8.826  10.114  69.636  1.00  0.00     0.000 HD 
HETATM   28  O   UNL     3      -9.110   9.232  69.845  1.00  0.00    -0.161 OA 
BRANCH  26  29
HETATM   29  C   UNL     3      -7.487   8.503  68.111  1.00  0.00    -0.097 C  
HETATM   30  O   UNL     3      -7.121   7.143  67.610  1.00  0.00    -0.083 OA 
HETATM   31  H   UNL     3      -6.233   7.166  67.274  1.00  0.00     0.000 HD 
BRANCH  29  32
HETATM   32  C   UNL     3      -7.306   9.379  66.852  1.00  0.00    -0.090 C  
HETATM   33  H   UNL     3      -6.649  11.206  66.516  1.00  0.00     0.000 HD 
HETATM   34  O   UNL     3      -6.761  10.667  67.290  1.00  0.00    -0.073 OA 
BRANCH  32  35
HETATM   35  C   UNL     3      -8.305   9.468  65.688  1.00  0.00    -0.126 C  
HETATM   36  H   UNL     3      -9.199   8.176  64.560  1.00  0.00     0.000 HD 
HETATM   37  O   UNL     3      -8.582   8.121  65.280  1.00  0.00    -0.160 OA 
BRANCH  35  38
HETATM   38  C   UNL     3      -9.577  10.271  65.935  1.00  0.00    -0.209 C  
HETATM   39  C   UNL     3     -10.218  10.707  64.592  1.00  0.00    -0.334 C  
HETATM   40  O   UNL     3      -9.298  11.450  66.715  1.00  0.00    -0.173 OA 
HETATM   41  O   UNL     3      -9.655  10.273  63.538  1.00  0.00    -0.293 OA 
HETATM   42  O   UNL     3     -11.074  11.626  64.712  1.00  0.00    -0.304 OA 
HETATM   43  H   UNL     3     -10.091  11.951  66.870  1.00  0.00     0.000 HD 
ENDBRANCH  35  38
ENDBRANCH  32  35
ENDBRANCH  29  32
ENDBRANCH  26  29
ENDBRANCH   6  26
TORSDOF 10
ENDMDL
MODEL      394
REMARK 921   NORMALIZED FREE ENERGY PREDICTED BY IDOCK:   -3.96 KCAL/MOL
REMARK 922        TOTAL FREE ENERGY PREDICTED BY IDOCK:   -8.78 KCAL/MOL
REMARK 923 INTER-LIGAND FREE ENERGY PREDICTED BY IDOCK:   -7.70 KCAL/MOL
REMARK 924 INTRA-LIGAND FREE ENERGY PREDICTED BY IDOCK:   -1.08 KCAL/MOL
REMARK 927      BINDING AFFINITY PREDICTED BY RF-SCORE:    0.00 PKD
ROOT
HETATM    1 CA   UNL     1      -6.628   7.487  68.916  1.00  0.00    -0.036 Ca 
HETATM    2  O   UNL     2      -6.441  12.846  66.876  1.00  0.00    -0.468 OA 
HETATM    3  O   UNL     3      -7.838   4.489  74.310  1.00  0.00    -0.090 OA 
HETATM    4  H   UNL     2      -5.505  13.008  66.847  1.00  0.00     0.000 HD 
HETATM    5  C   UNL     2      -6.669  11.553  67.434  1.00  0.00    -0.101 C  
HETATM    6  C   UNL     3      -6.755   4.991  73.533  1.00  0.00    -0.069 C  
HETATM    7  H   UNL     3      -7.690   3.577  74.530  1.00  0.00     0.000 HD 
ENDROOT
BRANCH   5   8
HETATM    8  C   UNL     2      -8.189  11.290  67.481  1.00  0.00    -0.124 C  
HETATM    9  O   UNL     2      -8.574  11.162  68.845  1.00  0.00    -0.248 OA 
HETATM   10  H   UNL     2      -9.510  11.000  68.874  1.00  0.00     0.000 HD 
BRANCH   8  11
HETATM   11  C   UNL     2      -8.977  12.461  66.871  1.00  0.00    -0.212 C  
HETATM   12  H   UNL     2      -9.857  12.941  65.130  1.00  0.00     0.000 HD 
HETATM   13  O   UNL     2      -9.370  12.217  65.506  1.00  0.00    -0.131 OA 
BRANCH  11  14
HETATM   14  C   UNL     2     -10.184  13.053  67.640  1.00  0.00    -0.216 C  
HETATM   15  O   UNL     2      -9.876  13.160  69.021  1.00  0.00    -0.410 OA 
HETATM   16  H   UNL     2     -10.617  13.523  69.492  1.00  0.00     0.000 HD 
BRANCH  14  17
HETATM   17  C   UNL     2     -11.585  12.493  67.327  1.00  0.00    -0.367 C  
HETATM   18  H   UNL     2     -12.912  11.452  68.312  1.00  0.00     0.000 HD 
HETATM   19  O   UNL     2     -12.048  11.798  68.506  1.00  0.00    -0.454 OA 
BRANCH  17  20
HETATM   20  C   UNL     2     -12.614  13.507  66.826  1.00  0.00     0.012 C  
HETATM   21  O   UNL     2     -12.209  14.862  67.121  1.00  0.00    -0.412 OA 
HETATM   22  C   UNL     2     -12.740  13.324  65.288  1.00  0.00    -0.412 C  
HETATM   23  H   UNL     2     -12.848  15.491  66.809  1.00  0.00     0.000 HD 
HETATM   24  O   UNL     2     -12.718  12.123  64.907  1.00  0.00    -0.508 OA 
HETATM   25  O   UNL     2     -12.818  14.413  64.659  1.00  0.00    -0.643 OA 
ENDBRANCH  17  20
ENDBRANCH  14  17
ENDBRANCH  11  14
ENDBRANCH   8  11
ENDBRANCH   5   8
BRANCH   6  26
HETATM   26  C   UNL     3      -6.995   6.465  73.178  1.00  0.00    -0.075 C  
HETATM   27  H   UNL     3      -5.890   7.896  72.534  1.00  0.00     0.000 HD 
HETATM   28  O   UNL     3      -5.741   6.984  72.754  1.00  0.00    -0.041 OA 
BRANCH  26  29
HETATM   29  C   UNL     3      -8.120   6.640  72.124  1.00  0.00    -0.105 C  
HETATM   30  O   UNL     3      -8.627   5.291  71.725  1.00  0.00    -0.127 OA 
HETATM   31  H   UNL     3      -9.316   5.399  71.080  1.00  0.00     0.000 HD 
BRANCH  29  32
HETATM   32  C   UNL     3      -9.394   7.327  72.664  1.00  0.00    -0.142 C  
HETATM   33  H   UNL     3     -10.254   7.461  74.431  1.00  0.00     0.000 HD 
HETATM   34  O   UNL     3      -9.471   7.039  74.099  1.00  0.00    -0.222 OA 
BRANCH  32  35
HETATM   35  C   UNL     3     -10.750   7.364  71.943  1.00  0.00    -0.216 C  
HETATM   36  H   UNL     3     -12.300   8.519  72.018  1.00  0.00     0.000 HD 
HETATM   37  O   UNL     3     -11.461   8.495  72.464  1.00  0.00    -0.371 OA 
BRANCH  35  38
HETATM   38  C   UNL     3     -10.716   7.354  70.419  1.00  0.00    -0.237 C  
HETATM   39  C   UNL     3     -10.245   8.727  69.873  1.00  0.00    -0.200 C  
HETATM   40  O   UNL     3     -12.020   7.067  69.876  1.00  0.00    -0.593 OA 
HETATM   41  O   UNL     3      -9.892   9.583  70.744  1.00  0.00    -0.272 OA 
HETATM   42  O   UNL     3     -10.494   8.899  68.648  1.00  0.00    -0.214 OA 
HETATM   43  H   UNL     3     -11.999   7.061  68.926  1.00  0.00     0.000 HD 
ENDBRANCH  35  38
ENDBRANCH  32  35
ENDBRANCH  29  32
ENDBRANCH  26  29
ENDBRANCH   6  26
TORSDOF 10
ENDMDL
MODEL      395
REMARK 921   NORMALIZED FREE ENERGY PREDICTED BY IDOCK:   -3.96 KCAL/MOL
REMARK 922        TOTAL FREE ENERGY PREDICTED BY IDOCK:   -8.77 KCAL/MOL
REMARK 923 INTER-LIGAND FREE ENERGY PREDICTED BY IDOCK:   -6.64 KCAL/MOL
REMARK 924 INTRA-LIGAND FREE ENERGY PREDICTED BY IDOCK:   -2.13 KCAL/MOL
REMARK 927      BINDING AFFINITY PREDICTED BY RF-SCORE:    0.00 PKD
ROOT
HETATM    1 CA   UNL     1      -6.539   7.685  69.679  1.00  0.00    -0.031 Ca 
HETATM    2  O   UNL     2      -7.257  13.356  69.180  1.00  0.00    -0.252 OA 
HETATM    3  O   UNL     3      -9.511   2.360  68.141  1.00  0.00    -0.208 OA 
HETATM    4  H   UNL     2      -7.537  13.592  70.057  1.00  0.00     0.000 HD 
HETATM    5  C   UNL     2      -7.095  11.940  69.112  1.00  0.00    -0.053 C  
HETATM    6  C   UNL     3      -9.339   3.267  69.227  1.00  0.00    -0.163 C  
HETATM    7  H   UNL     3      -9.324   1.472  68.423  1.00  0.00     0.000 HD 
ENDROOT
BRANCH   5   8
HETATM    8  C   UNL     2      -6.640  11.557  67.688  1.00  0.00    -0.078 C  
HETATM    9  O   UNL     2      -5.415  10.841  67.793  1.00  0.00    -0.040 OA 
HETATM   10  H   UNL     2      -5.135  10.605  66.916  1.00  0.00     0.000 HD 
BRANCH   8  11
HETATM   11  C   UNL     2      -7.669  10.645  67.000  1.00  0.00    -0.117 C  
HETATM   12  H   UNL     2      -8.142   8.693  66.930  1.00  0.00     0.000 HD 
HETATM   13  O   UNL     2      -7.507   9.257  67.355  1.00  0.00    -0.087 OA 
BRANCH  11  14
HETATM   14  C   UNL     2      -9.173  11.004  67.063  1.00  0.00    -0.153 C  
HETATM   15  O   UNL     2      -9.959   9.860  66.769  1.00  0.00    -0.192 OA 
HETATM   16  H   UNL     2     -10.883  10.081  66.808  1.00  0.00     0.000 HD 
BRANCH  14  17
HETATM   17  C   UNL     2      -9.635  12.305  66.379  1.00  0.00    -0.237 C  
HETATM   18  H   UNL     2     -10.558  12.741  64.713  1.00  0.00     0.000 HD 
HETATM   19  O   UNL     2     -10.273  11.939  65.135  1.00  0.00    -0.259 OA 
BRANCH  17  20
HETATM   20  C   UNL     2     -10.519  13.226  67.219  1.00  0.00    -0.247 C  
HETATM   21  O   UNL     2     -10.171  13.159  68.620  1.00  0.00    -0.307 OA 
HETATM   22  C   UNL     2     -10.309  14.677  66.700  1.00  0.00    -0.273 C  
HETATM   23  H   UNL     2     -10.720  13.732  69.142  1.00  0.00     0.000 HD 
HETATM   24  O   UNL     2     -10.220  14.769  65.447  1.00  0.00    -0.341 OA 
HETATM   25  O   UNL     2     -10.237  15.532  67.622  1.00  0.00    -0.248 OA 
ENDBRANCH  17  20
ENDBRANCH  14  17
ENDBRANCH  11  14
ENDBRANCH   8  11
ENDBRANCH   5   8
BRANCH   6  26
HETATM   26  C   UNL     3      -9.641   4.702  68.771  1.00  0.00    -0.163 C  
HETATM   27  H   UNL     3     -10.297   5.494  67.151  1.00  0.00     0.000 HD 
HETATM   28  O   UNL     3     -10.110   4.606  67.433  1.00  0.00    -0.164 OA 
BRANCH  26  29
HETATM   29  C   UNL     3     -10.636   5.422  69.719  1.00  0.00    -0.277 C  
HETATM   30  O   UNL     3     -10.138   5.308  71.125  1.00  0.00    -0.197 OA 
HETATM   31  H   UNL     3     -10.747   5.749  71.705  1.00  0.00     0.000 HD 
BRANCH  29  32
HETATM   32  C   UNL     3     -10.710   6.951  69.518  1.00  0.00    -0.246 C  
HETATM   33  H   UNL     3     -10.139   8.192  68.098  1.00  0.00     0.000 HD 
HETATM   34  O   UNL     3     -10.093   7.251  68.223  1.00  0.00    -0.159 OA 
BRANCH  32  35
HETATM   35  C   UNL     3     -10.452   8.000  70.610  1.00  0.00    -0.210 C  
HETATM   36  H   UNL     3      -8.881   8.641  71.538  1.00  0.00     0.000 HD 
HETATM   37  O   UNL     3      -9.041   7.992  70.862  1.00  0.00    -0.144 OA 
BRANCH  35  38
HETATM   38  C   UNL     3     -10.986   9.405  70.352  1.00  0.00    -0.266 C  
HETATM   39  C   UNL     3     -12.058   9.785  71.407  1.00  0.00    -0.400 C  
HETATM   40  O   UNL     3     -11.578   9.498  69.041  1.00  0.00    -0.409 OA 
HETATM   41  O   UNL     3     -12.254   8.937  72.334  1.00  0.00    -0.358 OA 
HETATM   42  O   UNL     3     -12.762  10.779  71.079  1.00  0.00    -0.360 OA 
HETATM   43  H   UNL     3     -11.911  10.373  68.880  1.00  0.00     0.000 HD 
ENDBRANCH  35  38
ENDBRANCH  32  35
ENDBRANCH  29  32
ENDBRANCH  26  29
ENDBRANCH   6  26
TORSDOF 10
ENDMDL
MODEL      396
REMARK 921   NORMALIZED FREE ENERGY PREDICTED BY IDOCK:   -3.95 KCAL/MOL
REMARK 922        TOTAL FREE ENERGY PREDICTED BY IDOCK:   -8.77 KCAL/MOL
REMARK 923 INTER-LIGAND FREE ENERGY PREDICTED BY IDOCK:   -5.90 KCAL/MOL
REMARK 924 INTRA-LIGAND FREE ENERGY PREDICTED BY IDOCK:   -2.86 KCAL/MOL
REMARK 927      BINDING AFFINITY PREDICTED BY RF-SCORE:    0.00 PKD
ROOT
HETATM    1 CA   UNL     1      -8.177   9.318  71.336  1.00  0.00    -0.129 Ca 
HETATM    2  O   UNL     2      -8.148  13.008  66.942  1.00  0.00    -0.382 OA 
HETATM    3  O   UNL     3     -11.067   4.008  73.071  1.00  0.00    -0.165 OA 
HETATM    4  H   UNL     2      -8.652  13.731  67.296  1.00  0.00     0.000 HD 
HETATM    5  C   UNL     2      -8.115  11.955  67.904  1.00  0.00    -0.147 C  
HETATM    6  C   UNL     3     -11.138   5.422  73.238  1.00  0.00    -0.297 C  
HETATM    7  H   UNL     3     -11.061   3.578  73.918  1.00  0.00     0.000 HD 
ENDROOT
BRANCH   5   8
HETATM    8  C   UNL     2      -7.296  10.779  67.330  1.00  0.00    -0.097 C  
HETATM    9  O   UNL     2      -7.770   9.577  67.926  1.00  0.00    -0.087 OA 
HETATM   10  H   UNL     2      -7.266   8.853  67.572  1.00  0.00     0.000 HD 
BRANCH   8  11
HETATM   11  C   UNL     2      -7.479  10.662  65.808  1.00  0.00    -0.114 C  
HETATM   12  H   UNL     2      -6.529   9.851  64.234  1.00  0.00     0.000 HD 
HETATM   13  O   UNL     2      -6.415   9.924  65.174  1.00  0.00    -0.089 OA 
BRANCH  11  14
HETATM   14  C   UNL     2      -8.834  10.174  65.237  1.00  0.00    -0.178 C  
HETATM   15  O   UNL     2      -8.675   8.902  64.629  1.00  0.00    -0.274 OA 
HETATM   16  H   UNL     2      -9.507   8.604  64.278  1.00  0.00     0.000 HD 
BRANCH  14  17
HETATM   17  C   UNL     2      -9.683  11.178  64.435  1.00  0.00    -0.268 C  
HETATM   18  H   UNL     2     -10.585  11.156  62.702  1.00  0.00     0.000 HD 
HETATM   19  O   UNL     2     -10.061  10.536  63.197  1.00  0.00    -0.242 OA 
BRANCH  17  20
HETATM   20  C   UNL     2     -10.893  11.763  65.163  1.00  0.00    -0.297 C  
HETATM   21  O   UNL     2     -10.975  11.283  66.523  1.00  0.00    -0.282 OA 
HETATM   22  C   UNL     2     -10.734  13.310  65.166  1.00  0.00    -0.322 C  
HETATM   23  H   UNL     2     -11.727  11.647  66.975  1.00  0.00     0.000 HD 
HETATM   24  O   UNL     2     -10.287  13.785  64.088  1.00  0.00    -0.267 OA 
HETATM   25  O   UNL     2     -11.057  13.844  66.261  1.00  0.00    -0.300 OA 
ENDBRANCH  17  20
ENDBRANCH  14  17
ENDBRANCH  11  14
ENDBRANCH   8  11
ENDBRANCH   5   8
BRANCH   6  26
HETATM   26  C   UNL     3     -11.146   6.117  71.870  1.00  0.00    -0.274 C  
HETATM   27  H   UNL     3     -11.721   7.833  71.231  1.00  0.00     0.000 HD 
HETATM   28  O   UNL     3     -11.716   7.403  72.078  1.00  0.00    -0.274 OA 
BRANCH  26  29
HETATM   29  C   UNL     3      -9.735   6.168  71.227  1.00  0.00    -0.175 C  
HETATM   30  O   UNL     3      -8.758   5.509  72.146  1.00  0.00    -0.129 OA 
HETATM   31  H   UNL     3      -7.894   5.541  71.752  1.00  0.00     0.000 HD 
BRANCH  29  32
HETATM   32  C   UNL     3      -9.595   5.330  69.938  1.00  0.00    -0.177 C  
HETATM   33  H   UNL     3      -9.985   3.462  69.448  1.00  0.00     0.000 HD 
HETATM   34  O   UNL     3     -10.071   3.978  70.242  1.00  0.00    -0.120 OA 
BRANCH  32  35
HETATM   35  C   UNL     3      -8.401   5.388  68.972  1.00  0.00    -0.100 C  
HETATM   36  H   UNL     3      -6.542   4.862  69.072  1.00  0.00     0.000 HD 
HETATM   37  O   UNL     3      -7.281   4.827  69.669  1.00  0.00    -0.053 OA 
BRANCH  35  38
HETATM   38  C   UNL     3      -8.601   4.760  67.597  1.00  0.00    -0.103 C  
HETATM   39  C   UNL     3      -8.559   5.845  66.489  1.00  0.00    -0.123 C  
HETATM   40  O   UNL     3      -9.867   4.075  67.522  1.00  0.00    -0.163 OA 
HETATM   41  O   UNL     3      -8.291   7.026  66.875  1.00  0.00    -0.115 OA 
HETATM   42  O   UNL     3      -9.027   5.459  65.383  1.00  0.00    -0.160 OA 
HETATM   43  H   UNL     3      -9.991   3.684  66.665  1.00  0.00     0.000 HD 
ENDBRANCH  35  38
ENDBRANCH  32  35
ENDBRANCH  29  32
ENDBRANCH  26  29
ENDBRANCH   6  26
TORSDOF 10
ENDMDL
MODEL      397
REMARK 921   NORMALIZED FREE ENERGY PREDICTED BY IDOCK:   -3.94 KCAL/MOL
REMARK 922        TOTAL FREE ENERGY PREDICTED BY IDOCK:   -8.75 KCAL/MOL
REMARK 923 INTER-LIGAND FREE ENERGY PREDICTED BY IDOCK:   -9.27 KCAL/MOL
REMARK 924 INTRA-LIGAND FREE ENERGY PREDICTED BY IDOCK:    0.52 KCAL/MOL
REMARK 927      BINDING AFFINITY PREDICTED BY RF-SCORE:    0.00 PKD
ROOT
HETATM    1 CA   UNL     1      -6.922  15.091  66.671  1.00  0.00    -0.144 Ca 
HETATM    2  O   UNL     2     -10.030  10.477  65.267  1.00  0.00    -0.259 OA 
HETATM    3  O   UNL     3      -7.523  21.348  66.883  1.00  0.00    -0.788 OA 
HETATM    4  H   UNL     2      -9.672  10.257  64.415  1.00  0.00     0.000 HD 
HETATM    5  C   UNL     2      -9.399  11.666  65.739  1.00  0.00    -0.205 C  
HETATM    6  C   UNL     3      -7.034  20.303  66.046  1.00  0.00    -0.264 C  
HETATM    7  H   UNL     3      -6.850  22.006  67.013  1.00  0.00     0.000 HD 
ENDROOT
BRANCH   5   8
HETATM    8  C   UNL     2      -9.980  12.024  67.124  1.00  0.00    -0.195 C  
HETATM    9  O   UNL     2      -9.035  12.845  67.801  1.00  0.00    -0.172 OA 
HETATM   10  H   UNL     2      -9.392  13.065  68.654  1.00  0.00     0.000 HD 
BRANCH   8  11
HETATM   11  C   UNL     2     -11.291  12.816  66.992  1.00  0.00    -0.314 C  
HETATM   12  H   UNL     2     -13.167  12.526  66.333  1.00  0.00     0.000 HD 
HETATM   13  O   UNL     2     -12.357  12.036  66.414  1.00  0.00    -0.403 OA 
BRANCH  11  14
HETATM   14  C   UNL     2     -11.844  13.589  68.215  1.00  0.00    -0.366 C  
HETATM   15  O   UNL     2     -11.071  14.756  68.442  1.00  0.00    -0.245 OA 
HETATM   16  H   UNL     2     -11.411  15.230  69.193  1.00  0.00     0.000 HD 
BRANCH  14  17
HETATM   17  C   UNL     2     -12.195  12.783  69.480  1.00  0.00    -0.102 C  
HETATM   18  H   UNL     2     -11.380  11.292  70.443  1.00  0.00     0.000 HD 
HETATM   19  O   UNL     2     -11.163  11.789  69.662  1.00  0.00    -0.232 OA 
BRANCH  17  20
HETATM   20  C   UNL     2     -12.427  13.600  70.751  1.00  0.00    -0.359 C  
HETATM   21  O   UNL     2     -13.172  14.806  70.476  1.00  0.00    -0.579 OA 
HETATM   22  C   UNL     2     -13.227  12.708  71.741  1.00  0.00    -0.359 C  
HETATM   23  H   UNL     2     -13.316  15.314  71.266  1.00  0.00     0.000 HD 
HETATM   24  O   UNL     2     -12.865  11.501  71.758  1.00  0.00    -0.399 OA 
HETATM   25  O   UNL     2     -14.134  13.331  72.355  1.00  0.00    -0.618 OA 
ENDBRANCH  17  20
ENDBRANCH  14  17
ENDBRANCH  11  14
ENDBRANCH   8  11
ENDBRANCH   5   8
BRANCH   6  26
HETATM   26  C   UNL     3      -8.122  19.240  65.837  1.00  0.00    -0.104 C  
HETATM   27  H   UNL     3      -8.119  17.338  65.576  1.00  0.00     0.000 HD 
HETATM   28  O   UNL     3      -7.446  17.996  65.706  1.00  0.00    -0.514 OA 
BRANCH  26  29
HETATM   29  C   UNL     3      -9.178  19.247  66.973  1.00  0.00    -0.307 C  
HETATM   30  O   UNL     3     -10.172  18.158  66.720  1.00  0.00    -0.336 OA 
HETATM   31  H   UNL     3     -10.819  18.163  67.416  1.00  0.00     0.000 HD 
BRANCH  29  32
HETATM   32  C   UNL     3      -8.619  18.869  68.362  1.00  0.00    -0.346 C  
HETATM   33  H   UNL     3      -8.831  19.586  70.184  1.00  0.00     0.000 HD 
HETATM   34  O   UNL     3      -9.174  19.819  69.329  1.00  0.00    -0.194 OA 
BRANCH  32  35
HETATM   35  C   UNL     3      -7.172  18.437  68.644  1.00  0.00    -0.286 C  
HETATM   36  H   UNL     3      -5.874  18.842  70.019  1.00  0.00     0.000 HD 
HETATM   37  O   UNL     3      -6.769  19.109  69.844  1.00  0.00    -0.160 OA 
BRANCH  35  38
HETATM   38  C   UNL     3      -6.904  16.937  68.703  1.00  0.00    -0.183 C  
HETATM   39  C   UNL     3      -8.198  16.164  69.066  1.00  0.00    -0.244 C  
HETATM   40  O   UNL     3      -5.895  16.633  69.686  1.00  0.00    -0.174 OA 
HETATM   41  O   UNL     3      -9.255  16.862  69.169  1.00  0.00    -0.219 OA 
HETATM   42  O   UNL     3      -7.992  14.977  69.443  1.00  0.00    -0.195 OA 
HETATM   43  H   UNL     3      -5.728  15.698  69.723  1.00  0.00     0.000 HD 
ENDBRANCH  35  38
ENDBRANCH  32  35
ENDBRANCH  29  32
ENDBRANCH  26  29
ENDBRANCH   6  26
TORSDOF 10
ENDMDL
MODEL      398
REMARK 921   NORMALIZED FREE ENERGY PREDICTED BY IDOCK:   -3.94 KCAL/MOL
REMARK 922        TOTAL FREE ENERGY PREDICTED BY IDOCK:   -8.75 KCAL/MOL
REMARK 923 INTER-LIGAND FREE ENERGY PREDICTED BY IDOCK:   -6.69 KCAL/MOL
REMARK 924 INTRA-LIGAND FREE ENERGY PREDICTED BY IDOCK:   -2.05 KCAL/MOL
REMARK 927      BINDING AFFINITY PREDICTED BY RF-SCORE:    0.00 PKD
ROOT
HETATM    1 CA   UNL     1     -12.299  12.388  68.430  1.00  0.00    -0.299 Ca 
HETATM    2  O   UNL     2     -12.649  13.352  62.785  1.00  0.00    -0.692 OA 
HETATM    3  O   UNL     3      -9.063   8.795  72.451  1.00  0.00    -0.366 OA 
HETATM    4  H   UNL     2     -13.440  12.878  62.558  1.00  0.00     0.000 HD 
HETATM    5  C   UNL     2     -12.375  13.156  64.171  1.00  0.00    -0.348 C  
HETATM    6  C   UNL     3     -10.298   8.840  71.742  1.00  0.00    -0.343 C  
HETATM    7  H   UNL     3      -9.220   8.647  73.376  1.00  0.00     0.000 HD 
ENDROOT
BRANCH   5   8
HETATM    8  C   UNL     2     -11.089  13.926  64.539  1.00  0.00    -0.366 C  
HETATM    9  O   UNL     2     -11.375  14.752  65.663  1.00  0.00    -0.342 OA 
HETATM   10  H   UNL     2     -10.583  15.226  65.890  1.00  0.00     0.000 HD 
BRANCH   8  11
HETATM   11  C   UNL     2      -9.955  12.965  64.931  1.00  0.00    -0.130 C  
HETATM   12  H   UNL     2      -8.646  12.712  66.434  1.00  0.00     0.000 HD 
HETATM   13  O   UNL     2      -9.347  13.306  66.192  1.00  0.00    -0.190 OA 
BRANCH  11  14
HETATM   14  C   UNL     2     -10.201  11.436  64.893  1.00  0.00    -0.278 C  
HETATM   15  O   UNL     2     -10.291  10.926  66.213  1.00  0.00    -0.239 OA 
HETATM   16  H   UNL     2     -10.442   9.988  66.190  1.00  0.00     0.000 HD 
BRANCH  14  17
HETATM   17  C   UNL     2      -9.353  10.592  63.923  1.00  0.00    -0.275 C  
HETATM   18  H   UNL     2      -8.988  10.636  62.005  1.00  0.00     0.000 HD 
HETATM   19  O   UNL     2      -9.511  11.157  62.603  1.00  0.00    -0.322 OA 
BRANCH  17  20
HETATM   20  C   UNL     2      -7.881  10.422  64.296  1.00  0.00    -0.058 C  
HETATM   21  O   UNL     2      -7.589  11.011  65.582  1.00  0.00    -0.349 OA 
HETATM   22  C   UNL     2      -7.582   8.897  64.342  1.00  0.00    -0.114 C  
HETATM   23  H   UNL     2      -6.674  10.906  65.813  1.00  0.00     0.000 HD 
HETATM   24  O   UNL     2      -8.138   8.234  63.426  1.00  0.00    -0.159 OA 
HETATM   25  O   UNL     2      -6.847   8.560  65.308  1.00  0.00    -0.066 OA 
ENDBRANCH  17  20
ENDBRANCH  14  17
ENDBRANCH  11  14
ENDBRANCH   8  11
ENDBRANCH   5   8
BRANCH   6  26
HETATM   26  C   UNL     3     -10.042   9.078  70.247  1.00  0.00    -0.198 C  
HETATM   27  H   UNL     3      -9.783  10.634  69.154  1.00  0.00     0.000 HD 
HETATM   28  O   UNL     3      -9.941  10.486  70.078  1.00  0.00    -0.082 OA 
BRANCH  26  29
HETATM   29  C   UNL     3      -8.797   8.308  69.733  1.00  0.00    -0.142 C  
HETATM   30  O   UNL     3      -9.217   7.384  68.634  1.00  0.00    -0.144 OA 
HETATM   31  H   UNL     3      -8.454   6.913  68.320  1.00  0.00     0.000 HD 
BRANCH  29  32
HETATM   32  C   UNL     3      -7.745   9.197  69.035  1.00  0.00    -0.078 C  
HETATM   33  H   UNL     3      -6.088   8.853  68.027  1.00  0.00     0.000 HD 
HETATM   34  O   UNL     3      -6.736   8.306  68.457  1.00  0.00    -0.060 OA 
BRANCH  32  35
HETATM   35  C   UNL     3      -7.192  10.517  69.595  1.00  0.00    -0.148 C  
HETATM   36  H   UNL     3      -6.340  11.043  71.249  1.00  0.00     0.000 HD 
HETATM   37  O   UNL     3      -6.682  10.227  70.903  1.00  0.00    -0.340 OA 
BRANCH  35  38
HETATM   38  C   UNL     3      -6.179  11.257  68.729  1.00  0.00    -0.045 C  
HETATM   39  C   UNL     3      -6.740  12.633  68.286  1.00  0.00    -0.081 C  
HETATM   40  O   UNL     3      -5.852  10.493  67.551  1.00  0.00    -0.044 OA 
HETATM   41  O   UNL     3      -7.874  12.954  68.763  1.00  0.00    -0.076 OA 
HETATM   42  O   UNL     3      -6.108  13.154  67.326  1.00  0.00    -0.320 OA 
HETATM   43  H   UNL     3      -5.220  10.955  67.011  1.00  0.00     0.000 HD 
ENDBRANCH  35  38
ENDBRANCH  32  35
ENDBRANCH  29  32
ENDBRANCH  26  29
ENDBRANCH   6  26
TORSDOF 10
ENDMDL
MODEL      399
REMARK 921   NORMALIZED FREE ENERGY PREDICTED BY IDOCK:   -3.94 KCAL/MOL
REMARK 922        TOTAL FREE ENERGY PREDICTED BY IDOCK:   -8.74 KCAL/MOL
REMARK 923 INTER-LIGAND FREE ENERGY PREDICTED BY IDOCK:   -8.29 KCAL/MOL
REMARK 924 INTRA-LIGAND FREE ENERGY PREDICTED BY IDOCK:   -0.46 KCAL/MOL
REMARK 927      BINDING AFFINITY PREDICTED BY RF-SCORE:    0.00 PKD
ROOT
HETATM    1 CA   UNL     1     -11.457   7.481  66.339  1.00  0.00    -0.255 Ca 
HETATM    2  O   UNL     2      -9.986  11.729  62.773  1.00  0.00    -0.551 OA 
HETATM    3  O   UNL     3      -8.916   4.050  70.956  1.00  0.00    -0.097 OA 
HETATM    4  H   UNL     2      -9.844  11.257  61.961  1.00  0.00     0.000 HD 
HETATM    5  C   UNL     2     -10.301  10.792  63.802  1.00  0.00    -0.225 C  
HETATM    6  C   UNL     3      -9.173   4.017  69.555  1.00  0.00    -0.151 C  
HETATM    7  H   UNL     3      -9.256   3.266  71.371  1.00  0.00     0.000 HD 
ENDROOT
BRANCH   5   8
HETATM    8  C   UNL     2     -10.531  11.559  65.122  1.00  0.00    -0.286 C  
HETATM    9  O   UNL     2      -9.300  12.165  65.502  1.00  0.00    -0.416 OA 
HETATM   10  H   UNL     2      -9.442  12.637  66.314  1.00  0.00     0.000 HD 
BRANCH   8  11
HETATM   11  C   UNL     2     -11.576  12.672  64.946  1.00  0.00    -0.334 C  
HETATM   12  H   UNL     2     -13.342  12.950  64.028  1.00  0.00     0.000 HD 
HETATM   13  O   UNL     2     -12.696  12.261  64.137  1.00  0.00    -0.607 OA 
BRANCH  11  14
HETATM   14  C   UNL     2     -12.109  13.425  66.190  1.00  0.00    -0.429 C  
HETATM   15  O   UNL     2     -13.385  13.979  65.914  1.00  0.00    -0.609 OA 
HETATM   16  H   UNL     2     -13.711  14.441  66.677  1.00  0.00     0.000 HD 
BRANCH  14  17
HETATM   17  C   UNL     2     -11.140  14.361  66.938  1.00  0.00    -0.323 C  
HETATM   18  H   UNL     2      -9.945  15.816  66.421  1.00  0.00     0.000 HD 
HETATM   19  O   UNL     2     -10.542  15.239  65.959  1.00  0.00    -0.295 OA 
BRANCH  17  20
HETATM   20  C   UNL     2     -11.734  15.140  68.111  1.00  0.00    -0.302 C  
HETATM   21  O   UNL     2     -12.770  14.385  68.777  1.00  0.00    -0.406 OA 
HETATM   22  C   UNL     2     -10.579  15.432  69.111  1.00  0.00    -0.248 C  
HETATM   23  H   UNL     2     -13.139  14.869  69.506  1.00  0.00     0.000 HD 
HETATM   24  O   UNL     2      -9.489  15.743  68.563  1.00  0.00    -0.192 OA 
HETATM   25  O   UNL     2     -10.913  15.285  70.317  1.00  0.00    -0.268 OA 
ENDBRANCH  17  20
ENDBRANCH  14  17
ENDBRANCH  11  14
ENDBRANCH   8  11
ENDBRANCH   5   8
BRANCH   6  26
HETATM   26  C   UNL     3      -8.623   5.284  68.886  1.00  0.00    -0.091 C  
HETATM   27  H   UNL     3      -8.720   6.029  67.119  1.00  0.00     0.000 HD 
HETATM   28  O   UNL     3      -9.060   5.244  67.533  1.00  0.00    -0.109 OA 
BRANCH  26  29
HETATM   29  C   UNL     3      -9.051   6.576  69.631  1.00  0.00    -0.141 C  
HETATM   30  O   UNL     3      -8.474   7.760  68.922  1.00  0.00    -0.127 OA 
HETATM   31  H   UNL     3      -8.736   8.551  69.378  1.00  0.00     0.000 HD 
BRANCH  29  32
HETATM   32  C   UNL     3     -10.567   6.865  69.580  1.00  0.00    -0.236 C  
HETATM   33  H   UNL     3     -11.694   8.198  68.666  1.00  0.00     0.000 HD 
HETATM   34  O   UNL     3     -10.762   8.020  68.698  1.00  0.00    -0.148 OA 
BRANCH  32  35
HETATM   35  C   UNL     3     -11.518   6.810  70.785  1.00  0.00    -0.342 C  
HETATM   36  H   UNL     3     -12.221   5.396  71.901  1.00  0.00     0.000 HD 
HETATM   37  O   UNL     3     -11.633   5.430  71.155  1.00  0.00     0.268 OA 
BRANCH  35  38
HETATM   38  C   UNL     3     -11.170   7.700  71.973  1.00  0.00    -0.272 C  
HETATM   39  C   UNL     3     -10.424   6.888  73.064  1.00  0.00    -0.264 C  
HETATM   40  O   UNL     3     -12.359   8.269  72.557  1.00  0.00    -0.495 OA 
HETATM   41  O   UNL     3     -10.153   5.681  72.774  1.00  0.00    -0.174 OA 
HETATM   42  O   UNL     3     -10.389   7.461  74.189  1.00  0.00    -0.162 OA 
HETATM   43  H   UNL     3     -12.143   8.823  73.297  1.00  0.00     0.000 HD 
ENDBRANCH  35  38
ENDBRANCH  32  35
ENDBRANCH  29  32
ENDBRANCH  26  29
ENDBRANCH   6  26
TORSDOF 10
ENDMDL
MODEL      400
REMARK 921   NORMALIZED FREE ENERGY PREDICTED BY IDOCK:   -3.94 KCAL/MOL
REMARK 922        TOTAL FREE ENERGY PREDICTED BY IDOCK:   -8.74 KCAL/MOL
REMARK 923 INTER-LIGAND FREE ENERGY PREDICTED BY IDOCK:   -6.72 KCAL/MOL
REMARK 924 INTRA-LIGAND FREE ENERGY PREDICTED BY IDOCK:   -2.02 KCAL/MOL
REMARK 927      BINDING AFFINITY PREDICTED BY RF-SCORE:    0.00 PKD
ROOT
HETATM    1 CA   UNL     1      -6.399  13.238  68.105  1.00  0.00    -0.065 Ca 
HETATM    2  O   UNL     2     -10.133  17.429  69.294  1.00  0.00    -0.264 OA 
HETATM    3  O   UNL     3      -6.419   7.264  66.139  1.00  0.00    -0.043 OA 
HETATM    4  H   UNL     2     -10.143  17.413  70.244  1.00  0.00     0.000 HD 
HETATM    5  C   UNL     2      -9.286  16.381  68.823  1.00  0.00    -0.245 C  
HETATM    6  C   UNL     3      -6.362   8.045  67.329  1.00  0.00    -0.056 C  
HETATM    7  H   UNL     3      -5.702   6.642  66.120  1.00  0.00     0.000 HD 
ENDROOT
BRANCH   5   8
HETATM    8  C   UNL     2      -9.270  16.407  67.280  1.00  0.00    -0.215 C  
HETATM    9  O   UNL     2      -8.154  15.642  66.837  1.00  0.00    -0.218 OA 
HETATM   10  H   UNL     2      -8.144  15.658  65.887  1.00  0.00     0.000 HD 
BRANCH   8  11
HETATM   11  C   UNL     2     -10.543  15.774  66.697  1.00  0.00    -0.307 C  
HETATM   12  H   UNL     2     -12.529  16.077  66.736  1.00  0.00     0.000 HD 
HETATM   13  O   UNL     2     -11.742  16.469  67.096  1.00  0.00     0.541 OA 
BRANCH  11  14
HETATM   14  C   UNL     2     -10.622  15.472  65.181  1.00  0.00    -0.431 C  
HETATM   15  O   UNL     2     -11.640  16.257  64.581  1.00  0.00    -0.276 OA 
HETATM   16  H   UNL     2     -11.688  16.072  63.650  1.00  0.00     0.000 HD 
BRANCH  14  17
HETATM   17  C   UNL     2     -10.589  13.998  64.735  1.00  0.00    -0.421 C  
HETATM   18  H   UNL     2      -9.428  12.469  65.095  1.00  0.00     0.000 HD 
HETATM   19  O   UNL     2      -9.449  13.378  65.370  1.00  0.00     0.044 OA 
BRANCH  17  20
HETATM   20  C   UNL     2     -11.871  13.199  64.967  1.00  0.00    -0.354 C  
HETATM   21  O   UNL     2     -13.028  14.062  65.029  1.00  0.00    -0.728 OA 
HETATM   22  C   UNL     2     -12.025  12.207  63.780  1.00  0.00    -0.513 C  
HETATM   23  H   UNL     2     -13.825  13.566  65.174  1.00  0.00     0.000 HD 
HETATM   24  O   UNL     2     -10.945  11.677  63.406  1.00  0.00    -0.397 OA 
HETATM   25  O   UNL     2     -13.209  12.109  63.360  1.00  0.00    -0.689 OA 
ENDBRANCH  17  20
ENDBRANCH  14  17
ENDBRANCH  11  14
ENDBRANCH   8  11
ENDBRANCH   5   8
BRANCH   6  26
HETATM   26  C   UNL     3      -7.522   9.051  67.358  1.00  0.00    -0.085 C  
HETATM   27  H   UNL     3      -8.102  10.476  66.212  1.00  0.00     0.000 HD 
HETATM   28  O   UNL     3      -7.384   9.854  66.193  1.00  0.00    -0.098 OA 
BRANCH  26  29
HETATM   29  C   UNL     3      -8.903   8.353  67.463  1.00  0.00    -0.135 C  
HETATM   30  O   UNL     3      -8.720   6.881  67.270  1.00  0.00    -0.119 OA 
HETATM   31  H   UNL     3      -9.566   6.454  67.333  1.00  0.00     0.000 HD 
BRANCH  29  32
HETATM   32  C   UNL     3      -9.547   8.425  68.864  1.00  0.00    -0.153 C  
HETATM   33  H   UNL     3      -9.041   7.786  70.658  1.00  0.00     0.000 HD 
HETATM   34  O   UNL     3      -8.645   7.740  69.795  1.00  0.00    -0.132 OA 
BRANCH  32  35
HETATM   35  C   UNL     3     -11.042   8.234  69.161  1.00  0.00     0.214 C  
HETATM   36  H   UNL     3     -12.195   6.701  69.409  1.00  0.00     0.000 HD 
HETATM   37  O   UNL     3     -11.271   6.820  69.225  1.00  0.00    -0.252 OA 
BRANCH  35  38
HETATM   38  C   UNL     3     -11.598   8.965  70.377  1.00  0.00    -0.101 C  
HETATM   39  C   UNL     3     -12.184  10.342  69.967  1.00  0.00    -0.189 C  
HETATM   40  O   UNL     3     -10.571   9.179  71.365  1.00  0.00    -0.289 OA 
HETATM   41  O   UNL     3     -12.186  10.599  68.722  1.00  0.00    -0.381 OA 
HETATM   42  O   UNL     3     -12.366  11.126  70.939  1.00  0.00    -0.360 OA 
HETATM   43  H   UNL     3     -10.917   9.635  72.123  1.00  0.00     0.000 HD 
ENDBRANCH  35  38
ENDBRANCH  32  35
ENDBRANCH  29  32
ENDBRANCH  26  29
ENDBRANCH   6  26
TORSDOF 10
ENDMDL
MODEL      401
REMARK 921   NORMALIZED FREE ENERGY PREDICTED BY IDOCK:   -3.94 KCAL/MOL
REMARK 922        TOTAL FREE ENERGY PREDICTED BY IDOCK:   -8.74 KCAL/MOL
REMARK 923 INTER-LIGAND FREE ENERGY PREDICTED BY IDOCK:   -8.14 KCAL/MOL
REMARK 924 INTRA-LIGAND FREE ENERGY PREDICTED BY IDOCK:   -0.60 KCAL/MOL
REMARK 927      BINDING AFFINITY PREDICTED BY RF-SCORE:    0.00 PKD
ROOT
HETATM    1 CA   UNL     1     -10.579  14.994  65.435  1.00  0.00    -0.258 Ca 
HETATM    2  O   UNL     2     -11.915  10.169  68.238  1.00  0.00    -0.601 OA 
HETATM    3  O   UNL     3      -8.469  20.787  66.675  1.00  0.00    -0.539 OA 
HETATM    4  H   UNL     2     -12.864  10.207  68.244  1.00  0.00     0.000 HD 
HETATM    5  C   UNL     2     -11.409  11.353  67.623  1.00  0.00    -0.290 C  
HETATM    6  C   UNL     3      -9.677  20.065  66.453  1.00  0.00    -0.441 C  
HETATM    7  H   UNL     3      -8.426  21.541  66.098  1.00  0.00     0.000 HD 
ENDROOT
BRANCH   5   8
HETATM    8  C   UNL     2      -9.867  11.290  67.612  1.00  0.00    -0.175 C  
HETATM    9  O   UNL     2      -9.382  12.171  68.620  1.00  0.00    -0.351 OA 
HETATM   10  H   UNL     2      -8.432  12.132  68.613  1.00  0.00     0.000 HD 
BRANCH   8  11
HETATM   11  C   UNL     2      -9.363   9.874  67.934  1.00  0.00    -0.137 C  
HETATM   12  H   UNL     2      -7.630   8.856  67.941  1.00  0.00     0.000 HD 
HETATM   13  O   UNL     2      -7.942   9.732  67.742  1.00  0.00    -0.101 OA 
BRANCH  11  14
HETATM   14  C   UNL     2      -9.754   9.210  69.278  1.00  0.00    -0.164 C  
HETATM   15  O   UNL     2      -9.447  10.078  70.356  1.00  0.00    -0.370 OA 
HETATM   16  H   UNL     2      -9.688   9.671  71.181  1.00  0.00     0.000 HD 
BRANCH  14  17
HETATM   17  C   UNL     2      -9.363   7.736  69.496  1.00  0.00    -0.149 C  
HETATM   18  H   UNL     2      -9.250   6.548  71.043  1.00  0.00     0.000 HD 
HETATM   19  O   UNL     2      -9.492   7.458  70.908  1.00  0.00    -0.165 OA 
BRANCH  17  20
HETATM   20  C   UNL     2     -10.114   6.711  68.646  1.00  0.00    -0.161 C  
HETATM   21  O   UNL     2     -11.279   7.293  68.023  1.00  0.00    -0.485 OA 
HETATM   22  C   UNL     2      -9.134   6.207  67.549  1.00  0.00    -0.109 C  
HETATM   23  H   UNL     2     -11.746   6.656  67.494  1.00  0.00     0.000 HD 
HETATM   24  O   UNL     2      -7.954   6.030  67.953  1.00  0.00    -0.104 OA 
HETATM   25  O   UNL     2      -9.673   6.077  66.418  1.00  0.00    -0.158 OA 
ENDBRANCH  17  20
ENDBRANCH  14  17
ENDBRANCH  11  14
ENDBRANCH   8  11
ENDBRANCH   5   8
BRANCH   6  26
HETATM   26  C   UNL     3      -9.744  18.847  67.385  1.00  0.00    -0.312 C  
HETATM   27  H   UNL     3     -10.056  18.600  69.263  1.00  0.00     0.000 HD 
HETATM   28  O   UNL     3     -10.013  19.354  68.686  1.00  0.00    -0.400 OA 
BRANCH  26  29
HETATM   29  C   UNL     3     -10.784  17.798  66.909  1.00  0.00    -0.160 C  
HETATM   30  O   UNL     3     -10.629  17.595  65.435  1.00  0.00    -0.657 OA 
HETATM   31  H   UNL     3     -11.266  16.954  65.144  1.00  0.00     0.000 HD 
BRANCH  29  32
HETATM   32  C   UNL     3     -10.552  16.377  67.465  1.00  0.00    -0.309 C  
HETATM   33  H   UNL     3     -11.682  14.781  67.708  1.00  0.00     0.000 HD 
HETATM   34  O   UNL     3     -11.824  15.656  67.366  1.00  0.00    -0.010 OA 
BRANCH  32  35
HETATM   35  C   UNL     3      -9.719  16.041  68.712  1.00  0.00    -0.226 C  
HETATM   36  H   UNL     3      -9.704  14.589  69.989  1.00  0.00     0.000 HD 
HETATM   37  O   UNL     3     -10.220  14.797  69.218  1.00  0.00    -0.228 OA 
BRANCH  35  38
HETATM   38  C   UNL     3      -8.204  16.029  68.541  1.00  0.00    -0.181 C  
HETATM   39  C   UNL     3      -7.795  15.114  67.357  1.00  0.00    -0.198 C  
HETATM   40  O   UNL     3      -7.555  15.552  69.736  1.00  0.00    -0.182 OA 
HETATM   41  O   UNL     3      -8.749  14.607  66.688  1.00  0.00    -0.237 OA 
HETATM   42  O   UNL     3      -6.572  14.803  67.354  1.00  0.00    -0.280 OA 
HETATM   43  H   UNL     3      -6.610  15.544  69.629  1.00  0.00     0.000 HD 
ENDBRANCH  35  38
ENDBRANCH  32  35
ENDBRANCH  29  32
ENDBRANCH  26  29
ENDBRANCH   6  26
TORSDOF 10
ENDMDL
MODEL      402
REMARK 921   NORMALIZED FREE ENERGY PREDICTED BY IDOCK:   -3.92 KCAL/MOL
REMARK 922        TOTAL FREE ENERGY PREDICTED BY IDOCK:   -8.71 KCAL/MOL
REMARK 923 INTER-LIGAND FREE ENERGY PREDICTED BY IDOCK:   -6.20 KCAL/MOL
REMARK 924 INTRA-LIGAND FREE ENERGY PREDICTED BY IDOCK:   -2.52 KCAL/MOL
REMARK 927      BINDING AFFINITY PREDICTED BY RF-SCORE:    0.00 PKD
ROOT
HETATM    1 CA   UNL     1     -11.246   9.899  64.469  1.00  0.00     0.081 Ca 
HETATM    2  O   UNL     2      -9.771  15.414  65.048  1.00  0.00    -0.224 OA 
HETATM    3  O   UNL     3      -9.798   4.302  66.943  1.00  0.00    -0.210 OA 
HETATM    4  H   UNL     2      -9.208  15.542  64.294  1.00  0.00     0.000 HD 
HETATM    5  C   UNL     2     -10.180  14.048  65.092  1.00  0.00    -0.371 C  
HETATM    6  C   UNL     3      -9.486   5.146  65.839  1.00  0.00    -0.156 C  
HETATM    7  H   UNL     3     -10.039   3.436  66.636  1.00  0.00     0.000 HD 
ENDROOT
BRANCH   5   8
HETATM    8  C   UNL     2     -11.094  13.839  66.318  1.00  0.00    -0.302 C  
HETATM    9  O   UNL     2     -11.761  12.591  66.165  1.00  0.00    -0.377 OA 
HETATM   10  H   UNL     2     -12.324  12.462  66.920  1.00  0.00     0.000 HD 
BRANCH   8  11
HETATM   11  C   UNL     2     -10.278  13.787  67.620  1.00  0.00    -0.242 C  
HETATM   12  H   UNL     2     -10.606  13.732  69.602  1.00  0.00     0.000 HD 
HETATM   13  O   UNL     2     -11.110  13.764  68.797  1.00  0.00    -0.246 OA 
BRANCH  11  14
HETATM   14  C   UNL     2      -9.159  12.729  67.780  1.00  0.00    -0.197 C  
HETATM   15  O   UNL     2      -9.380  11.960  68.951  1.00  0.00    -0.398 OA 
HETATM   16  H   UNL     2      -8.692  11.311  69.048  1.00  0.00     0.000 HD 
BRANCH  14  17
HETATM   17  C   UNL     2      -7.702  13.181  67.562  1.00  0.00    -0.166 C  
HETATM   18  H   UNL     2      -6.779  14.901  67.506  1.00  0.00     0.000 HD 
HETATM   19  O   UNL     2      -7.678  14.623  67.641  1.00  0.00    -0.145 OA 
BRANCH  17  20
HETATM   20  C   UNL     2      -6.660  12.545  68.482  1.00  0.00    -0.077 C  
HETATM   21  O   UNL     2      -6.916  12.861  69.869  1.00  0.00    -0.325 OA 
HETATM   22  C   UNL     2      -6.731  11.006  68.277  1.00  0.00    -0.059 C  
HETATM   23  H   UNL     2      -6.268  12.466  70.441  1.00  0.00     0.000 HD 
HETATM   24  O   UNL     2      -6.894  10.652  67.079  1.00  0.00    -0.082 OA 
HETATM   25  O   UNL     2      -6.638  10.353  69.351  1.00  0.00    -0.049 OA 
ENDBRANCH  17  20
ENDBRANCH  14  17
ENDBRANCH  11  14
ENDBRANCH   8  11
ENDBRANCH   5   8
BRANCH   6  26
HETATM   26  C   UNL     3      -9.097   6.546  66.336  1.00  0.00    -0.155 C  
HETATM   27  H   UNL     3      -8.102   8.012  65.598  1.00  0.00     0.000 HD 
HETATM   28  O   UNL     3      -8.342   7.146  65.291  1.00  0.00    -0.136 OA 
BRANCH  26  29
HETATM   29  C   UNL     3     -10.332   7.384  66.759  1.00  0.00    -0.251 C  
HETATM   30  O   UNL     3     -11.555   6.529  66.666  1.00  0.00    -0.678 OA 
HETATM   31  H   UNL     3     -12.311   7.043  66.925  1.00  0.00     0.000 HD 
BRANCH  29  32
HETATM   32  C   UNL     3     -10.334   7.805  68.245  1.00  0.00    -0.198 C  
HETATM   33  H   UNL     3      -9.688   9.375  69.243  1.00  0.00     0.000 HD 
HETATM   34  O   UNL     3      -9.687   9.116  68.329  1.00  0.00    -0.149 OA 
BRANCH  32  35
HETATM   35  C   UNL     3     -10.045   6.868  69.428  1.00  0.00    -0.167 C  
HETATM   36  H   UNL     3     -10.776   5.188  70.045  1.00  0.00     0.000 HD 
HETATM   37  O   UNL     3     -10.955   5.767  69.314  1.00  0.00    -0.330 OA 
BRANCH  35  38
HETATM   38  C   UNL     3      -8.601   6.410  69.602  1.00  0.00    -0.134 C  
HETATM   39  C   UNL     3      -8.276   6.184  71.101  1.00  0.00    -0.123 C  
HETATM   40  O   UNL     3      -7.683   7.388  69.075  1.00  0.00    -0.112 OA 
HETATM   41  O   UNL     3      -9.245   6.326  71.911  1.00  0.00    -0.147 OA 
HETATM   42  O   UNL     3      -7.040   6.117  71.348  1.00  0.00    -0.074 OA 
HETATM   43  H   UNL     3      -6.783   7.103  69.183  1.00  0.00     0.000 HD 
ENDBRANCH  35  38
ENDBRANCH  32  35
ENDBRANCH  29  32
ENDBRANCH  26  29
ENDBRANCH   6  26
TORSDOF 10
ENDMDL
MODEL      403
REMARK 921   NORMALIZED FREE ENERGY PREDICTED BY IDOCK:   -3.90 KCAL/MOL
REMARK 922        TOTAL FREE ENERGY PREDICTED BY IDOCK:   -8.68 KCAL/MOL
REMARK 923 INTER-LIGAND FREE ENERGY PREDICTED BY IDOCK:   -7.42 KCAL/MOL
REMARK 924 INTRA-LIGAND FREE ENERGY PREDICTED BY IDOCK:   -1.26 KCAL/MOL
REMARK 927      BINDING AFFINITY PREDICTED BY RF-SCORE:    0.00 PKD
ROOT
HETATM    1 CA   UNL     1      -9.174  12.456  69.441  1.00  0.00    -0.372 Ca 
HETATM    2  O   UNL     2     -14.029  15.183  70.828  1.00  0.00    -0.699 OA 
HETATM    3  O   UNL     3      -6.453   9.850  64.405  1.00  0.00    -0.111 OA 
HETATM    4  H   UNL     2     -14.513  14.497  71.273  1.00  0.00     0.000 HD 
HETATM    5  C   UNL     2     -12.798  14.642  70.350  1.00  0.00    -0.270 C  
HETATM    6  C   UNL     3      -7.238   9.515  65.547  1.00  0.00    -0.091 C  
HETATM    7  H   UNL     3      -5.681   9.299  64.365  1.00  0.00     0.000 HD 
ENDROOT
BRANCH   5   8
HETATM    8  C   UNL     2     -12.010  15.756  69.627  1.00  0.00    -0.317 C  
HETATM    9  O   UNL     2     -11.211  16.430  70.593  1.00  0.00    -0.421 OA 
HETATM   10  H   UNL     2     -10.726  17.116  70.149  1.00  0.00     0.000 HD 
BRANCH   8  11
HETATM   11  C   UNL     2     -11.074  15.173  68.556  1.00  0.00    -0.276 C  
HETATM   12  H   UNL     2     -10.309  13.390  68.033  1.00  0.00     0.000 HD 
HETATM   13  O   UNL     2     -10.888  13.751  68.695  1.00  0.00    -0.249 OA 
BRANCH  11  14
HETATM   14  C   UNL     2     -11.322  15.501  67.063  1.00  0.00    -0.106 C  
HETATM   15  O   UNL     2     -11.860  14.369  66.400  1.00  0.00    -0.384 OA 
HETATM   16  H   UNL     2     -12.012  14.570  65.484  1.00  0.00     0.000 HD 
BRANCH  14  17
HETATM   17  C   UNL     2     -10.214  16.243  66.292  1.00  0.00    -0.327 C  
HETATM   18  H   UNL     2      -9.533  16.199  64.462  1.00  0.00     0.000 HD 
HETATM   19  O   UNL     2     -10.218  15.742  64.937  1.00  0.00    -0.449 OA 
BRANCH  17  20
HETATM   20  C   UNL     2     -10.277  17.769  66.333  1.00  0.00    -0.365 C  
HETATM   21  O   UNL     2     -11.066  18.237  67.448  1.00  0.00    -0.241 OA 
HETATM   22  C   UNL     2      -8.820  18.294  66.470  1.00  0.00    -0.271 C  
HETATM   23  H   UNL     2     -11.105  19.186  67.473  1.00  0.00     0.000 HD 
HETATM   24  O   UNL     2      -7.975  17.661  65.782  1.00  0.00    -0.549 OA 
HETATM   25  O   UNL     2      -8.709  19.259  67.272  1.00  0.00    -0.284 OA 
ENDBRANCH  17  20
ENDBRANCH  14  17
ENDBRANCH  11  14
ENDBRANCH   8  11
ENDBRANCH   5   8
BRANCH   6  26
HETATM   26  C   UNL     3      -8.487  10.405  65.611  1.00  0.00    -0.165 C  
HETATM   27  H   UNL     3     -10.378  10.085  65.544  1.00  0.00     0.000 HD 
HETATM   28  O   UNL     3      -9.605   9.534  65.504  1.00  0.00    -0.260 OA 
BRANCH  26  29
HETATM   29  C   UNL     3      -8.516  11.287  66.887  1.00  0.00    -0.152 C  
HETATM   30  O   UNL     3      -8.188  10.437  68.073  1.00  0.00    -0.112 OA 
HETATM   31  H   UNL     3      -8.207  10.977  68.854  1.00  0.00     0.000 HD 
BRANCH  29  32
HETATM   32  C   UNL     3      -7.413  12.366  66.939  1.00  0.00     0.057 C  
HETATM   33  H   UNL     3      -5.576  12.506  66.241  1.00  0.00     0.000 HD 
HETATM   34  O   UNL     3      -6.255  11.842  66.210  1.00  0.00    -0.054 OA 
BRANCH  32  35
HETATM   35  C   UNL     3      -7.066  13.217  68.170  1.00  0.00    -0.109 C  
HETATM   36  H   UNL     3      -5.827  13.036  69.644  1.00  0.00     0.000 HD 
HETATM   37  O   UNL     3      -6.042  12.510  68.882  1.00  0.00    -0.066 OA 
BRANCH  35  38
HETATM   38  C   UNL     3      -6.693  14.673  67.914  1.00  0.00    -0.162 C  
HETATM   39  C   UNL     3      -7.080  15.557  69.129  1.00  0.00    -0.164 C  
HETATM   40  O   UNL     3      -7.366  15.179  66.745  1.00  0.00    -0.285 OA 
HETATM   41  O   UNL     3      -7.548  14.944  70.139  1.00  0.00     0.026 OA 
HETATM   42  O   UNL     3      -7.099  16.793  68.871  1.00  0.00    -0.190 OA 
HETATM   43  H   UNL     3      -7.134  16.087  66.585  1.00  0.00     0.000 HD 
ENDBRANCH  35  38
ENDBRANCH  32  35
ENDBRANCH  29  32
ENDBRANCH  26  29
ENDBRANCH   6  26
TORSDOF 10
ENDMDL
MODEL      404
REMARK 921   NORMALIZED FREE ENERGY PREDICTED BY IDOCK:   -3.90 KCAL/MOL
REMARK 922        TOTAL FREE ENERGY PREDICTED BY IDOCK:   -8.68 KCAL/MOL
REMARK 923 INTER-LIGAND FREE ENERGY PREDICTED BY IDOCK:   -7.74 KCAL/MOL
REMARK 924 INTRA-LIGAND FREE ENERGY PREDICTED BY IDOCK:   -0.93 KCAL/MOL
REMARK 927      BINDING AFFINITY PREDICTED BY RF-SCORE:    0.00 PKD
ROOT
HETATM    1 CA   UNL     1     -12.608  12.723  68.737  1.00  0.00    -0.252 Ca 
HETATM    2  O   UNL     2     -12.498  13.859  63.114  1.00  0.00    -1.121 OA 
HETATM    3  O   UNL     3     -10.191   8.577  72.802  1.00  0.00    -0.256 OA 
HETATM    4  H   UNL     2     -13.340  13.520  62.834  1.00  0.00     0.000 HD 
HETATM    5  C   UNL     2     -12.333  13.592  64.506  1.00  0.00    -0.355 C  
HETATM    6  C   UNL     3     -11.364   8.831  72.034  1.00  0.00    -0.371 C  
HETATM    7  H   UNL     3     -10.419   8.435  73.713  1.00  0.00     0.000 HD 
ENDROOT
BRANCH   5   8
HETATM    8  C   UNL     2     -10.965  14.142  64.962  1.00  0.00    -0.384 C  
HETATM    9  O   UNL     2     -11.199  15.189  65.898  1.00  0.00    -0.338 OA 
HETATM   10  H   UNL     2     -10.357  15.527  66.178  1.00  0.00     0.000 HD 
BRANCH   8  11
HETATM   11  C   UNL     2     -10.131  13.056  65.660  1.00  0.00    -0.268 C  
HETATM   12  H   UNL     2      -8.776  12.914  67.138  1.00  0.00     0.000 HD 
HETATM   13  O   UNL     2      -9.292  13.585  66.706  1.00  0.00    -0.247 OA 
BRANCH  11  14
HETATM   14  C   UNL     2     -10.826  11.773  66.180  1.00  0.00    -0.291 C  
HETATM   15  O   UNL     2     -10.825  11.760  67.598  1.00  0.00    -0.199 OA 
HETATM   16  H   UNL     2     -11.251  10.973  67.917  1.00  0.00     0.000 HD 
BRANCH  14  17
HETATM   17  C   UNL     2     -10.460  10.433  65.515  1.00  0.00    -0.122 C  
HETATM   18  H   UNL     2      -9.441   9.904  63.935  1.00  0.00     0.000 HD 
HETATM   19  O   UNL     2      -9.667  10.731  64.345  1.00  0.00    -0.246 OA 
BRANCH  17  20
HETATM   20  C   UNL     2      -9.777   9.404  66.415  1.00  0.00    -0.250 C  
HETATM   21  O   UNL     2     -10.203   8.060  66.100  1.00  0.00    -0.454 OA 
HETATM   22  C   UNL     2      -8.244   9.530  66.191  1.00  0.00    -0.115 C  
HETATM   23  H   UNL     2      -9.778   7.420  66.660  1.00  0.00     0.000 HD 
HETATM   24  O   UNL     2      -7.835  10.716  66.073  1.00  0.00    -0.149 OA 
HETATM   25  O   UNL     2      -7.653   8.418  66.137  1.00  0.00    -0.086 OA 
ENDBRANCH  17  20
ENDBRANCH  14  17
ENDBRANCH  11  14
ENDBRANCH   8  11
ENDBRANCH   5   8
BRANCH   6  26
HETATM   26  C   UNL     3     -10.994   9.061  70.562  1.00  0.00    -0.252 C  
HETATM   27  H   UNL     3     -10.894  10.599  69.419  1.00  0.00     0.000 HD 
HETATM   28  O   UNL     3     -11.124  10.457  70.330  1.00  0.00    -0.288 OA 
BRANCH  26  29
HETATM   29  C   UNL     3      -9.585   8.510  70.216  1.00  0.00    -0.167 C  
HETATM   30  O   UNL     3      -8.551   9.409  70.816  1.00  0.00    -0.209 OA 
HETATM   31  H   UNL     3      -7.689   9.071  70.604  1.00  0.00     0.000 HD 
BRANCH  29  32
HETATM   32  C   UNL     3      -9.259   7.149  70.868  1.00  0.00    -0.152 C  
HETATM   33  H   UNL     3      -7.728   6.424  71.873  1.00  0.00     0.000 HD 
HETATM   34  O   UNL     3      -7.929   7.261  71.472  1.00  0.00    -0.098 OA 
BRANCH  32  35
HETATM   35  C   UNL     3      -9.570   5.777  70.250  1.00  0.00    -0.164 C  
HETATM   36  H   UNL     3     -10.960   4.455  70.499  1.00  0.00     0.000 HD 
HETATM   37  O   UNL     3     -10.767   5.303  70.881  1.00  0.00    -0.212 OA 
BRANCH  35  38
HETATM   38  C   UNL     3      -9.654   5.713  68.729  1.00  0.00    -0.131 C  
HETATM   39  C   UNL     3      -9.572   4.244  68.238  1.00  0.00    -0.135 C  
HETATM   40  O   UNL     3      -8.581   6.460  68.122  1.00  0.00    -0.118 OA 
HETATM   41  O   UNL     3      -9.537   3.353  69.145  1.00  0.00    -0.167 OA 
HETATM   42  O   UNL     3      -9.315   4.133  67.007  1.00  0.00    -0.148 OA 
HETATM   43  H   UNL     3      -8.633   6.420  67.174  1.00  0.00     0.000 HD 
ENDBRANCH  35  38
ENDBRANCH  32  35
ENDBRANCH  29  32
ENDBRANCH  26  29
ENDBRANCH   6  26
TORSDOF 10
ENDMDL
MODEL      405
REMARK 921   NORMALIZED FREE ENERGY PREDICTED BY IDOCK:   -3.89 KCAL/MOL
REMARK 922        TOTAL FREE ENERGY PREDICTED BY IDOCK:   -8.67 KCAL/MOL
REMARK 923 INTER-LIGAND FREE ENERGY PREDICTED BY IDOCK:   -7.24 KCAL/MOL
REMARK 924 INTRA-LIGAND FREE ENERGY PREDICTED BY IDOCK:   -1.43 KCAL/MOL
REMARK 927      BINDING AFFINITY PREDICTED BY RF-SCORE:    0.00 PKD
ROOT
HETATM    1 CA   UNL     1     -10.770  12.832  66.571  1.00  0.00    -0.242 Ca 
HETATM    2  O   UNL     2      -8.785   7.992  64.216  1.00  0.00    -0.379 OA 
HETATM    3  O   UNL     3     -12.493  15.022  72.209  1.00  0.00    -0.321 OA 
HETATM    4  H   UNL     2      -9.565   7.648  63.797  1.00  0.00     0.000 HD 
HETATM    5  C   UNL     2      -9.126   9.185  64.919  1.00  0.00    -0.132 C  
HETATM    6  C   UNL     3     -13.036  14.452  71.022  1.00  0.00    -0.349 C  
HETATM    7  H   UNL     3     -12.943  15.831  72.421  1.00  0.00     0.000 HD 
ENDROOT
BRANCH   5   8
HETATM    8  C   UNL     2      -7.858   9.743  65.600  1.00  0.00    -0.114 C  
HETATM    9  O   UNL     2      -7.585  11.025  65.043  1.00  0.00    -0.342 OA 
HETATM   10  H   UNL     2      -6.804  11.368  65.462  1.00  0.00     0.000 HD 
BRANCH   8  11
HETATM   11  C   UNL     2      -8.067   9.915  67.113  1.00  0.00    -0.117 C  
HETATM   12  H   UNL     2      -9.138  11.066  68.365  1.00  0.00     0.000 HD 
HETATM   13  O   UNL     2      -9.009  10.959  67.429  1.00  0.00    -0.136 OA 
BRANCH  11  14
HETATM   14  C   UNL     2      -8.382   8.677  67.987  1.00  0.00    -0.123 C  
HETATM   15  O   UNL     2      -7.840   7.510  67.390  1.00  0.00    -0.114 OA 
HETATM   16  H   UNL     2      -8.034   6.750  67.927  1.00  0.00     0.000 HD 
BRANCH  14  17
HETATM   17  C   UNL     2      -9.813   8.524  68.535  1.00  0.00    -0.173 C  
HETATM   18  H   UNL     2     -11.433   7.608  67.940  1.00  0.00     0.000 HD 
HETATM   19  O   UNL     2     -10.550   7.702  67.602  1.00  0.00    -0.241 OA 
BRANCH  17  20
HETATM   20  C   UNL     2      -9.930   8.000  69.966  1.00  0.00    -0.191 C  
HETATM   21  O   UNL     2      -8.785   7.200  70.332  1.00  0.00    -0.147 OA 
HETATM   22  C   UNL     2     -10.027   9.233  70.909  1.00  0.00    -0.297 C  
HETATM   23  H   UNL     2      -8.857   6.875  71.221  1.00  0.00     0.000 HD 
HETATM   24  O   UNL     2     -10.740  10.171  70.461  1.00  0.00    -0.298 OA 
HETATM   25  O   UNL     2      -9.352   9.108  71.966  1.00  0.00    -0.337 OA 
ENDBRANCH  17  20
ENDBRANCH  14  17
ENDBRANCH  11  14
ENDBRANCH   8  11
ENDBRANCH   5   8
BRANCH   6  26
HETATM   26  C   UNL     3     -12.307  13.145  70.680  1.00  0.00    -0.326 C  
HETATM   27  H   UNL     3     -12.810  11.293  70.630  1.00  0.00     0.000 HD 
HETATM   28  O   UNL     3     -13.260  12.102  70.841  1.00  0.00     0.043 OA 
BRANCH  26  29
HETATM   29  C   UNL     3     -11.668  13.179  69.267  1.00  0.00    -0.321 C  
HETATM   30  O   UNL     3     -12.164  12.007  68.481  1.00  0.00    -0.340 OA 
HETATM   31  H   UNL     3     -11.773  12.028  67.615  1.00  0.00     0.000 HD 
BRANCH  29  32
HETATM   32  C   UNL     3     -12.115  14.374  68.397  1.00  0.00    -0.243 C  
HETATM   33  H   UNL     3     -12.794  14.575  66.559  1.00  0.00     0.000 HD 
HETATM   34  O   UNL     3     -12.519  13.839  67.094  1.00  0.00    -0.280 OA 
BRANCH  32  35
HETATM   35  C   UNL     3     -11.409  15.738  68.341  1.00  0.00    -0.372 C  
HETATM   36  H   UNL     3      -9.903  16.530  69.260  1.00  0.00     0.000 HD 
HETATM   37  O   UNL     3     -10.340  15.687  69.295  1.00  0.00    -0.217 OA 
BRANCH  35  38
HETATM   38  C   UNL     3     -10.939  16.210  66.970  1.00  0.00    -0.123 C  
HETATM   39  C   UNL     3      -9.567  15.579  66.615  1.00  0.00    -0.253 C  
HETATM   40  O   UNL     3     -10.807  17.645  66.937  1.00  0.00    -0.203 OA 
HETATM   41  O   UNL     3      -9.108  14.736  67.448  1.00  0.00    -0.182 OA 
HETATM   42  O   UNL     3      -8.973  16.157  65.663  1.00  0.00    -0.370 OA 
HETATM   43  H   UNL     3     -10.514  17.940  66.082  1.00  0.00     0.000 HD 
ENDBRANCH  35  38
ENDBRANCH  32  35
ENDBRANCH  29  32
ENDBRANCH  26  29
ENDBRANCH   6  26
TORSDOF 10
ENDMDL
MODEL      406
REMARK 921   NORMALIZED FREE ENERGY PREDICTED BY IDOCK:   -3.89 KCAL/MOL
REMARK 922        TOTAL FREE ENERGY PREDICTED BY IDOCK:   -8.67 KCAL/MOL
REMARK 923 INTER-LIGAND FREE ENERGY PREDICTED BY IDOCK:  -10.14 KCAL/MOL
REMARK 924 INTRA-LIGAND FREE ENERGY PREDICTED BY IDOCK:    1.47 KCAL/MOL
REMARK 927      BINDING AFFINITY PREDICTED BY RF-SCORE:    0.00 PKD
ROOT
HETATM    1 CA   UNL     1      -8.033  15.279  66.139  1.00  0.00    -0.270 Ca 
HETATM    2  O   UNL     2     -11.590  11.985  63.069  1.00  0.00    -0.682 OA 
HETATM    3  O   UNL     3      -6.908  21.378  67.184  1.00  0.00    -0.661 OA 
HETATM    4  H   UNL     2     -11.029  11.714  62.351  1.00  0.00     0.000 HD 
HETATM    5  C   UNL     2     -10.865  12.882  63.908  1.00  0.00    -0.367 C  
HETATM    6  C   UNL     3      -6.465  20.283  66.386  1.00  0.00    -0.212 C  
HETATM    7  H   UNL     3      -6.171  21.779  67.630  1.00  0.00     0.000 HD 
ENDROOT
BRANCH   5   8
HETATM    8  C   UNL     2     -11.776  13.322  65.074  1.00  0.00    -0.333 C  
HETATM    9  O   UNL     2     -13.017  12.637  64.948  1.00  0.00    -0.830 OA 
HETATM   10  H   UNL     2     -13.578  12.908  65.665  1.00  0.00     0.000 HD 
BRANCH   8  11
HETATM   11  C   UNL     2     -11.162  12.950  66.434  1.00  0.00    -0.300 C  
HETATM   12  H   UNL     2     -11.191  13.612  68.331  1.00  0.00     0.000 HD 
HETATM   13  O   UNL     2     -11.570  13.842  67.490  1.00  0.00    -0.315 OA 
BRANCH  11  14
HETATM   14  C   UNL     2     -11.261  11.492  66.944  1.00  0.00    -0.298 C  
HETATM   15  O   UNL     2     -12.300  11.383  67.904  1.00  0.00    -0.380 OA 
HETATM   16  H   UNL     2     -12.361  10.487  68.217  1.00  0.00     0.000 HD 
BRANCH  14  17
HETATM   17  C   UNL     2      -9.954  10.765  67.313  1.00  0.00    -0.187 C  
HETATM   18  H   UNL     2      -8.273  11.283  68.161  1.00  0.00     0.000 HD 
HETATM   19  O   UNL     2      -9.079  11.732  67.934  1.00  0.00    -0.167 OA 
BRANCH  17  20
HETATM   20  C   UNL     2     -10.106   9.507  68.168  1.00  0.00    -0.182 C  
HETATM   21  O   UNL     2     -11.369   9.493  68.868  1.00  0.00    -0.455 OA 
HETATM   22  C   UNL     2     -10.026   8.281  67.214  1.00  0.00    -0.224 C  
HETATM   23  H   UNL     2     -11.464   8.711  69.400  1.00  0.00     0.000 HD 
HETATM   24  O   UNL     2      -9.163   8.390  66.304  1.00  0.00    -0.182 OA 
HETATM   25  O   UNL     2     -10.860   7.377  67.490  1.00  0.00    -0.242 OA 
ENDBRANCH  17  20
ENDBRANCH  14  17
ENDBRANCH  11  14
ENDBRANCH   8  11
ENDBRANCH   5   8
BRANCH   6  26
HETATM   26  C   UNL     3      -7.657  19.636  65.667  1.00  0.00    -0.175 C  
HETATM   27  H   UNL     3      -7.950  17.958  64.782  1.00  0.00     0.000 HD 
HETATM   28  O   UNL     3      -7.213  18.359  65.227  1.00  0.00    -0.504 OA 
BRANCH  26  29
HETATM   29  C   UNL     3      -8.921  19.570  66.564  1.00  0.00    -0.361 C  
HETATM   30  O   UNL     3     -10.023  18.905  65.802  1.00  0.00    -0.483 OA 
HETATM   31  H   UNL     3     -10.797  18.865  66.352  1.00  0.00     0.000 HD 
BRANCH  29  32
HETATM   32  C   UNL     3      -8.775  18.657  67.800  1.00  0.00    -0.279 C  
HETATM   33  H   UNL     3      -7.906  18.833  69.559  1.00  0.00     0.000 HD 
HETATM   34  O   UNL     3      -7.996  19.395  68.798  1.00  0.00    -0.353 OA 
BRANCH  32  35
HETATM   35  C   UNL     3      -8.495  17.147  67.755  1.00  0.00    -0.207 C  
HETATM   36  H   UNL     3      -7.365  15.941  68.760  1.00  0.00     0.000 HD 
HETATM   37  O   UNL     3      -7.538  16.875  68.787  1.00  0.00    -0.221 OA 
BRANCH  35  38
HETATM   38  C   UNL     3      -9.705  16.223  67.831  1.00  0.00    -0.233 C  
HETATM   39  C   UNL     3     -10.753  16.776  68.832  1.00  0.00    -0.333 C  
HETATM   40  O   UNL     3      -9.319  14.900  68.254  1.00  0.00    -0.184 OA 
HETATM   41  O   UNL     3     -10.490  17.908  69.347  1.00  0.00    -0.159 OA 
HETATM   42  O   UNL     3     -11.617  15.925  69.185  1.00  0.00    -0.362 OA 
HETATM   43  H   UNL     3     -10.073  14.325  68.301  1.00  0.00     0.000 HD 
ENDBRANCH  35  38
ENDBRANCH  32  35
ENDBRANCH  29  32
ENDBRANCH  26  29
ENDBRANCH   6  26
TORSDOF 10
ENDMDL
MODEL      407
REMARK 921   NORMALIZED FREE ENERGY PREDICTED BY IDOCK:   -3.89 KCAL/MOL
REMARK 922        TOTAL FREE ENERGY PREDICTED BY IDOCK:   -8.66 KCAL/MOL
REMARK 923 INTER-LIGAND FREE ENERGY PREDICTED BY IDOCK:   -6.29 KCAL/MOL
REMARK 924 INTRA-LIGAND FREE ENERGY PREDICTED BY IDOCK:   -2.37 KCAL/MOL
REMARK 927      BINDING AFFINITY PREDICTED BY RF-SCORE:    0.00 PKD
ROOT
HETATM    1 CA   UNL     1      -6.621   7.089  68.694  1.00  0.00    -0.037 Ca 
HETATM    2  O   UNL     2      -6.536  12.326  66.352  1.00  0.00    -0.390 OA 
HETATM    3  O   UNL     3      -8.329   4.309  74.071  1.00  0.00    -0.094 OA 
HETATM    4  H   UNL     2      -5.618  12.558  66.434  1.00  0.00     0.000 HD 
HETATM    5  C   UNL     2      -6.746  11.052  66.959  1.00  0.00    -0.108 C  
HETATM    6  C   UNL     3      -7.189   4.850  73.409  1.00  0.00    -0.085 C  
HETATM    7  H   UNL     3      -8.148   3.425  74.367  1.00  0.00     0.000 HD 
ENDROOT
BRANCH   5   8
HETATM    8  C   UNL     2      -8.237  10.676  66.826  1.00  0.00    -0.130 C  
HETATM    9  O   UNL     2      -8.399   9.341  67.292  1.00  0.00    -0.123 OA 
HETATM   10  H   UNL     2      -9.317   9.109  67.210  1.00  0.00     0.000 HD 
BRANCH   8  11
HETATM   11  C   UNL     2      -9.123  11.591  67.686  1.00  0.00    -0.168 C  
HETATM   12  H   UNL     2      -9.051  12.515  69.469  1.00  0.00     0.000 HD 
HETATM   13  O   UNL     2      -8.503  11.950  68.937  1.00  0.00    -0.022 OA 
BRANCH  11  14
HETATM   14  C   UNL     2      -9.749  12.861  67.058  1.00  0.00    -0.230 C  
HETATM   15  O   UNL     2      -9.700  12.777  65.643  1.00  0.00    -0.392 OA 
HETATM   16  H   UNL     2     -10.084  13.556  65.257  1.00  0.00     0.000 HD 
BRANCH  14  17
HETATM   17  C   UNL     2      -9.351  14.229  67.644  1.00  0.00    -0.201 C  
HETATM   18  H   UNL     2      -8.031  15.597  67.193  1.00  0.00     0.000 HD 
HETATM   19  O   UNL     2      -8.277  14.753  66.831  1.00  0.00    -0.203 OA 
BRANCH  17  20
HETATM   20  C   UNL     2     -10.483  15.242  67.809  1.00  0.00    -0.253 C  
HETATM   21  O   UNL     2     -11.525  15.035  66.830  1.00  0.00    -0.330 OA 
HETATM   22  C   UNL     2     -11.068  15.060  69.238  1.00  0.00    -0.272 C  
HETATM   23  H   UNL     2     -12.229  15.664  66.932  1.00  0.00     0.000 HD 
HETATM   24  O   UNL     2     -10.202  14.850  70.128  1.00  0.00    -0.046 OA 
HETATM   25  O   UNL     2     -12.326  15.128  69.276  1.00  0.00    -0.207 OA 
ENDBRANCH  17  20
ENDBRANCH  14  17
ENDBRANCH  11  14
ENDBRANCH   8  11
ENDBRANCH   5   8
BRANCH   6  26
HETATM   26  C   UNL     3      -7.481   6.279  72.931  1.00  0.00    -0.096 C  
HETATM   27  H   UNL     3      -6.435   7.875  72.727  1.00  0.00     0.000 HD 
HETATM   28  O   UNL     3      -6.254   6.990  73.022  1.00  0.00    -0.056 OA 
BRANCH  26  29
HETATM   29  C   UNL     3      -8.103   6.309  71.510  1.00  0.00    -0.110 C  
HETATM   30  O   UNL     3      -7.962   4.956  70.889  1.00  0.00    -0.080 OA 
HETATM   31  H   UNL     3      -8.343   4.974  70.019  1.00  0.00     0.000 HD 
BRANCH  29  32
HETATM   32  C   UNL     3      -9.632   6.525  71.490  1.00  0.00    -0.161 C  
HETATM   33  H   UNL     3     -11.192   5.366  71.170  1.00  0.00     0.000 HD 
HETATM   34  O   UNL     3     -10.251   5.233  71.182  1.00  0.00    -0.205 OA 
BRANCH  32  35
HETATM   35  C   UNL     3     -10.344   7.741  70.879  1.00  0.00    -0.200 C  
HETATM   36  H   UNL     3     -10.664   8.368  69.078  1.00  0.00     0.000 HD 
HETATM   37  O   UNL     3     -10.223   7.616  69.456  1.00  0.00    -0.198 OA 
BRANCH  35  38
HETATM   38  C   UNL     3     -11.784   7.984  71.318  1.00  0.00    -0.282 C  
HETATM   39  C   UNL     3     -12.127   9.495  71.254  1.00  0.00    -0.360 C  
HETATM   40  O   UNL     3     -11.996   7.522  72.667  1.00  0.00    -0.527 OA 
HETATM   41  O   UNL     3     -11.223  10.254  70.783  1.00  0.00    -0.329 OA 
HETATM   42  O   UNL     3     -13.170   9.806  71.893  1.00  0.00    -0.393 OA 
HETATM   43  H   UNL     3     -12.893   7.673  72.941  1.00  0.00     0.000 HD 
ENDBRANCH  35  38
ENDBRANCH  32  35
ENDBRANCH  29  32
ENDBRANCH  26  29
ENDBRANCH   6  26
TORSDOF 10
ENDMDL
MODEL      408
REMARK 921   NORMALIZED FREE ENERGY PREDICTED BY IDOCK:   -3.89 KCAL/MOL
REMARK 922        TOTAL FREE ENERGY PREDICTED BY IDOCK:   -8.66 KCAL/MOL
REMARK 923 INTER-LIGAND FREE ENERGY PREDICTED BY IDOCK:   -8.51 KCAL/MOL
REMARK 924 INTRA-LIGAND FREE ENERGY PREDICTED BY IDOCK:   -0.15 KCAL/MOL
REMARK 927      BINDING AFFINITY PREDICTED BY RF-SCORE:    0.00 PKD
ROOT
HETATM    1 CA   UNL     1      -9.340  10.945  69.060  1.00  0.00    -0.148 Ca 
HETATM    2  O   UNL     2     -13.301  14.048  71.819  1.00  0.00    -0.341 OA 
HETATM    3  O   UNL     3      -9.020   6.029  65.152  1.00  0.00    -0.362 OA 
HETATM    4  H   UNL     2     -13.227  13.709  72.704  1.00  0.00     0.000 HD 
HETATM    5  C   UNL     2     -12.411  13.321  70.972  1.00  0.00    -0.336 C  
HETATM    6  C   UNL     3      -8.928   6.361  66.534  1.00  0.00    -0.145 C  
HETATM    7  H   UNL     3      -8.257   5.532  64.882  1.00  0.00     0.000 HD 
ENDROOT
BRANCH   5   8
HETATM    8  C   UNL     2     -12.530  13.871  69.534  1.00  0.00    -0.095 C  
HETATM    9  O   UNL     2     -12.163  15.246  69.555  1.00  0.00    -0.472 OA 
HETATM   10  H   UNL     2     -12.237  15.585  68.670  1.00  0.00     0.000 HD 
BRANCH   8  11
HETATM   11  C   UNL     2     -11.578  13.138  68.576  1.00  0.00    -0.326 C  
HETATM   12  H   UNL     2     -11.203  11.260  67.969  1.00  0.00     0.000 HD 
HETATM   13  O   UNL     2     -11.791  11.713  68.562  1.00  0.00    -0.348 OA 
BRANCH  11  14
HETATM   14  C   UNL     2     -11.430  13.635  67.116  1.00  0.00    -0.342 C  
HETATM   15  O   UNL     2     -12.275  12.885  66.259  1.00  0.00    -0.454 OA 
HETATM   16  H   UNL     2     -12.185  13.190  65.364  1.00  0.00     0.000 HD 
BRANCH  14  17
HETATM   17  C   UNL     2     -10.009  13.881  66.577  1.00  0.00    -0.285 C  
HETATM   18  H   UNL     2      -9.246  14.906  65.100  1.00  0.00     0.000 HD 
HETATM   19  O   UNL     2     -10.124  14.755  65.432  1.00  0.00    -0.350 OA 
BRANCH  17  20
HETATM   20  C   UNL     2      -8.990  14.405  67.590  1.00  0.00    -0.192 C  
HETATM   21  O   UNL     2      -7.639  14.080  67.197  1.00  0.00    -0.341 OA 
HETATM   22  C   UNL     2      -9.154  15.949  67.662  1.00  0.00    -0.198 C  
HETATM   23  H   UNL     2      -7.006  14.405  67.826  1.00  0.00     0.000 HD 
HETATM   24  O   UNL     2     -10.350  16.344  67.626  1.00  0.00    -0.270 OA 
HETATM   25  O   UNL     2      -8.057  16.567  67.720  1.00  0.00    -0.158 OA 
ENDBRANCH  17  20
ENDBRANCH  14  17
ENDBRANCH  11  14
ENDBRANCH   8  11
ENDBRANCH   5   8
BRANCH   6  26
HETATM   26  C   UNL     3     -10.162   7.163  66.970  1.00  0.00    -0.269 C  
HETATM   27  H   UNL     3     -12.031   6.770  67.156  1.00  0.00     0.000 HD 
HETATM   28  O   UNL     3     -11.267   6.274  66.887  1.00  0.00    -0.335 OA 
BRANCH  26  29
HETATM   29  C   UNL     3      -9.987   7.794  68.377  1.00  0.00    -0.178 C  
HETATM   30  O   UNL     3     -11.116   8.741  68.629  1.00  0.00    -0.439 OA 
HETATM   31  H   UNL     3     -11.009   9.127  69.490  1.00  0.00     0.000 HD 
BRANCH  29  32
HETATM   32  C   UNL     3     -10.129   6.792  69.543  1.00  0.00    -0.178 C  
HETATM   33  H   UNL     3     -10.375   4.842  69.675  1.00  0.00     0.000 HD 
HETATM   34  O   UNL     3     -10.288   5.459  68.957  1.00  0.00    -0.217 OA 
BRANCH  32  35
HETATM   35  C   UNL     3     -10.948   7.034  70.821  1.00  0.00    -0.255 C  
HETATM   36  H   UNL     3     -12.788   6.735  71.335  1.00  0.00     0.000 HD 
HETATM   37  O   UNL     3     -12.281   6.586  70.545  1.00  0.00    -0.325 OA 
BRANCH  35  38
HETATM   38  C   UNL     3     -10.394   6.442  72.112  1.00  0.00    -0.189 C  
HETATM   39  C   UNL     3     -10.902   7.240  73.341  1.00  0.00    -0.324 C  
HETATM   40  O   UNL     3      -8.953   6.465  72.113  1.00  0.00    -0.137 OA 
HETATM   41  O   UNL     3     -11.734   8.170  73.098  1.00  0.00    -0.245 OA 
HETATM   42  O   UNL     3     -10.247   7.018  74.397  1.00  0.00    -0.257 OA 
HETATM   43  H   UNL     3      -8.608   6.096  72.918  1.00  0.00     0.000 HD 
ENDBRANCH  35  38
ENDBRANCH  32  35
ENDBRANCH  29  32
ENDBRANCH  26  29
ENDBRANCH   6  26
TORSDOF 10
ENDMDL
MODEL      409
REMARK 921   NORMALIZED FREE ENERGY PREDICTED BY IDOCK:   -3.88 KCAL/MOL
REMARK 922        TOTAL FREE ENERGY PREDICTED BY IDOCK:   -8.65 KCAL/MOL
REMARK 923 INTER-LIGAND FREE ENERGY PREDICTED BY IDOCK:   -6.94 KCAL/MOL
REMARK 924 INTRA-LIGAND FREE ENERGY PREDICTED BY IDOCK:   -1.70 KCAL/MOL
REMARK 927      BINDING AFFINITY PREDICTED BY RF-SCORE:    0.00 PKD
ROOT
HETATM    1 CA   UNL     1      -8.885   9.242  69.597  1.00  0.00    -0.111 Ca 
HETATM    2  O   UNL     2      -6.759   4.435  71.897  1.00  0.00    -0.025 OA 
HETATM    3  O   UNL     3     -11.141  11.290  64.095  1.00  0.00    -0.354 OA 
HETATM    4  H   UNL     2      -5.827   4.623  71.907  1.00  0.00     0.000 HD 
HETATM    5  C   UNL     2      -7.443   5.525  71.281  1.00  0.00    -0.097 C  
HETATM    6  C   UNL     3      -9.943  11.257  64.865  1.00  0.00    -0.274 C  
HETATM    7  H   UNL     3     -11.334  12.180  63.826  1.00  0.00     0.000 HD 
ENDROOT
BRANCH   5   8
HETATM    8  C   UNL     2      -8.955   5.220  71.265  1.00  0.00    -0.140 C  
HETATM    9  O   UNL     2      -9.359   4.915  72.596  1.00  0.00    -0.132 OA 
HETATM   10  H   UNL     2     -10.290   4.727  72.586  1.00  0.00     0.000 HD 
BRANCH   8  11
HETATM   11  C   UNL     2      -9.765   6.437  70.789  1.00  0.00    -0.180 C  
HETATM   12  H   UNL     2     -10.075   7.470  69.093  1.00  0.00     0.000 HD 
HETATM   13  O   UNL     2      -9.575   6.718  69.388  1.00  0.00    -0.147 OA 
BRANCH  11  14
HETATM   14  C   UNL     2     -11.277   6.524  71.115  1.00  0.00    -0.302 C  
HETATM   15  O   UNL     2     -12.035   6.482  69.917  1.00  0.00    -0.611 OA 
HETATM   16  H   UNL     2     -12.963   6.536  70.117  1.00  0.00     0.000 HD 
BRANCH  14  17
HETATM   17  C   UNL     2     -11.735   7.579  72.140  1.00  0.00    -0.303 C  
HETATM   18  H   UNL     2     -11.259   8.017  73.983  1.00  0.00     0.000 HD 
HETATM   19  O   UNL     2     -10.976   7.366  73.350  1.00  0.00    -0.378 OA 
BRANCH  17  20
HETATM   20  C   UNL     2     -11.670   9.034  71.678  1.00  0.00    -0.361 C  
HETATM   21  O   UNL     2     -11.182   9.137  70.322  1.00  0.00    -0.245 OA 
HETATM   22  C   UNL     2     -13.109   9.616  71.758  1.00  0.00    -0.421 C  
HETATM   23  H   UNL     2     -11.141  10.042  70.034  1.00  0.00     0.000 HD 
HETATM   24  O   UNL     2     -13.759   9.248  72.773  1.00  0.00    -0.410 OA 
HETATM   25  O   UNL     2     -13.409  10.348  70.778  1.00  0.00    -0.322 OA 
ENDBRANCH  17  20
ENDBRANCH  14  17
ENDBRANCH  11  14
ENDBRANCH   8  11
ENDBRANCH   5   8
BRANCH   6  26
HETATM   26  C   UNL     3      -9.632   9.818  65.300  1.00  0.00    -0.300 C  
HETATM   27  H   UNL     3      -8.263   8.544  64.871  1.00  0.00     0.000 HD 
HETATM   28  O   UNL     3      -8.455   9.434  64.601  1.00  0.00    -0.146 OA 
BRANCH  26  29
HETATM   29  C   UNL     3      -9.501   9.684  66.841  1.00  0.00    -0.153 C  
HETATM   30  O   UNL     3      -8.609   8.526  67.154  1.00  0.00    -0.120 OA 
HETATM   31  H   UNL     3      -8.530   8.444  68.097  1.00  0.00     0.000 HD 
BRANCH  29  32
HETATM   32  C   UNL     3      -8.767  10.861  67.520  1.00  0.00    -0.130 C  
HETATM   33  H   UNL     3      -8.835  12.822  67.348  1.00  0.00     0.000 HD 
HETATM   34  O   UNL     3      -9.286  12.098  66.930  1.00  0.00    -0.191 OA 
BRANCH  32  35
HETATM   35  C   UNL     3      -7.269  10.890  67.858  1.00  0.00    -0.086 C  
HETATM   36  H   UNL     3      -5.637  10.831  66.821  1.00  0.00     0.000 HD 
HETATM   37  O   UNL     3      -6.564  10.813  66.612  1.00  0.00    -0.094 OA 
BRANCH  35  38
HETATM   38  C   UNL     3      -6.785  12.046  68.726  1.00  0.00    -0.087 C  
HETATM   39  C   UNL     3      -6.067  11.514  69.995  1.00  0.00    -0.151 C  
HETATM   40  O   UNL     3      -7.887  12.878  69.137  1.00  0.00    -0.320 OA 
HETATM   41  O   UNL     3      -5.924  10.253  70.068  1.00  0.00    -0.048 OA 
HETATM   42  O   UNL     3      -5.927  12.382  70.900  1.00  0.00    -0.306 OA 
HETATM   43  H   UNL     3      -7.586  13.599  69.678  1.00  0.00     0.000 HD 
ENDBRANCH  35  38
ENDBRANCH  32  35
ENDBRANCH  29  32
ENDBRANCH  26  29
ENDBRANCH   6  26
TORSDOF 10
ENDMDL
MODEL      410
REMARK 921   NORMALIZED FREE ENERGY PREDICTED BY IDOCK:   -3.88 KCAL/MOL
REMARK 922        TOTAL FREE ENERGY PREDICTED BY IDOCK:   -8.64 KCAL/MOL
REMARK 923 INTER-LIGAND FREE ENERGY PREDICTED BY IDOCK:   -6.66 KCAL/MOL
REMARK 924 INTRA-LIGAND FREE ENERGY PREDICTED BY IDOCK:   -1.98 KCAL/MOL
REMARK 927      BINDING AFFINITY PREDICTED BY RF-SCORE:    0.00 PKD
ROOT
HETATM    1 CA   UNL     1     -11.974  12.010  70.874  1.00  0.00    -0.304 Ca 
HETATM    2  O   UNL     2      -9.163   7.598  73.231  1.00  0.00    -0.180 OA 
HETATM    3  O   UNL     3     -10.991  16.574  66.661  1.00  0.00    -0.127 OA 
HETATM    4  H   UNL     2      -8.936   7.949  74.084  1.00  0.00     0.000 HD 
HETATM    5  C   UNL     2      -9.823   8.612  72.475  1.00  0.00    -0.198 C  
HETATM    6  C   UNL     3     -10.961  16.327  68.064  1.00  0.00    -0.328 C  
HETATM    7  H   UNL     3     -11.527  17.335  66.473  1.00  0.00     0.000 HD 
ENDROOT
BRANCH   5   8
HETATM    8  C   UNL     2     -10.191   8.042  71.089  1.00  0.00    -0.193 C  
HETATM    9  O   UNL     2      -9.111   8.308  70.201  1.00  0.00    -0.144 OA 
HETATM   10  H   UNL     2      -9.338   7.957  69.347  1.00  0.00     0.000 HD 
BRANCH   8  11
HETATM   11  C   UNL     2     -10.396   6.520  71.148  1.00  0.00    -0.205 C  
HETATM   12  H   UNL     2     -11.750   5.158  70.554  1.00  0.00     0.000 HD 
HETATM   13  O   UNL     2     -11.623   6.099  70.518  1.00  0.00    -0.333 OA 
BRANCH  11  14
HETATM   14  C   UNL     2      -9.254   5.576  70.696  1.00  0.00    -0.150 C  
HETATM   15  O   UNL     2      -7.997   6.130  71.051  1.00  0.00    -0.112 OA 
HETATM   16  H   UNL     2      -7.297   5.551  70.774  1.00  0.00     0.000 HD 
BRANCH  14  17
HETATM   17  C   UNL     2      -9.327   4.982  69.277  1.00  0.00    -0.125 C  
HETATM   18  H   UNL     2      -8.949   5.642  67.478  1.00  0.00     0.000 HD 
HETATM   19  O   UNL     2      -8.904   6.009  68.353  1.00  0.00    -0.113 OA 
BRANCH  17  20
HETATM   20  C   UNL     2      -8.564   3.675  69.059  1.00  0.00    -0.084 C  
HETATM   21  O   UNL     2      -8.607   2.835  70.234  1.00  0.00    -0.051 OA 
HETATM   22  C   UNL     2      -9.235   2.936  67.867  1.00  0.00    -0.205 C  
HETATM   23  H   UNL     2      -8.133   2.023  70.098  1.00  0.00     0.000 HD 
HETATM   24  O   UNL     2      -9.584   3.691  66.921  1.00  0.00    -0.205 OA 
HETATM   25  O   UNL     2      -9.346   1.693  68.047  1.00  0.00    -0.162 OA 
ENDBRANCH  17  20
ENDBRANCH  14  17
ENDBRANCH  11  14
ENDBRANCH   8  11
ENDBRANCH   5   8
BRANCH   6  26
HETATM   26  C   UNL     3     -10.095  15.096  68.367  1.00  0.00    -0.225 C  
HETATM   27  H   UNL     3     -10.163  13.684  69.664  1.00  0.00     0.000 HD 
HETATM   28  O   UNL     3     -10.699  14.445  69.477  1.00  0.00    -0.206 OA 
BRANCH  26  29
HETATM   29  C   UNL     3      -9.929  14.174  67.130  1.00  0.00    -0.255 C  
HETATM   30  O   UNL     3      -8.738  14.623  66.346  1.00  0.00    -0.452 OA 
HETATM   31  H   UNL     3      -8.636  14.059  65.588  1.00  0.00     0.000 HD 
BRANCH  29  32
HETATM   32  C   UNL     3      -9.568  12.712  67.473  1.00  0.00    -0.184 C  
HETATM   33  H   UNL     3      -7.908  11.652  67.451  1.00  0.00     0.000 HD 
HETATM   34  O   UNL     3      -8.130  12.551  67.240  1.00  0.00    -0.171 OA 
BRANCH  32  35
HETATM   35  C   UNL     3     -10.419  11.485  67.111  1.00  0.00    -0.224 C  
HETATM   36  H   UNL     3     -12.315  11.111  67.056  1.00  0.00     0.000 HD 
HETATM   37  O   UNL     3     -11.789  11.870  67.280  1.00  0.00    -0.576 OA 
BRANCH  35  38
HETATM   38  C   UNL     3     -10.160  10.849  65.749  1.00  0.00    -0.252 C  
HETATM   39  C   UNL     3      -9.260   9.594  65.894  1.00  0.00    -0.194 C  
HETATM   40  O   UNL     3      -9.511  11.780  64.861  1.00  0.00    -0.396 OA 
HETATM   41  O   UNL     3      -8.962   9.255  67.082  1.00  0.00    -0.126 OA 
HETATM   42  O   UNL     3      -8.747   9.209  64.807  1.00  0.00    -0.179 OA 
HETATM   43  H   UNL     3      -9.349  11.384  64.013  1.00  0.00     0.000 HD 
ENDBRANCH  35  38
ENDBRANCH  32  35
ENDBRANCH  29  32
ENDBRANCH  26  29
ENDBRANCH   6  26
TORSDOF 10
ENDMDL
MODEL      411
REMARK 921   NORMALIZED FREE ENERGY PREDICTED BY IDOCK:   -3.88 KCAL/MOL
REMARK 922        TOTAL FREE ENERGY PREDICTED BY IDOCK:   -8.64 KCAL/MOL
REMARK 923 INTER-LIGAND FREE ENERGY PREDICTED BY IDOCK:   -7.78 KCAL/MOL
REMARK 924 INTRA-LIGAND FREE ENERGY PREDICTED BY IDOCK:   -0.87 KCAL/MOL
REMARK 927      BINDING AFFINITY PREDICTED BY RF-SCORE:    0.00 PKD
ROOT
HETATM    1 CA   UNL     1      -6.555   7.224  68.971  1.00  0.00    -0.029 Ca 
HETATM    2  O   UNL     2      -7.764  12.156  66.301  1.00  0.00    -0.333 OA 
HETATM    3  O   UNL     3      -8.130   4.148  74.226  1.00  0.00    -0.089 OA 
HETATM    4  H   UNL     2      -6.993  12.675  66.499  1.00  0.00     0.000 HD 
HETATM    5  C   UNL     2      -7.653  10.896  66.960  1.00  0.00    -0.122 C  
HETATM    6  C   UNL     3      -7.130   5.016  73.700  1.00  0.00    -0.081 C  
HETATM    7  H   UNL     3      -7.728   3.377  74.607  1.00  0.00     0.000 HD 
ENDROOT
BRANCH   5   8
HETATM    8  C   UNL     2      -8.905  10.052  66.638  1.00  0.00    -0.132 C  
HETATM    9  O   UNL     2      -8.931   8.942  67.529  1.00  0.00    -0.132 OA 
HETATM   10  H   UNL     2      -9.702   8.423  67.331  1.00  0.00     0.000 HD 
BRANCH   8  11
HETATM   11  C   UNL     2     -10.194  10.863  66.850  1.00  0.00    -0.228 C  
HETATM   12  H   UNL     2     -12.000  10.626  67.698  1.00  0.00     0.000 HD 
HETATM   13  O   UNL     2     -11.204  10.125  67.567  1.00  0.00    -0.265 OA 
BRANCH  11  14
HETATM   14  C   UNL     2     -10.110  12.294  67.436  1.00  0.00    -0.200 C  
HETATM   15  O   UNL     2      -9.697  12.240  68.792  1.00  0.00    -0.390 OA 
HETATM   16  H   UNL     2      -9.645  13.118  69.152  1.00  0.00     0.000 HD 
BRANCH  14  17
HETATM   17  C   UNL     2     -11.272  13.263  67.148  1.00  0.00    -0.299 C  
HETATM   18  H   UNL     2     -12.360  14.480  68.221  1.00  0.00     0.000 HD 
HETATM   19  O   UNL     2     -11.643  13.882  68.399  1.00  0.00    -0.290 OA 
BRANCH  17  20
HETATM   20  C   UNL     2     -11.023  14.300  66.054  1.00  0.00    -0.312 C  
HETATM   21  O   UNL     2      -9.680  14.204  65.529  1.00  0.00    -0.502 OA 
HETATM   22  C   UNL     2     -12.046  14.034  64.914  1.00  0.00    -0.420 C  
HETATM   23  H   UNL     2      -9.525  14.849  64.850  1.00  0.00     0.000 HD 
HETATM   24  O   UNL     2     -13.200  13.727  65.317  1.00  0.00    -0.755 OA 
HETATM   25  O   UNL     2     -11.551  14.144  63.761  1.00  0.00    -0.100 OA 
ENDBRANCH  17  20
ENDBRANCH  14  17
ENDBRANCH  11  14
ENDBRANCH   8  11
ENDBRANCH   5   8
BRANCH   6  26
HETATM   26  C   UNL     3      -7.781   6.263  73.085  1.00  0.00    -0.096 C  
HETATM   27  H   UNL     3      -7.205   8.064  72.755  1.00  0.00     0.000 HD 
HETATM   28  O   UNL     3      -6.802   7.292  73.136  1.00  0.00    -0.064 OA 
BRANCH  26  29
HETATM   29  C   UNL     3      -8.321   6.000  71.654  1.00  0.00    -0.127 C  
HETATM   30  O   UNL     3      -7.729   4.727  71.138  1.00  0.00    -0.077 OA 
HETATM   31  H   UNL     3      -8.060   4.566  70.262  1.00  0.00     0.000 HD 
BRANCH  29  32
HETATM   32  C   UNL     3      -9.836   5.711  71.590  1.00  0.00    -0.170 C  
HETATM   33  H   UNL     3     -10.930   4.090  71.354  1.00  0.00     0.000 HD 
HETATM   34  O   UNL     3      -9.998   4.268  71.393  1.00  0.00    -0.186 OA 
BRANCH  32  35
HETATM   35  C   UNL     3     -10.871   6.579  70.857  1.00  0.00    -0.253 C  
HETATM   36  H   UNL     3     -11.830   6.433  69.185  1.00  0.00     0.000 HD 
HETATM   37  O   UNL     3     -11.190   5.896  69.638  1.00  0.00    -0.395 OA 
BRANCH  35  38
HETATM   38  C   UNL     3     -12.116   6.971  71.644  1.00  0.00    -0.347 C  
HETATM   39  C   UNL     3     -12.365   8.499  71.547  1.00  0.00    -0.314 C  
HETATM   40  O   UNL     3     -11.981   6.615  73.034  1.00  0.00    -0.380 OA 
HETATM   41  O   UNL     3     -11.576   9.146  70.789  1.00  0.00    -0.276 OA 
HETATM   42  O   UNL     3     -13.170   8.939  72.414  1.00  0.00    -0.411 OA 
HETATM   43  H   UNL     3     -12.757   6.860  73.525  1.00  0.00     0.000 HD 
ENDBRANCH  35  38
ENDBRANCH  32  35
ENDBRANCH  29  32
ENDBRANCH  26  29
ENDBRANCH   6  26
TORSDOF 10
ENDMDL
MODEL      412
REMARK 921   NORMALIZED FREE ENERGY PREDICTED BY IDOCK:   -3.87 KCAL/MOL
REMARK 922        TOTAL FREE ENERGY PREDICTED BY IDOCK:   -8.63 KCAL/MOL
REMARK 923 INTER-LIGAND FREE ENERGY PREDICTED BY IDOCK:   -6.74 KCAL/MOL
REMARK 924 INTRA-LIGAND FREE ENERGY PREDICTED BY IDOCK:   -1.89 KCAL/MOL
REMARK 927      BINDING AFFINITY PREDICTED BY RF-SCORE:    0.00 PKD
ROOT
HETATM    1 CA   UNL     1      -9.270  10.348  70.842  1.00  0.00    -0.270 Ca 
HETATM    2  O   UNL     2     -13.786  13.350  72.716  1.00  0.00    -0.720 OA 
HETATM    3  O   UNL     3      -7.994   5.682  66.822  1.00  0.00    -0.101 OA 
HETATM    4  H   UNL     2     -13.940  12.955  73.566  1.00  0.00     0.000 HD 
HETATM    5  C   UNL     2     -12.715  12.661  72.073  1.00  0.00    -0.019 C  
HETATM    6  C   UNL     3      -8.252   5.925  68.203  1.00  0.00    -0.109 C  
HETATM    7  H   UNL     3      -7.189   5.189  66.721  1.00  0.00     0.000 HD 
ENDROOT
BRANCH   5   8
HETATM    8  C   UNL     2     -12.466  13.302  70.692  1.00  0.00    -0.298 C  
HETATM    9  O   UNL     2     -11.638  14.445  70.878  1.00  0.00    -0.469 OA 
HETATM   10  H   UNL     2     -11.484  14.840  70.027  1.00  0.00     0.000 HD 
BRANCH   8  11
HETATM   11  C   UNL     2     -11.735  12.332  69.749  1.00  0.00    -0.298 C  
HETATM   12  H   UNL     2     -11.977  10.478  69.013  1.00  0.00     0.000 HD 
HETATM   13  O   UNL     2     -12.428  11.078  69.596  1.00  0.00    -0.291 OA 
BRANCH  11  14
HETATM   14  C   UNL     2     -11.275  12.823  68.354  1.00  0.00    -0.278 C  
HETATM   15  O   UNL     2     -11.775  11.959  67.346  1.00  0.00    -0.503 OA 
HETATM   16  H   UNL     2     -11.493  12.260  66.490  1.00  0.00     0.000 HD 
BRANCH  14  17
HETATM   17  C   UNL     2      -9.802  13.238  68.184  1.00  0.00    -0.231 C  
HETATM   18  H   UNL     2      -8.230  12.449  67.335  1.00  0.00     0.000 HD 
HETATM   19  O   UNL     2      -9.139  12.192  67.439  1.00  0.00    -0.170 OA 
BRANCH  17  20
HETATM   20  C   UNL     2      -9.562  14.615  67.564  1.00  0.00    -0.206 C  
HETATM   21  O   UNL     2     -10.496  15.593  68.070  1.00  0.00    -0.251 OA 
HETATM   22  C   UNL     2      -8.112  15.044  67.926  1.00  0.00    -0.136 C  
HETATM   23  H   UNL     2     -10.347  16.448  67.685  1.00  0.00     0.000 HD 
HETATM   24  O   UNL     2      -7.268  14.111  67.871  1.00  0.00    -0.122 OA 
HETATM   25  O   UNL     2      -8.015  16.260  68.244  1.00  0.00    -0.156 OA 
ENDBRANCH  17  20
ENDBRANCH  14  17
ENDBRANCH  11  14
ENDBRANCH   8  11
ENDBRANCH   5   8
BRANCH   6  26
HETATM   26  C   UNL     3      -9.553   6.723  68.367  1.00  0.00    -0.125 C  
HETATM   27  H   UNL     3     -10.051   8.312  69.321  1.00  0.00     0.000 HD 
HETATM   28  O   UNL     3      -9.246   7.818  69.220  1.00  0.00    -0.146 OA 
BRANCH  26  29
HETATM   29  C   UNL     3     -10.152   7.158  67.003  1.00  0.00    -0.238 C  
HETATM   30  O   UNL     3     -11.624   6.896  67.014  1.00  0.00    -0.607 OA 
HETATM   31  H   UNL     3     -11.991   7.162  66.179  1.00  0.00     0.000 HD 
BRANCH  29  32
HETATM   32  C   UNL     3     -10.088   8.677  66.737  1.00  0.00    -0.296 C  
HETATM   33  H   UNL     3     -11.166  10.229  67.292  1.00  0.00     0.000 HD 
HETATM   34  O   UNL     3     -11.206   9.294  67.455  1.00  0.00     0.060 OA 
BRANCH  32  35
HETATM   35  C   UNL     3      -9.760   9.323  65.382  1.00  0.00    -0.099 C  
HETATM   36  H   UNL     3     -10.524  10.763  64.340  1.00  0.00     0.000 HD 
HETATM   37  O   UNL     3     -10.727  10.363  65.178  1.00  0.00    -0.094 OA 
BRANCH  35  38
HETATM   38  C   UNL     3      -8.331   9.816  65.185  1.00  0.00    -0.142 C  
HETATM   39  C   UNL     3      -7.571   8.904  64.187  1.00  0.00    -0.120 C  
HETATM   40  O   UNL     3      -7.613   9.827  66.435  1.00  0.00    -0.097 OA 
HETATM   41  O   UNL     3      -8.254   7.979  63.645  1.00  0.00    -0.134 OA 
HETATM   42  O   UNL     3      -6.318   9.050  64.218  1.00  0.00    -0.074 OA 
HETATM   43  H   UNL     3      -6.722  10.133  66.313  1.00  0.00     0.000 HD 
ENDBRANCH  35  38
ENDBRANCH  32  35
ENDBRANCH  29  32
ENDBRANCH  26  29
ENDBRANCH   6  26
TORSDOF 10
ENDMDL
MODEL      413
REMARK 921   NORMALIZED FREE ENERGY PREDICTED BY IDOCK:   -3.86 KCAL/MOL
REMARK 922        TOTAL FREE ENERGY PREDICTED BY IDOCK:   -8.61 KCAL/MOL
REMARK 923 INTER-LIGAND FREE ENERGY PREDICTED BY IDOCK:   -5.99 KCAL/MOL
REMARK 924 INTRA-LIGAND FREE ENERGY PREDICTED BY IDOCK:   -2.62 KCAL/MOL
REMARK 927      BINDING AFFINITY PREDICTED BY RF-SCORE:    0.00 PKD
ROOT
HETATM    1 CA   UNL     1      -9.125   8.271  70.446  1.00  0.00    -0.130 Ca 
HETATM    2  O   UNL     2      -7.085   4.152  73.881  1.00  0.00    -0.059 OA 
HETATM    3  O   UNL     3      -9.536   9.576  64.307  1.00  0.00    -0.401 OA 
HETATM    4  H   UNL     2      -6.283   4.549  74.200  1.00  0.00     0.000 HD 
HETATM    5  C   UNL     2      -7.696   5.037  72.943  1.00  0.00    -0.097 C  
HETATM    6  C   UNL     3      -8.730   9.842  65.452  1.00  0.00    -0.155 C  
HETATM    7  H   UNL     3      -9.790  10.389  63.888  1.00  0.00     0.000 HD 
ENDROOT
BRANCH   5   8
HETATM    8  C   UNL     2      -8.999   4.393  72.424  1.00  0.00    -0.119 C  
HETATM    9  O   UNL     2      -9.630   3.732  73.516  1.00  0.00    -0.106 OA 
HETATM   10  H   UNL     2     -10.432   3.335  73.197  1.00  0.00     0.000 HD 
BRANCH   8  11
HETATM   11  C   UNL     2      -9.971   5.455  71.885  1.00  0.00    -0.184 C  
HETATM   12  H   UNL     2     -11.215   5.707  70.327  1.00  0.00     0.000 HD 
HETATM   13  O   UNL     2     -10.614   5.050  70.660  1.00  0.00    -0.200 OA 
BRANCH  11  14
HETATM   14  C   UNL     2     -11.034   6.069  72.829  1.00  0.00    -0.264 C  
HETATM   15  O   UNL     2     -12.169   5.220  72.899  1.00  0.00    -0.463 OA 
HETATM   16  H   UNL     2     -12.821   5.596  73.479  1.00  0.00     0.000 HD 
BRANCH  14  17
HETATM   17  C   UNL     2     -11.351   7.569  72.683  1.00  0.00    -0.344 C  
HETATM   18  H   UNL     2     -10.300   9.215  72.709  1.00  0.00     0.000 HD 
HETATM   19  O   UNL     2     -10.104   8.289  72.799  1.00  0.00    -0.294 OA 
BRANCH  17  20
HETATM   20  C   UNL     2     -12.123   7.971  71.426  1.00  0.00    -0.305 C  
HETATM   21  O   UNL     2     -12.764   6.831  70.812  1.00  0.00    -0.460 OA 
HETATM   22  C   UNL     2     -13.201   9.007  71.850  1.00  0.00    -0.405 C  
HETATM   23  H   UNL     2     -13.243   7.081  70.030  1.00  0.00     0.000 HD 
HETATM   24  O   UNL     2     -12.806   9.841  72.708  1.00  0.00    -0.017 OA 
HETATM   25  O   UNL     2     -14.313   8.833  71.285  1.00  0.00    -0.310 OA 
ENDBRANCH  17  20
ENDBRANCH  14  17
ENDBRANCH  11  14
ENDBRANCH   8  11
ENDBRANCH   5   8
BRANCH   6  26
HETATM   26  C   UNL     3      -8.320   8.527  66.129  1.00  0.00    -0.119 C  
HETATM   27  H   UNL     3      -6.663   7.588  66.363  1.00  0.00     0.000 HD 
HETATM   28  O   UNL     3      -6.916   8.402  65.944  1.00  0.00    -0.066 OA 
BRANCH  26  29
HETATM   29  C   UNL     3      -8.749   8.474  67.619  1.00  0.00    -0.136 C  
HETATM   30  O   UNL     3     -10.154   8.972  67.739  1.00  0.00    -0.183 OA 
HETATM   31  H   UNL     3     -10.416   8.940  68.651  1.00  0.00     0.000 HD 
BRANCH  29  32
HETATM   32  C   UNL     3      -8.854   7.047  68.199  1.00  0.00    -0.129 C  
HETATM   33  H   UNL     3      -7.686   5.911  69.307  1.00  0.00     0.000 HD 
HETATM   34  O   UNL     3      -7.622   6.789  68.950  1.00  0.00    -0.100 OA 
BRANCH  32  35
HETATM   35  C   UNL     3      -9.416   5.828  67.451  1.00  0.00    -0.112 C  
HETATM   36  H   UNL     3     -11.034   5.471  66.454  1.00  0.00     0.000 HD 
HETATM   37  O   UNL     3     -10.686   6.224  66.917  1.00  0.00    -0.286 OA 
BRANCH  35  38
HETATM   38  C   UNL     3      -8.516   5.197  66.394  1.00  0.00    -0.112 C  
HETATM   39  C   UNL     3      -8.725   3.661  66.344  1.00  0.00    -0.121 C  
HETATM   40  O   UNL     3      -7.127   5.462  66.676  1.00  0.00    -0.066 OA 
HETATM   41  O   UNL     3      -9.638   3.197  67.098  1.00  0.00    -0.163 OA 
HETATM   42  O   UNL     3      -7.807   3.043  65.737  1.00  0.00    -0.083 OA 
HETATM   43  H   UNL     3      -6.566   5.069  66.017  1.00  0.00     0.000 HD 
ENDBRANCH  35  38
ENDBRANCH  32  35
ENDBRANCH  29  32
ENDBRANCH  26  29
ENDBRANCH   6  26
TORSDOF 10
ENDMDL
MODEL      414
REMARK 921   NORMALIZED FREE ENERGY PREDICTED BY IDOCK:   -3.86 KCAL/MOL
REMARK 922        TOTAL FREE ENERGY PREDICTED BY IDOCK:   -8.61 KCAL/MOL
REMARK 923 INTER-LIGAND FREE ENERGY PREDICTED BY IDOCK:   -6.45 KCAL/MOL
REMARK 924 INTRA-LIGAND FREE ENERGY PREDICTED BY IDOCK:   -2.15 KCAL/MOL
REMARK 927      BINDING AFFINITY PREDICTED BY RF-SCORE:    0.00 PKD
ROOT
HETATM    1 CA   UNL     1     -11.807   9.297  67.182  1.00  0.00    -0.225 Ca 
HETATM    2  O   UNL     2     -12.611   8.050  72.725  1.00  0.00    -0.592 OA 
HETATM    3  O   UNL     3     -10.823  14.322  63.530  1.00  0.00     0.451 OA 
HETATM    4  H   UNL     2     -13.549   7.902  72.754  1.00  0.00     0.000 HD 
HETATM    5  C   UNL     2     -12.247   8.443  71.403  1.00  0.00    -0.302 C  
HETATM    6  C   UNL     3     -11.865  13.469  63.995  1.00  0.00    -0.427 C  
HETATM    7  H   UNL     3     -10.846  14.382  62.583  1.00  0.00     0.000 HD 
ENDROOT
BRANCH   5   8
HETATM    8  C   UNL     2     -10.723   8.683  71.355  1.00  0.00    -0.268 C  
HETATM    9  O   UNL     2     -10.244   8.748  72.694  1.00  0.00    -0.188 OA 
HETATM   10  H   UNL     2      -9.305   8.896  72.665  1.00  0.00     0.000 HD 
BRANCH   8  11
HETATM   11  C   UNL     2      -9.997   7.529  70.645  1.00  0.00    -0.183 C  
HETATM   12  H   UNL     2      -8.533   6.207  71.028  1.00  0.00     0.000 HD 
HETATM   13  O   UNL     2      -8.981   6.921  71.467  1.00  0.00    -0.140 OA 
BRANCH  11  14
HETATM   14  C   UNL     2     -10.824   6.411  69.964  1.00  0.00    -0.307 C  
HETATM   15  O   UNL     2     -10.764   5.222  70.736  1.00  0.00    -0.221 OA 
HETATM   16  H   UNL     2     -11.271   4.536  70.317  1.00  0.00     0.000 HD 
BRANCH  14  17
HETATM   17  C   UNL     2     -10.655   6.210  68.446  1.00  0.00    -0.265 C  
HETATM   18  H   UNL     2     -10.768   7.367  66.875  1.00  0.00     0.000 HD 
HETATM   19  O   UNL     2     -10.872   7.491  67.812  1.00  0.00    -0.180 OA 
BRANCH  17  20
HETATM   20  C   UNL     2      -9.341   5.571  67.997  1.00  0.00    -0.110 C  
HETATM   21  O   UNL     2      -8.663   4.927  69.098  1.00  0.00    -0.087 OA 
HETATM   22  C   UNL     2      -9.683   4.516  66.907  1.00  0.00    -0.205 C  
HETATM   23  H   UNL     2      -7.847   4.530  68.818  1.00  0.00     0.000 HD 
HETATM   24  O   UNL     2     -10.580   4.879  66.100  1.00  0.00    -0.309 OA 
HETATM   25  O   UNL     2      -9.023   3.449  67.020  1.00  0.00    -0.131 OA 
ENDBRANCH  17  20
ENDBRANCH  14  17
ENDBRANCH  11  14
ENDBRANCH   8  11
ENDBRANCH   5   8
BRANCH   6  26
HETATM   26  C   UNL     3     -11.828  13.372  65.527  1.00  0.00    -0.363 C  
HETATM   27  H   UNL     3     -13.064  13.783  66.936  1.00  0.00     0.000 HD 
HETATM   28  O   UNL     3     -13.087  13.843  65.988  1.00  0.00    -0.291 OA 
BRANCH  26  29
HETATM   29  C   UNL     3     -11.491  11.939  66.018  1.00  0.00    -0.281 C  
HETATM   30  O   UNL     3     -11.058  11.114  64.848  1.00  0.00    -0.187 OA 
HETATM   31  H   UNL     3     -10.853  10.237  65.149  1.00  0.00     0.000 HD 
BRANCH  29  32
HETATM   32  C   UNL     3     -10.264  11.861  66.951  1.00  0.00    -0.208 C  
HETATM   33  H   UNL     3      -8.749  10.617  67.148  1.00  0.00     0.000 HD 
HETATM   34  O   UNL     3      -9.504  10.665  66.574  1.00  0.00    -0.164 OA 
BRANCH  32  35
HETATM   35  C   UNL     3     -10.279  12.163  68.457  1.00  0.00    -0.207 C  
HETATM   36  H   UNL     3      -9.487  11.341  70.019  1.00  0.00     0.000 HD 
HETATM   37  O   UNL     3      -9.478  11.154  69.087  1.00  0.00    -0.117 OA 
BRANCH  35  38
HETATM   38  C   UNL     3      -9.871  13.571  68.878  1.00  0.00     0.060 C  
HETATM   39  C   UNL     3     -11.124  14.443  69.155  1.00  0.00    -0.265 C  
HETATM   40  O   UNL     3      -9.086  14.208  67.851  1.00  0.00    -0.176 OA 
HETATM   41  O   UNL     3     -12.245  13.850  69.075  1.00  0.00    -0.350 OA 
HETATM   42  O   UNL     3     -10.882  15.681  69.193  1.00  0.00    -0.218 OA 
HETATM   43  H   UNL     3      -8.832  15.086  68.113  1.00  0.00     0.000 HD 
ENDBRANCH  35  38
ENDBRANCH  32  35
ENDBRANCH  29  32
ENDBRANCH  26  29
ENDBRANCH   6  26
TORSDOF 10
ENDMDL
MODEL      415
REMARK 921   NORMALIZED FREE ENERGY PREDICTED BY IDOCK:   -3.84 KCAL/MOL
REMARK 922        TOTAL FREE ENERGY PREDICTED BY IDOCK:   -8.59 KCAL/MOL
REMARK 923 INTER-LIGAND FREE ENERGY PREDICTED BY IDOCK:   -7.15 KCAL/MOL
REMARK 924 INTRA-LIGAND FREE ENERGY PREDICTED BY IDOCK:   -1.44 KCAL/MOL
REMARK 927      BINDING AFFINITY PREDICTED BY RF-SCORE:    0.00 PKD
ROOT
HETATM    1 CA   UNL     1     -11.714  11.297  67.983  1.00  0.00    -0.219 Ca 
HETATM    2  O   UNL     2     -12.508   8.497  72.928  1.00  0.00    -0.585 OA 
HETATM    3  O   UNL     3      -9.279  16.718  65.923  1.00  0.00    -0.486 OA 
HETATM    4  H   UNL     2     -13.433   8.646  73.086  1.00  0.00     0.000 HD 
HETATM    5  C   UNL     2     -12.123   9.197  71.745  1.00  0.00    -0.376 C  
HETATM    6  C   UNL     3     -10.520  16.122  66.292  1.00  0.00    -0.315 C  
HETATM    7  H   UNL     3      -9.348  17.111  65.061  1.00  0.00     0.000 HD 
ENDROOT
BRANCH   5   8
HETATM    8  C   UNL     2     -10.621   8.955  71.488  1.00  0.00    -0.329 C  
HETATM    9  O   UNL     2      -9.985   8.750  72.745  1.00  0.00    -0.122 OA 
HETATM   10  H   UNL     2      -9.060   8.601  72.586  1.00  0.00     0.000 HD 
BRANCH   8  11
HETATM   11  C   UNL     2     -10.397   7.699  70.630  1.00  0.00    -0.205 C  
HETATM   12  H   UNL     2     -11.183   5.863  70.412  1.00  0.00     0.000 HD 
HETATM   13  O   UNL     2     -11.322   6.639  70.943  1.00  0.00    -0.285 OA 
BRANCH  11  14
HETATM   14  C   UNL     2     -10.293   7.833  69.091  1.00  0.00    -0.215 C  
HETATM   15  O   UNL     2     -11.400   7.199  68.472  1.00  0.00    -0.462 OA 
HETATM   16  H   UNL     2     -11.336   7.282  67.527  1.00  0.00     0.000 HD 
BRANCH  14  17
HETATM   17  C   UNL     2      -8.929   7.553  68.431  1.00  0.00    -0.128 C  
HETATM   18  H   UNL     2      -7.214   8.484  68.348  1.00  0.00     0.000 HD 
HETATM   19  O   UNL     2      -8.055   8.657  68.755  1.00  0.00    -0.112 OA 
BRANCH  17  20
HETATM   20  C   UNL     2      -8.288   6.206  68.766  1.00  0.00    -0.111 C  
HETATM   21  O   UNL     2      -9.280   5.229  69.152  1.00  0.00    -0.111 OA 
HETATM   22  C   UNL     2      -7.542   5.714  67.494  1.00  0.00    -0.089 C  
HETATM   23  H   UNL     2      -8.882   4.392  69.360  1.00  0.00     0.000 HD 
HETATM   24  O   UNL     2      -6.937   6.624  66.866  1.00  0.00    -0.063 OA 
HETATM   25  O   UNL     2      -7.681   4.481  67.277  1.00  0.00    -0.088 OA 
ENDBRANCH  17  20
ENDBRANCH  14  17
ENDBRANCH  11  14
ENDBRANCH   8  11
ENDBRANCH   5   8
BRANCH   6  26
HETATM   26  C   UNL     3     -10.409  15.487  67.685  1.00  0.00    -0.269 C  
HETATM   27  H   UNL     3     -11.661  14.728  68.926  1.00  0.00     0.000 HD 
HETATM   28  O   UNL     3     -11.729  15.121  68.064  1.00  0.00    -0.345 OA 
BRANCH  26  29
HETATM   29  C   UNL     3      -9.411  14.300  67.713  1.00  0.00    -0.216 C  
HETATM   30  O   UNL     3      -9.581  13.493  66.465  1.00  0.00    -0.269 OA 
HETATM   31  H   UNL     3      -8.970  12.766  66.483  1.00  0.00     0.000 HD 
BRANCH  29  32
HETATM   32  C   UNL     3      -7.926  14.717  67.639  1.00  0.00    -0.179 C  
HETATM   33  H   UNL     3      -6.243  13.782  67.223  1.00  0.00     0.000 HD 
HETATM   34  O   UNL     3      -7.156  13.526  67.270  1.00  0.00    -0.130 OA 
BRANCH  32  35
HETATM   35  C   UNL     3      -7.222  15.655  68.630  1.00  0.00    -0.129 C  
HETATM   36  H   UNL     3      -6.061  15.400  70.157  1.00  0.00     0.000 HD 
HETATM   37  O   UNL     3      -6.498  14.820  69.543  1.00  0.00    -0.119 OA 
BRANCH  35  38
HETATM   38  C   UNL     3      -6.348  16.752  68.032  1.00  0.00    -0.143 C  
HETATM   39  C   UNL     3      -7.076  18.121  68.086  1.00  0.00    -0.235 C  
HETATM   40  O   UNL     3      -6.020  16.459  66.660  1.00  0.00    -0.310 OA 
HETATM   41  O   UNL     3      -8.203  18.131  68.672  1.00  0.00    -0.308 OA 
HETATM   42  O   UNL     3      -6.564  18.998  67.336  1.00  0.00    -0.196 OA 
HETATM   43  H   UNL     3      -5.475  17.143  66.287  1.00  0.00     0.000 HD 
ENDBRANCH  35  38
ENDBRANCH  32  35
ENDBRANCH  29  32
ENDBRANCH  26  29
ENDBRANCH   6  26
TORSDOF 10
ENDMDL
MODEL      416
REMARK 921   NORMALIZED FREE ENERGY PREDICTED BY IDOCK:   -3.84 KCAL/MOL
REMARK 922        TOTAL FREE ENERGY PREDICTED BY IDOCK:   -8.58 KCAL/MOL
REMARK 923 INTER-LIGAND FREE ENERGY PREDICTED BY IDOCK:   -7.44 KCAL/MOL
REMARK 924 INTRA-LIGAND FREE ENERGY PREDICTED BY IDOCK:   -1.14 KCAL/MOL
REMARK 927      BINDING AFFINITY PREDICTED BY RF-SCORE:    0.00 PKD
ROOT
HETATM    1 CA   UNL     1     -12.052   9.765  67.877  1.00  0.00    -0.526 Ca 
HETATM    2  O   UNL     2      -9.114   8.510  72.644  1.00  0.00    -0.253 OA 
HETATM    3  O   UNL     3     -12.506  14.399  63.650  1.00  0.00    -1.066 OA 
HETATM    4  H   UNL     2      -9.762   8.680  73.318  1.00  0.00     0.000 HD 
HETATM    5  C   UNL     2      -9.673   8.843  71.374  1.00  0.00    -0.300 C  
HETATM    6  C   UNL     3     -13.121  13.911  64.839  1.00  0.00     0.127 C  
HETATM    7  H   UNL     3     -13.159  14.522  62.970  1.00  0.00     0.000 HD 
ENDROOT
BRANCH   5   8
HETATM    8  C   UNL     2      -8.621   8.567  70.278  1.00  0.00    -0.137 C  
HETATM    9  O   UNL     2      -8.220   7.205  70.383  1.00  0.00    -0.122 OA 
HETATM   10  H   UNL     2      -7.573   7.036  69.708  1.00  0.00     0.000 HD 
BRANCH   8  11
HETATM   11  C   UNL     2      -9.208   8.785  68.874  1.00  0.00    -0.141 C  
HETATM   12  H   UNL     2      -8.837   9.899  67.243  1.00  0.00     0.000 HD 
HETATM   13  O   UNL     2      -8.475   9.764  68.111  1.00  0.00    -0.113 OA 
BRANCH  11  14
HETATM   14  C   UNL     2      -9.500   7.563  67.969  1.00  0.00    -0.142 C  
HETATM   15  O   UNL     2     -10.354   6.653  68.643  1.00  0.00    -0.164 OA 
HETATM   16  H   UNL     2     -10.533   5.902  68.087  1.00  0.00     0.000 HD 
BRANCH  14  17
HETATM   17  C   UNL     2      -8.316   6.916  67.224  1.00  0.00    -0.121 C  
HETATM   18  H   UNL     2      -6.382   7.187  67.198  1.00  0.00     0.000 HD 
HETATM   19  O   UNL     2      -7.112   7.586  67.658  1.00  0.00    -0.080 OA 
BRANCH  17  20
HETATM   20  C   UNL     2      -8.197   5.398  67.348  1.00  0.00    -0.100 C  
HETATM   21  O   UNL     2      -8.369   4.963  68.714  1.00  0.00    -0.083 OA 
HETATM   22  C   UNL     2      -9.304   4.767  66.457  1.00  0.00    -0.144 C  
HETATM   23  H   UNL     2      -8.295   4.019  68.791  1.00  0.00     0.000 HD 
HETATM   24  O   UNL     2      -9.478   5.354  65.356  1.00  0.00    -0.075 OA 
HETATM   25  O   UNL     2      -9.874   3.779  66.992  1.00  0.00    -0.179 OA 
ENDBRANCH  17  20
ENDBRANCH  14  17
ENDBRANCH  11  14
ENDBRANCH   8  11
ENDBRANCH   5   8
BRANCH   6  26
HETATM   26  C   UNL     3     -12.066  13.712  65.937  1.00  0.00    -0.439 C  
HETATM   27  H   UNL     3     -11.277  12.185  66.790  1.00  0.00     0.000 HD 
HETATM   28  O   UNL     3     -11.930  12.308  66.111  1.00  0.00    -0.579 OA 
BRANCH  26  29
HETATM   29  C   UNL     3     -10.727  14.421  65.602  1.00  0.00    -0.320 C  
HETATM   30  O   UNL     3     -10.998  15.863  65.316  1.00  0.00    -0.361 OA 
HETATM   31  H   UNL     3     -10.178  16.297  65.110  1.00  0.00     0.000 HD 
BRANCH  29  32
HETATM   32  C   UNL     3      -9.736  14.498  66.784  1.00  0.00    -0.260 C  
HETATM   33  H   UNL     3      -8.716  13.175  67.827  1.00  0.00     0.000 HD 
HETATM   34  O   UNL     3      -9.326  13.127  67.100  1.00  0.00    -0.218 OA 
BRANCH  32  35
HETATM   35  C   UNL     3      -9.886  15.421  68.003  1.00  0.00    -0.216 C  
HETATM   36  H   UNL     3     -10.095  15.141  69.905  1.00  0.00     0.000 HD 
HETATM   37  O   UNL     3     -10.003  14.570  69.151  1.00  0.00    -0.197 OA 
BRANCH  35  38
HETATM   38  C   UNL     3      -8.820  16.495  68.185  1.00  0.00    -0.203 C  
HETATM   39  C   UNL     3      -9.333  17.867  67.675  1.00  0.00    -0.258 C  
HETATM   40  O   UNL     3      -7.619  16.156  67.462  1.00  0.00    -0.129 OA 
HETATM   41  O   UNL     3     -10.541  17.900  67.282  1.00  0.00    -0.373 OA 
HETATM   42  O   UNL     3      -8.417  18.717  67.497  1.00  0.00    -0.266 OA 
HETATM   43  H   UNL     3      -6.954  16.826  67.575  1.00  0.00     0.000 HD 
ENDBRANCH  35  38
ENDBRANCH  32  35
ENDBRANCH  29  32
ENDBRANCH  26  29
ENDBRANCH   6  26
TORSDOF 10
ENDMDL
MODEL      417
REMARK 921   NORMALIZED FREE ENERGY PREDICTED BY IDOCK:   -3.83 KCAL/MOL
REMARK 922        TOTAL FREE ENERGY PREDICTED BY IDOCK:   -8.57 KCAL/MOL
REMARK 923 INTER-LIGAND FREE ENERGY PREDICTED BY IDOCK:   -6.51 KCAL/MOL
REMARK 924 INTRA-LIGAND FREE ENERGY PREDICTED BY IDOCK:   -2.07 KCAL/MOL
REMARK 927      BINDING AFFINITY PREDICTED BY RF-SCORE:    0.00 PKD
ROOT
HETATM    1 CA   UNL     1     -11.317   9.559  68.472  1.00  0.00    -0.311 Ca 
HETATM    2  O   UNL     2     -12.897  13.466  64.578  1.00  0.00    -0.653 OA 
HETATM    3  O   UNL     3      -6.053   7.141  70.921  1.00  0.00    -0.035 OA 
HETATM    4  H   UNL     2     -13.145  12.916  63.844  1.00  0.00     0.000 HD 
HETATM    5  C   UNL     2     -12.407  12.638  65.631  1.00  0.00    -0.323 C  
HETATM    6  C   UNL     3      -7.033   6.891  69.917  1.00  0.00    -0.062 C  
HETATM    7  H   UNL     3      -5.952   6.379  71.478  1.00  0.00     0.000 HD 
ENDROOT
BRANCH   5   8
HETATM    8  C   UNL     2     -12.004  13.531  66.824  1.00  0.00    -0.404 C  
HETATM    9  O   UNL     2     -12.319  12.834  68.024  1.00  0.00    -0.138 OA 
HETATM   10  H   UNL     2     -12.072  13.384  68.758  1.00  0.00     0.000 HD 
BRANCH   8  11
HETATM   11  C   UNL     2     -10.494  13.818  66.821  1.00  0.00    -0.270 C  
HETATM   12  H   UNL     2      -8.909  13.536  65.620  1.00  0.00     0.000 HD 
HETATM   13  O   UNL     2      -9.842  13.358  65.621  1.00  0.00    -0.248 OA 
BRANCH  11  14
HETATM   14  C   UNL     2      -9.986  15.244  67.151  1.00  0.00    -0.233 C  
HETATM   15  O   UNL     2      -9.132  15.706  66.117  1.00  0.00    -0.312 OA 
HETATM   16  H   UNL     2      -8.820  16.581  66.319  1.00  0.00     0.000 HD 
BRANCH  14  17
HETATM   17  C   UNL     2      -9.487  15.521  68.581  1.00  0.00    -0.204 C  
HETATM   18  H   UNL     2      -7.865  16.282  69.359  1.00  0.00     0.000 HD 
HETATM   19  O   UNL     2      -8.173  16.111  68.476  1.00  0.00    -0.168 OA 
BRANCH  17  20
HETATM   20  C   UNL     2     -10.415  16.355  69.464  1.00  0.00    -0.301 C  
HETATM   21  O   UNL     2     -10.987  17.462  68.733  1.00  0.00    -0.264 OA 
HETATM   22  C   UNL     2     -11.551  15.420  69.965  1.00  0.00    -0.321 C  
HETATM   23  H   UNL     2     -11.563  17.981  69.282  1.00  0.00     0.000 HD 
HETATM   24  O   UNL     2     -11.166  14.261  70.278  1.00  0.00    -0.144 OA 
HETATM   25  O   UNL     2     -12.688  15.963  69.955  1.00  0.00    -0.253 OA 
ENDBRANCH  17  20
ENDBRANCH  14  17
ENDBRANCH  11  14
ENDBRANCH   8  11
ENDBRANCH   5   8
BRANCH   6  26
HETATM   26  C   UNL     3      -7.196   8.123  69.016  1.00  0.00    -0.074 C  
HETATM   27  H   UNL     3      -5.988   9.401  68.245  1.00  0.00     0.000 HD 
HETATM   28  O   UNL     3      -5.888   8.638  68.803  1.00  0.00    -0.042 OA 
BRANCH  26  29
HETATM   29  C   UNL     3      -7.947   7.794  67.699  1.00  0.00    -0.124 C  
HETATM   30  O   UNL     3      -9.402   8.089  67.883  1.00  0.00    -0.137 OA 
HETATM   31  H   UNL     3      -9.862   7.888  67.077  1.00  0.00     0.000 HD 
BRANCH  29  32
HETATM   32  C   UNL     3      -7.572   8.705  66.510  1.00  0.00    -0.088 C  
HETATM   33  H   UNL     3      -7.201  10.627  66.299  1.00  0.00     0.000 HD 
HETATM   34  O   UNL     3      -7.432  10.067  67.030  1.00  0.00    -0.091 OA 
BRANCH  32  35
HETATM   35  C   UNL     3      -8.181   8.614  65.102  1.00  0.00    -0.151 C  
HETATM   36  H   UNL     3      -8.826   7.171  63.988  1.00  0.00     0.000 HD 
HETATM   37  O   UNL     3      -8.450   7.227  64.858  1.00  0.00    -0.064 OA 
BRANCH  35  38
HETATM   38  C   UNL     3      -9.393   9.496  64.822  1.00  0.00    -0.169 C  
HETATM   39  C   UNL     3      -9.226  10.242  63.472  1.00  0.00    -0.289 C  
HETATM   40  O   UNL     3      -9.573  10.473  65.867  1.00  0.00    -0.185 OA 
HETATM   41  O   UNL     3      -8.189   9.949  62.797  1.00  0.00    -0.129 OA 
HETATM   42  O   UNL     3     -10.018  11.213  63.327  1.00  0.00    -0.320 OA 
HETATM   43  H   UNL     3     -10.328  11.022  65.692  1.00  0.00     0.000 HD 
ENDBRANCH  35  38
ENDBRANCH  32  35
ENDBRANCH  29  32
ENDBRANCH  26  29
ENDBRANCH   6  26
TORSDOF 10
ENDMDL
MODEL      418
REMARK 921   NORMALIZED FREE ENERGY PREDICTED BY IDOCK:   -3.83 KCAL/MOL
REMARK 922        TOTAL FREE ENERGY PREDICTED BY IDOCK:   -8.57 KCAL/MOL
REMARK 923 INTER-LIGAND FREE ENERGY PREDICTED BY IDOCK:   -7.51 KCAL/MOL
REMARK 924 INTRA-LIGAND FREE ENERGY PREDICTED BY IDOCK:   -1.06 KCAL/MOL
REMARK 927      BINDING AFFINITY PREDICTED BY RF-SCORE:    0.00 PKD
ROOT
HETATM    1 CA   UNL     1      -8.663  14.303  65.639  1.00  0.00    -0.447 Ca 
HETATM    2  O   UNL     2      -5.354  18.216  68.218  1.00  0.00    -0.161 OA 
HETATM    3  O   UNL     3     -10.575   8.374  66.504  1.00  0.00    -0.338 OA 
HETATM    4  H   UNL     2      -4.567  18.184  67.685  1.00  0.00     0.000 HD 
HETATM    5  C   UNL     2      -6.274  17.236  67.743  1.00  0.00    -0.148 C  
HETATM    6  C   UNL     3      -9.588   9.138  65.815  1.00  0.00    -0.253 C  
HETATM    7  H   UNL     3     -11.028   7.801  65.897  1.00  0.00     0.000 HD 
ENDROOT
BRANCH   5   8
HETATM    8  C   UNL     2      -7.551  17.288  68.608  1.00  0.00    -0.260 C  
HETATM    9  O   UNL     2      -7.369  18.289  69.604  1.00  0.00     0.099 OA 
HETATM   10  H   UNL     2      -8.155  18.321  70.137  1.00  0.00     0.000 HD 
BRANCH   8  11
HETATM   11  C   UNL     2      -8.780  17.670  67.767  1.00  0.00    -0.232 C  
HETATM   12  H   UNL     2      -9.449  19.238  66.703  1.00  0.00     0.000 HD 
HETATM   13  O   UNL     2      -8.689  19.002  67.223  1.00  0.00    -0.273 OA 
BRANCH  11  14
HETATM   14  C   UNL     2      -9.276  16.710  66.658  1.00  0.00    -0.253 C  
HETATM   15  O   UNL     2      -8.334  16.663  65.599  1.00  0.00    -0.280 OA 
HETATM   16  H   UNL     2      -8.639  16.073  64.918  1.00  0.00     0.000 HD 
BRANCH  14  17
HETATM   17  C   UNL     2     -10.749  16.815  66.217  1.00  0.00    -0.106 C  
HETATM   18  H   UNL     2     -11.731  17.893  64.917  1.00  0.00     0.000 HD 
HETATM   19  O   UNL     2     -10.822  17.828  65.189  1.00  0.00    -0.671 OA 
BRANCH  17  20
HETATM   20  C   UNL     2     -11.410  15.510  65.775  1.00  0.00    -0.039 C  
HETATM   21  O   UNL     2     -10.625  14.834  64.768  1.00  0.00    -0.504 OA 
HETATM   22  C   UNL     2     -11.539  14.603  67.031  1.00  0.00    -0.371 C  
HETATM   23  H   UNL     2     -11.037  14.023  64.493  1.00  0.00     0.000 HD 
HETATM   24  O   UNL     2     -11.868  15.217  68.080  1.00  0.00    -0.333 OA 
HETATM   25  O   UNL     2     -11.267  13.393  66.804  1.00  0.00    -0.296 OA 
ENDBRANCH  17  20
ENDBRANCH  14  17
ENDBRANCH  11  14
ENDBRANCH   8  11
ENDBRANCH   5   8
BRANCH   6  26
HETATM   26  C   UNL     3      -8.855  10.064  66.796  1.00  0.00    -0.132 C  
HETATM   27  H   UNL     3      -8.036  11.794  66.663  1.00  0.00     0.000 HD 
HETATM   28  O   UNL     3      -8.489  11.221  66.056  1.00  0.00    -0.167 OA 
BRANCH  26  29
HETATM   29  C   UNL     3      -9.707  10.383  68.053  1.00  0.00    -0.150 C  
HETATM   30  O   UNL     3     -11.126   9.987  67.792  1.00  0.00    -0.401 OA 
HETATM   31  H   UNL     3     -11.647  10.182  68.561  1.00  0.00     0.000 HD 
BRANCH  29  32
HETATM   32  C   UNL     3      -9.350   9.536  69.293  1.00  0.00    -0.169 C  
HETATM   33  H   UNL     3      -7.670   8.897  70.099  1.00  0.00     0.000 HD 
HETATM   34  O   UNL     3      -7.890   9.417  69.336  1.00  0.00    -0.078 OA 
BRANCH  32  35
HETATM   35  C   UNL     3     -10.110   8.284  69.757  1.00  0.00    -0.197 C  
HETATM   36  H   UNL     3     -10.281   6.473  69.097  1.00  0.00     0.000 HD 
HETATM   37  O   UNL     3      -9.811   7.248  68.811  1.00  0.00    -0.156 OA 
BRANCH  35  38
HETATM   38  C   UNL     3      -9.880   7.836  71.196  1.00  0.00    -0.169 C  
HETATM   39  C   UNL     3     -11.135   8.118  72.063  1.00  0.00    -0.306 C  
HETATM   40  O   UNL     3      -8.756   8.526  71.777  1.00  0.00    -0.168 OA 
HETATM   41  O   UNL     3     -12.147   8.579  71.448  1.00  0.00    -0.291 OA 
HETATM   42  O   UNL     3     -10.914   8.075  73.305  1.00  0.00    -0.257 OA 
HETATM   43  H   UNL     3      -8.612   8.247  72.674  1.00  0.00     0.000 HD 
ENDBRANCH  35  38
ENDBRANCH  32  35
ENDBRANCH  29  32
ENDBRANCH  26  29
ENDBRANCH   6  26
TORSDOF 10
ENDMDL
MODEL      419
REMARK 921   NORMALIZED FREE ENERGY PREDICTED BY IDOCK:   -3.81 KCAL/MOL
REMARK 922        TOTAL FREE ENERGY PREDICTED BY IDOCK:   -8.54 KCAL/MOL
REMARK 923 INTER-LIGAND FREE ENERGY PREDICTED BY IDOCK:   -9.18 KCAL/MOL
REMARK 924 INTRA-LIGAND FREE ENERGY PREDICTED BY IDOCK:    0.64 KCAL/MOL
REMARK 927      BINDING AFFINITY PREDICTED BY RF-SCORE:    0.00 PKD
ROOT
HETATM    1 CA   UNL     1     -10.121  10.539  70.632  1.00  0.00    -0.357 Ca 
HETATM    2  O   UNL     2     -12.289  14.674  67.295  1.00  0.00    -0.554 OA 
HETATM    3  O   UNL     3      -6.011   5.794  70.264  1.00  0.00    -0.023 OA 
HETATM    4  H   UNL     2     -13.146  14.321  67.085  1.00  0.00     0.000 HD 
HETATM    5  C   UNL     2     -11.577  13.719  68.082  1.00  0.00    -0.335 C  
HETATM    6  C   UNL     3      -7.406   6.070  70.170  1.00  0.00    -0.078 C  
HETATM    7  H   UNL     3      -5.857   5.091  70.884  1.00  0.00     0.000 HD 
ENDROOT
BRANCH   5   8
HETATM    8  C   UNL     2     -10.185  14.292  68.423  1.00  0.00    -0.245 C  
HETATM    9  O   UNL     2      -9.380  13.229  68.921  1.00  0.00    -0.394 OA 
HETATM   10  H   UNL     2      -8.523  13.582  69.131  1.00  0.00     0.000 HD 
BRANCH   8  11
HETATM   11  C   UNL     2      -9.496  14.867  67.175  1.00  0.00    -0.225 C  
HETATM   12  H   UNL     2      -7.868  14.509  66.053  1.00  0.00     0.000 HD 
HETATM   13  O   UNL     2      -8.294  14.154  66.825  1.00  0.00    -0.104 OA 
BRANCH  11  14
HETATM   14  C   UNL     2     -10.324  15.112  65.889  1.00  0.00    -0.327 C  
HETATM   15  O   UNL     2     -10.165  14.023  64.994  1.00  0.00    -0.431 OA 
HETATM   16  H   UNL     2     -10.673  14.174  64.205  1.00  0.00     0.000 HD 
BRANCH  14  17
HETATM   17  C   UNL     2     -10.252  16.506  65.238  1.00  0.00    -0.031 C  
HETATM   18  H   UNL     2     -11.292  17.459  63.887  1.00  0.00     0.000 HD 
HETATM   19  O   UNL     2     -11.337  16.598  64.288  1.00  0.00    -1.116 OA 
BRANCH  17  20
HETATM   20  C   UNL     2     -10.239  17.694  66.200  1.00  0.00    -0.343 C  
HETATM   21  O   UNL     2     -11.033  17.430  67.378  1.00  0.00    -0.225 OA 
HETATM   22  C   UNL     2      -8.762  17.945  66.614  1.00  0.00    -0.262 C  
HETATM   23  H   UNL     2     -11.025  18.169  67.975  1.00  0.00     0.000 HD 
HETATM   24  O   UNL     2      -7.933  17.815  65.674  1.00  0.00    -0.532 OA 
HETATM   25  O   UNL     2      -8.624  18.215  67.837  1.00  0.00    -0.245 OA 
ENDBRANCH  17  20
ENDBRANCH  14  17
ENDBRANCH  11  14
ENDBRANCH   8  11
ENDBRANCH   5   8
BRANCH   6  26
HETATM   26  C   UNL     3      -7.654   7.205  69.167  1.00  0.00    -0.099 C  
HETATM   27  H   UNL     3      -8.365   7.303  67.387  1.00  0.00     0.000 HD 
HETATM   28  O   UNL     3      -8.210   6.600  68.007  1.00  0.00    -0.115 OA 
BRANCH  26  29
HETATM   29  C   UNL     3      -8.546   8.329  69.759  1.00  0.00    -0.129 C  
HETATM   30  O   UNL     3      -8.631   9.452  68.776  1.00  0.00    -0.123 OA 
HETATM   31  H   UNL     3      -9.176  10.139  69.139  1.00  0.00     0.000 HD 
BRANCH  29  32
HETATM   32  C   UNL     3     -10.027   7.934  69.940  1.00  0.00    -0.192 C  
HETATM   33  H   UNL     3     -11.728   8.530  69.145  1.00  0.00     0.000 HD 
HETATM   34  O   UNL     3     -10.817   8.773  69.034  1.00  0.00    -0.156 OA 
BRANCH  32  35
HETATM   35  C   UNL     3     -10.703   7.631  71.287  1.00  0.00    -0.228 C  
HETATM   36  H   UNL     3     -10.754   8.505  73.011  1.00  0.00     0.000 HD 
HETATM   37  O   UNL     3     -10.336   8.692  72.179  1.00  0.00    -0.316 OA 
BRANCH  35  38
HETATM   38  C   UNL     3     -12.209   7.392  71.260  1.00  0.00    -0.341 C  
HETATM   39  C   UNL     3     -12.977   8.714  71.520  1.00  0.00    -0.312 C  
HETATM   40  O   UNL     3     -12.596   6.431  72.262  1.00  0.00    -0.547 OA 
HETATM   41  O   UNL     3     -12.265   9.762  71.625  1.00  0.00    -0.371 OA 
HETATM   42  O   UNL     3     -14.189   8.545  71.827  1.00  0.00    -0.418 OA 
HETATM   43  H   UNL     3     -13.534   6.282  72.245  1.00  0.00     0.000 HD 
ENDBRANCH  35  38
ENDBRANCH  32  35
ENDBRANCH  29  32
ENDBRANCH  26  29
ENDBRANCH   6  26
TORSDOF 10
ENDMDL
MODEL      420
REMARK 921   NORMALIZED FREE ENERGY PREDICTED BY IDOCK:   -3.81 KCAL/MOL
REMARK 922        TOTAL FREE ENERGY PREDICTED BY IDOCK:   -8.53 KCAL/MOL
REMARK 923 INTER-LIGAND FREE ENERGY PREDICTED BY IDOCK:   -6.77 KCAL/MOL
REMARK 924 INTRA-LIGAND FREE ENERGY PREDICTED BY IDOCK:   -1.77 KCAL/MOL
REMARK 927      BINDING AFFINITY PREDICTED BY RF-SCORE:    0.00 PKD
ROOT
HETATM    1 CA   UNL     1      -8.386  12.049  68.488  1.00  0.00    -0.121 Ca 
HETATM    2  O   UNL     2     -12.796  13.617  65.170  1.00  0.00    -0.687 OA 
HETATM    3  O   UNL     3      -6.633   7.205  72.097  1.00  0.00    -0.055 OA 
HETATM    4  H   UNL     2     -13.247  14.237  65.731  1.00  0.00     0.000 HD 
HETATM    5  C   UNL     2     -11.688  13.070  65.884  1.00  0.00    -0.394 C  
HETATM    6  C   UNL     3      -7.251   8.486  72.174  1.00  0.00    -0.072 C  
HETATM    7  H   UNL     3      -5.910   7.152  72.710  1.00  0.00     0.000 HD 
ENDROOT
BRANCH   5   8
HETATM    8  C   UNL     2     -10.956  12.062  64.973  1.00  0.00    -0.306 C  
HETATM    9  O   UNL     2     -10.165  12.798  64.046  1.00  0.00    -0.505 OA 
HETATM   10  H   UNL     2      -9.714  12.178  63.485  1.00  0.00     0.000 HD 
BRANCH   8  11
HETATM   11  C   UNL     2     -10.018  11.155  65.785  1.00  0.00    -0.245 C  
HETATM   12  H   UNL     2      -9.599  10.759  67.710  1.00  0.00     0.000 HD 
HETATM   13  O   UNL     2     -10.179  11.320  67.208  1.00  0.00    -0.186 OA 
BRANCH  11  14
HETATM   14  C   UNL     2      -9.949   9.642  65.462  1.00  0.00    -0.209 C  
HETATM   15  O   UNL     2     -10.615   8.899  66.470  1.00  0.00    -0.188 OA 
HETATM   16  H   UNL     2     -10.573   7.970  66.272  1.00  0.00     0.000 HD 
BRANCH  14  17
HETATM   17  C   UNL     2      -8.596   9.060  65.010  1.00  0.00    -0.181 C  
HETATM   18  H   UNL     2      -7.047   9.749  64.041  1.00  0.00     0.000 HD 
HETATM   19  O   UNL     2      -7.882  10.108  64.319  1.00  0.00    -0.145 OA 
BRANCH  17  20
HETATM   20  C   UNL     2      -7.744   8.420  66.106  1.00  0.00    -0.097 C  
HETATM   21  O   UNL     2      -8.071   8.950  67.409  1.00  0.00    -0.107 OA 
HETATM   22  C   UNL     2      -8.023   6.890  66.081  1.00  0.00    -0.110 C  
HETATM   23  H   UNL     2      -7.541   8.552  68.089  1.00  0.00     0.000 HD 
HETATM   24  O   UNL     2      -8.131   6.403  64.925  1.00  0.00    -0.121 OA 
HETATM   25  O   UNL     2      -8.122   6.382  67.230  1.00  0.00    -0.111 OA 
ENDBRANCH  17  20
ENDBRANCH  14  17
ENDBRANCH  11  14
ENDBRANCH   8  11
ENDBRANCH   5   8
BRANCH   6  26
HETATM   26  C   UNL     3      -8.420   8.572  71.183  1.00  0.00    -0.156 C  
HETATM   27  H   UNL     3      -9.139   7.405  69.840  1.00  0.00     0.000 HD 
HETATM   28  O   UNL     3      -8.416   7.351  70.453  1.00  0.00    -0.138 OA 
BRANCH  26  29
HETATM   29  C   UNL     3      -9.771   8.860  71.889  1.00  0.00    -0.279 C  
HETATM   30  O   UNL     3     -10.682   9.558  70.930  1.00  0.00    -0.285 OA 
HETATM   31  H   UNL     3     -11.509   9.735  71.363  1.00  0.00     0.000 HD 
BRANCH  29  32
HETATM   32  C   UNL     3     -10.580   7.596  72.252  1.00  0.00    -0.246 C  
HETATM   33  H   UNL     3     -12.425   7.254  72.850  1.00  0.00     0.000 HD 
HETATM   34  O   UNL     3     -11.927   8.032  72.627  1.00  0.00    -0.356 OA 
BRANCH  32  35
HETATM   35  C   UNL     3     -10.042   6.406  73.062  1.00  0.00    -0.189 C  
HETATM   36  H   UNL     3      -8.964   6.221  74.658  1.00  0.00     0.000 HD 
HETATM   37  O   UNL     3      -9.297   6.957  74.156  1.00  0.00    -0.198 OA 
BRANCH  35  38
HETATM   38  C   UNL     3     -11.063   5.371  73.520  1.00  0.00    -0.216 C  
HETATM   39  C   UNL     3     -10.455   3.945  73.473  1.00  0.00    -0.179 C  
HETATM   40  O   UNL     3     -12.236   5.399  72.682  1.00  0.00    -0.354 OA 
HETATM   41  O   UNL     3      -9.226   3.872  73.156  1.00  0.00    -0.105 OA 
HETATM   42  O   UNL     3     -11.316   3.024  73.526  1.00  0.00    -0.223 OA 
HETATM   43  H   UNL     3     -12.872   4.753  72.967  1.00  0.00     0.000 HD 
ENDBRANCH  35  38
ENDBRANCH  32  35
ENDBRANCH  29  32
ENDBRANCH  26  29
ENDBRANCH   6  26
TORSDOF 10
ENDMDL
MODEL      421
REMARK 921   NORMALIZED FREE ENERGY PREDICTED BY IDOCK:   -3.80 KCAL/MOL
REMARK 922        TOTAL FREE ENERGY PREDICTED BY IDOCK:   -8.52 KCAL/MOL
REMARK 923 INTER-LIGAND FREE ENERGY PREDICTED BY IDOCK:   -6.57 KCAL/MOL
REMARK 924 INTRA-LIGAND FREE ENERGY PREDICTED BY IDOCK:   -1.95 KCAL/MOL
REMARK 927      BINDING AFFINITY PREDICTED BY RF-SCORE:    0.00 PKD
ROOT
HETATM    1 CA   UNL     1      -7.498  11.049  67.108  1.00  0.00    -0.088 Ca 
HETATM    2  O   UNL     2      -6.686   5.579  68.641  1.00  0.00    -0.053 OA 
HETATM    3  O   UNL     3     -12.157  14.808  65.181  1.00  0.00    -0.328 OA 
HETATM    4  H   UNL     2      -6.273   5.222  67.863  1.00  0.00     0.000 HD 
HETATM    5  C   UNL     2      -7.022   6.945  68.398  1.00  0.00    -0.080 C  
HETATM    6  C   UNL     3     -11.091  14.007  64.679  1.00  0.00    -0.382 C  
HETATM    7  H   UNL     3     -12.103  15.687  64.824  1.00  0.00     0.000 HD 
ENDROOT
BRANCH   5   8
HETATM    8  C   UNL     2      -7.693   7.526  69.661  1.00  0.00    -0.100 C  
HETATM    9  O   UNL     2      -7.170   8.832  69.878  1.00  0.00    -0.049 OA 
HETATM   10  H   UNL     2      -7.584   9.190  70.655  1.00  0.00     0.000 HD 
BRANCH   8  11
HETATM   11  C   UNL     2      -9.215   7.645  69.480  1.00  0.00    -0.150 C  
HETATM   12  H   UNL     2     -10.595   7.301  68.060  1.00  0.00     0.000 HD 
HETATM   13  O   UNL     2      -9.654   7.227  68.172  1.00  0.00    -0.139 OA 
BRANCH  11  14
HETATM   14  C   UNL     2     -10.162   7.036  70.543  1.00  0.00    -0.196 C  
HETATM   15  O   UNL     2     -10.500   8.015  71.512  1.00  0.00    -0.209 OA 
HETATM   16  H   UNL     2     -11.081   7.641  72.164  1.00  0.00     0.000 HD 
BRANCH  14  17
HETATM   17  C   UNL     2      -9.809   5.649  71.114  1.00  0.00    -0.177 C  
HETATM   18  H   UNL     2      -8.649   4.178  70.563  1.00  0.00     0.000 HD 
HETATM   19  O   UNL     2      -8.866   5.034  70.210  1.00  0.00    -0.110 OA 
BRANCH  17  20
HETATM   20  C   UNL     2      -9.307   5.628  72.558  1.00  0.00    -0.142 C  
HETATM   21  O   UNL     2      -8.515   6.798  72.860  1.00  0.00    -0.117 OA 
HETATM   22  C   UNL     2     -10.554   5.590  73.486  1.00  0.00    -0.270 C  
HETATM   23  H   UNL     2      -8.203   6.784  73.757  1.00  0.00     0.000 HD 
HETATM   24  O   UNL     2     -11.483   4.846  73.073  1.00  0.00    -0.293 OA 
HETATM   25  O   UNL     2     -10.447   6.332  74.499  1.00  0.00    -0.268 OA 
ENDBRANCH  17  20
ENDBRANCH  14  17
ENDBRANCH  11  14
ENDBRANCH   8  11
ENDBRANCH   5   8
BRANCH   6  26
HETATM   26  C   UNL     3     -11.179  12.587  65.255  1.00  0.00    -0.304 C  
HETATM   27  H   UNL     3     -12.576  11.534  66.044  1.00  0.00     0.000 HD 
HETATM   28  O   UNL     3     -12.522  12.413  65.687  1.00  0.00    -0.640 OA 
BRANCH  26  29
HETATM   29  C   UNL     3     -10.717  11.510  64.238  1.00  0.00    -0.355 C  
HETATM   30  O   UNL     3      -9.738  12.124  63.290  1.00  0.00    -0.588 OA 
HETATM   31  H   UNL     3      -9.456  11.465  62.667  1.00  0.00     0.000 HD 
BRANCH  29  32
HETATM   32  C   UNL     3      -9.898  10.359  64.861  1.00  0.00    -0.334 C  
HETATM   33  H   UNL     3      -9.448   9.814  66.700  1.00  0.00     0.000 HD 
HETATM   34  O   UNL     3      -9.952  10.522  66.317  1.00  0.00    -0.204 OA 
BRANCH  32  35
HETATM   35  C   UNL     3      -8.556   9.838  64.323  1.00  0.00    -0.188 C  
HETATM   36  H   UNL     3      -6.743  10.512  64.303  1.00  0.00     0.000 HD 
HETATM   37  O   UNL     3      -7.573  10.834  64.636  1.00  0.00     0.069 OA 
BRANCH  35  38
HETATM   38  C   UNL     3      -8.131   8.445  64.774  1.00  0.00    -0.155 C  
HETATM   39  C   UNL     3      -7.720   7.578  63.556  1.00  0.00    -0.126 C  
HETATM   40  O   UNL     3      -9.204   7.779  65.470  1.00  0.00    -0.393 OA 
HETATM   41  O   UNL     3      -7.718   8.165  62.428  1.00  0.00    -0.110 OA 
HETATM   42  O   UNL     3      -7.666   6.342  63.807  1.00  0.00    -0.095 OA 
HETATM   43  H   UNL     3      -8.939   6.911  65.751  1.00  0.00     0.000 HD 
ENDBRANCH  35  38
ENDBRANCH  32  35
ENDBRANCH  29  32
ENDBRANCH  26  29
ENDBRANCH   6  26
TORSDOF 10
ENDMDL
MODEL      422
REMARK 921   NORMALIZED FREE ENERGY PREDICTED BY IDOCK:   -3.79 KCAL/MOL
REMARK 922        TOTAL FREE ENERGY PREDICTED BY IDOCK:   -8.51 KCAL/MOL
REMARK 923 INTER-LIGAND FREE ENERGY PREDICTED BY IDOCK:   -8.06 KCAL/MOL
REMARK 924 INTRA-LIGAND FREE ENERGY PREDICTED BY IDOCK:   -0.44 KCAL/MOL
REMARK 927      BINDING AFFINITY PREDICTED BY RF-SCORE:    0.00 PKD
ROOT
HETATM    1 CA   UNL     1     -11.486  11.552  68.398  1.00  0.00    -0.178 Ca 
HETATM    2  O   UNL     2     -12.166   8.180  72.990  1.00  0.00    -0.655 OA 
HETATM    3  O   UNL     3      -7.861  16.326  66.496  1.00  0.00    -0.263 OA 
HETATM    4  H   UNL     2     -12.941   8.557  73.392  1.00  0.00     0.000 HD 
HETATM    5  C   UNL     2     -11.814   8.958  71.847  1.00  0.00    -0.370 C  
HETATM    6  C   UNL     3      -9.130  16.056  67.085  1.00  0.00    -0.208 C  
HETATM    7  H   UNL     3      -7.965  16.885  65.735  1.00  0.00     0.000 HD 
ENDROOT
BRANCH   5   8
HETATM    8  C   UNL     2     -10.557   8.346  71.194  1.00  0.00    -0.215 C  
HETATM    9  O   UNL     2      -9.546   8.246  72.192  1.00  0.00    -0.213 OA 
HETATM   10  H   UNL     2      -8.771   7.869  71.790  1.00  0.00     0.000 HD 
BRANCH   8  11
HETATM   11  C   UNL     2     -10.837   6.933  70.657  1.00  0.00    -0.245 C  
HETATM   12  H   UNL     2     -12.412   5.721  70.358  1.00  0.00     0.000 HD 
HETATM   13  O   UNL     2     -12.238   6.594  70.690  1.00  0.00    -0.377 OA 
BRANCH  11  14
HETATM   14  C   UNL     2     -10.252   6.505  69.289  1.00  0.00    -0.187 C  
HETATM   15  O   UNL     2     -10.049   5.101  69.265  1.00  0.00    -0.193 OA 
HETATM   16  H   UNL     2      -9.689   4.839  68.425  1.00  0.00     0.000 HD 
BRANCH  14  17
HETATM   17  C   UNL     2      -9.098   7.340  68.704  1.00  0.00    -0.133 C  
HETATM   18  H   UNL     2      -7.204   7.025  68.344  1.00  0.00     0.000 HD 
HETATM   19  O   UNL     2      -7.916   6.509  68.705  1.00  0.00    -0.111 OA 
BRANCH  17  20
HETATM   20  C   UNL     2      -9.351   7.963  67.331  1.00  0.00    -0.141 C  
HETATM   21  O   UNL     2     -10.403   7.271  66.622  1.00  0.00    -0.425 OA 
HETATM   22  C   UNL     2      -9.764   9.444  67.558  1.00  0.00    -0.157 C  
HETATM   23  H   UNL     2     -10.560   7.658  65.769  1.00  0.00     0.000 HD 
HETATM   24  O   UNL     2      -9.115  10.028  68.466  1.00  0.00    -0.122 OA 
HETATM   25  O   UNL     2     -10.706   9.821  66.811  1.00  0.00    -0.170 OA 
ENDBRANCH  17  20
ENDBRANCH  14  17
ENDBRANCH  11  14
ENDBRANCH   8  11
ENDBRANCH   5   8
BRANCH   6  26
HETATM   26  C   UNL     3      -8.962  15.153  68.315  1.00  0.00    -0.175 C  
HETATM   27  H   UNL     3      -9.009  15.435  70.213  1.00  0.00     0.000 HD 
HETATM   28  O   UNL     3      -9.113  15.994  69.452  1.00  0.00    -0.251 OA 
BRANCH  26  29
HETATM   29  C   UNL     3      -9.947  13.955  68.304  1.00  0.00    -0.238 C  
HETATM   30  O   UNL     3      -9.334  12.814  69.051  1.00  0.00    -0.362 OA 
HETATM   31  H   UNL     3      -9.937  12.080  69.044  1.00  0.00     0.000 HD 
BRANCH  29  32
HETATM   32  C   UNL     3     -11.254  14.200  69.088  1.00  0.00    -0.272 C  
HETATM   33  H   UNL     3     -13.173  14.054  68.667  1.00  0.00     0.000 HD 
HETATM   34  O   UNL     3     -12.369  13.904  68.184  1.00  0.00    -0.250 OA 
BRANCH  32  35
HETATM   35  C   UNL     3     -11.501  15.374  70.048  1.00  0.00    -0.316 C  
HETATM   36  H   UNL     3     -12.793  16.811  70.137  1.00  0.00     0.000 HD 
HETATM   37  O   UNL     3     -12.640  16.085  69.544  1.00  0.00    -0.048 OA 
BRANCH  35  38
HETATM   38  C   UNL     3     -11.642  15.032  71.527  1.00  0.00    -0.353 C  
HETATM   39  C   UNL     3     -12.991  14.317  71.797  1.00  0.00    -0.354 C  
HETATM   40  O   UNL     3     -11.582  16.222  72.339  1.00  0.00    -0.442 OA 
HETATM   41  O   UNL     3     -13.701  14.060  70.775  1.00  0.00    -0.022 OA 
HETATM   42  O   UNL     3     -13.317  14.291  73.016  1.00  0.00    -0.618 OA 
HETATM   43  H   UNL     3     -11.669  16.009  73.261  1.00  0.00     0.000 HD 
ENDBRANCH  35  38
ENDBRANCH  32  35
ENDBRANCH  29  32
ENDBRANCH  26  29
ENDBRANCH   6  26
TORSDOF 10
ENDMDL
MODEL      423
REMARK 921   NORMALIZED FREE ENERGY PREDICTED BY IDOCK:   -3.78 KCAL/MOL
REMARK 922        TOTAL FREE ENERGY PREDICTED BY IDOCK:   -8.49 KCAL/MOL
REMARK 923 INTER-LIGAND FREE ENERGY PREDICTED BY IDOCK:   -7.86 KCAL/MOL
REMARK 924 INTRA-LIGAND FREE ENERGY PREDICTED BY IDOCK:   -0.63 KCAL/MOL
REMARK 927      BINDING AFFINITY PREDICTED BY RF-SCORE:    0.00 PKD
ROOT
HETATM    1 CA   UNL     1      -7.155  14.057  70.037  1.00  0.00    -0.187 Ca 
HETATM    2  O   UNL     2     -10.649  18.448  68.837  1.00  0.00    -0.379 OA 
HETATM    3  O   UNL     3      -7.131   7.776  69.731  1.00  0.00    -0.063 OA 
HETATM    4  H   UNL     2     -10.961  18.687  69.702  1.00  0.00     0.000 HD 
HETATM    5  C   UNL     2      -9.802  17.305  68.951  1.00  0.00    -0.286 C  
HETATM    6  C   UNL     3      -7.378   8.846  70.638  1.00  0.00    -0.080 C  
HETATM    7  H   UNL     3      -6.509   7.165  70.107  1.00  0.00     0.000 HD 
ENDROOT
BRANCH   5   8
HETATM    8  C   UNL     2      -9.295  16.918  67.546  1.00  0.00    -0.232 C  
HETATM    9  O   UNL     2      -7.956  16.451  67.672  1.00  0.00    -0.144 OA 
HETATM   10  H   UNL     2      -7.644  16.213  66.807  1.00  0.00     0.000 HD 
BRANCH   8  11
HETATM   11  C   UNL     2     -10.139  15.785  66.940  1.00  0.00    -0.266 C  
HETATM   12  H   UNL     2     -10.604  15.057  65.126  1.00  0.00     0.000 HD 
HETATM   13  O   UNL     2     -10.082  15.757  65.500  1.00  0.00    -0.344 OA 
BRANCH  11  14
HETATM   14  C   UNL     2      -9.976  14.340  67.474  1.00  0.00    -0.235 C  
HETATM   15  O   UNL     2      -8.630  14.115  67.863  1.00  0.00    -0.158 OA 
HETATM   16  H   UNL     2      -8.530  13.228  68.190  1.00  0.00     0.000 HD 
BRANCH  14  17
HETATM   17  C   UNL     2     -10.622  13.195  66.671  1.00  0.00    -0.279 C  
HETATM   18  H   UNL     2     -10.800  11.265  66.910  1.00  0.00     0.000 HD 
HETATM   19  O   UNL     2     -10.401  11.971  67.406  1.00  0.00    -0.204 OA 
BRANCH  17  20
HETATM   20  C   UNL     2     -12.095  13.381  66.309  1.00  0.00    -0.422 C  
HETATM   21  O   UNL     2     -12.591  14.664  66.751  1.00  0.00    -0.413 OA 
HETATM   22  C   UNL     2     -12.212  13.283  64.762  1.00  0.00    -0.417 C  
HETATM   23  H   UNL     2     -13.507  14.779  66.526  1.00  0.00     0.000 HD 
HETATM   24  O   UNL     2     -11.486  12.394  64.244  1.00  0.00    -0.323 OA 
HETATM   25  O   UNL     2     -13.001  14.131  64.265  1.00  0.00    -0.429 OA 
ENDBRANCH  17  20
ENDBRANCH  14  17
ENDBRANCH  11  14
ENDBRANCH   8  11
ENDBRANCH   5   8
BRANCH   6  26
HETATM   26  C   UNL     3      -8.384   9.834  70.030  1.00  0.00    -0.192 C  
HETATM   27  H   UNL     3      -8.289  11.206  68.691  1.00  0.00     0.000 HD 
HETATM   28  O   UNL     3      -7.666  10.595  69.067  1.00  0.00    -0.110 OA 
BRANCH  26  29
HETATM   29  C   UNL     3      -9.629   9.119  69.441  1.00  0.00    -0.165 C  
HETATM   30  O   UNL     3      -9.211   8.318  68.249  1.00  0.00    -0.135 OA 
HETATM   31  H   UNL     3      -9.973   7.880  67.889  1.00  0.00     0.000 HD 
BRANCH  29  32
HETATM   32  C   UNL     3     -10.238   8.043  70.365  1.00  0.00    -0.201 C  
HETATM   33  H   UNL     3     -11.200   6.348  70.075  1.00  0.00     0.000 HD 
HETATM   34  O   UNL     3     -10.825   7.010  69.507  1.00  0.00    -0.236 OA 
BRANCH  32  35
HETATM   35  C   UNL     3     -11.024   8.328  71.655  1.00  0.00    -0.264 C  
HETATM   36  H   UNL     3     -12.712   9.181  72.060  1.00  0.00     0.000 HD 
HETATM   37  O   UNL     3     -12.226   9.004  71.262  1.00  0.00    -0.302 OA 
BRANCH  35  38
HETATM   38  C   UNL     3     -11.302   7.137  72.566  1.00  0.00    -0.279 C  
HETATM   39  C   UNL     3     -10.271   7.083  73.724  1.00  0.00    -0.363 C  
HETATM   40  O   UNL     3     -11.232   5.899  71.831  1.00  0.00    -0.268 OA 
HETATM   41  O   UNL     3      -9.444   8.047  73.780  1.00  0.00    -0.218 OA 
HETATM   42  O   UNL     3     -10.236   5.972  74.321  1.00  0.00    -0.263 OA 
HETATM   43  H   UNL     3     -11.405   5.157  72.399  1.00  0.00     0.000 HD 
ENDBRANCH  35  38
ENDBRANCH  32  35
ENDBRANCH  29  32
ENDBRANCH  26  29
ENDBRANCH   6  26
TORSDOF 10
ENDMDL
MODEL      424
REMARK 921   NORMALIZED FREE ENERGY PREDICTED BY IDOCK:   -3.78 KCAL/MOL
REMARK 922        TOTAL FREE ENERGY PREDICTED BY IDOCK:   -8.48 KCAL/MOL
REMARK 923 INTER-LIGAND FREE ENERGY PREDICTED BY IDOCK:   -8.27 KCAL/MOL
REMARK 924 INTRA-LIGAND FREE ENERGY PREDICTED BY IDOCK:   -0.21 KCAL/MOL
REMARK 927      BINDING AFFINITY PREDICTED BY RF-SCORE:    0.00 PKD
ROOT
HETATM    1 CA   UNL     1      -6.942  13.412  67.205  1.00  0.00    -0.119 Ca 
HETATM    2  O   UNL     2     -10.625  17.707  68.161  1.00  0.00    -0.376 OA 
HETATM    3  O   UNL     3      -6.885   7.124  67.125  1.00  0.00    -0.070 OA 
HETATM    4  H   UNL     2     -10.378  17.980  69.037  1.00  0.00     0.000 HD 
HETATM    5  C   UNL     2      -9.834  16.580  67.789  1.00  0.00    -0.240 C  
HETATM    6  C   UNL     3      -6.590   8.230  67.973  1.00  0.00    -0.057 C  
HETATM    7  H   UNL     3      -6.139   6.536  67.081  1.00  0.00     0.000 HD 
ENDROOT
BRANCH   5   8
HETATM    8  C   UNL     2     -10.234  16.137  66.366  1.00  0.00    -0.306 C  
HETATM    9  O   UNL     2      -9.693  17.075  65.442  1.00  0.00    -0.467 OA 
HETATM   10  H   UNL     2      -9.940  16.802  64.566  1.00  0.00     0.000 HD 
BRANCH   8  11
HETATM   11  C   UNL     2      -9.660  14.751  66.030  1.00  0.00    -0.301 C  
HETATM   12  H   UNL     2      -8.651  13.276  66.948  1.00  0.00     0.000 HD 
HETATM   13  O   UNL     2      -9.006  14.132  67.155  1.00  0.00    -0.205 OA 
BRANCH  11  14
HETATM   14  C   UNL     2     -10.558  13.699  65.333  1.00  0.00    -0.317 C  
HETATM   15  O   UNL     2     -11.313  12.988  66.301  1.00  0.00    -0.296 OA 
HETATM   16  H   UNL     2     -11.864  12.342  65.873  1.00  0.00     0.000 HD 
BRANCH  14  17
HETATM   17  C   UNL     2      -9.928  12.829  64.229  1.00  0.00    -0.150 C  
HETATM   18  H   UNL     2      -8.713  11.299  64.196  1.00  0.00     0.000 HD 
HETATM   19  O   UNL     2      -9.102  11.836  64.878  1.00  0.00     0.050 OA 
BRANCH  17  20
HETATM   20  C   UNL     2     -10.904  12.194  63.239  1.00  0.00    -0.321 C  
HETATM   21  O   UNL     2     -11.036  10.773  63.463  1.00  0.00    -0.390 OA 
HETATM   22  C   UNL     2     -12.284  12.883  63.435  1.00  0.00    -0.490 C  
HETATM   23  H   UNL     2     -11.643  10.379  62.847  1.00  0.00     0.000 HD 
HETATM   24  O   UNL     2     -12.218  14.125  63.632  1.00  0.00    -0.616 OA 
HETATM   25  O   UNL     2     -13.254  12.080  63.392  1.00  0.00    -0.687 OA 
ENDBRANCH  17  20
ENDBRANCH  14  17
ENDBRANCH  11  14
ENDBRANCH   8  11
ENDBRANCH   5   8
BRANCH   6  26
HETATM   26  C   UNL     3      -7.794   9.179  68.044  1.00  0.00    -0.100 C  
HETATM   27  H   UNL     3      -9.551   9.191  67.271  1.00  0.00     0.000 HD 
HETATM   28  O   UNL     3      -8.805   8.604  67.226  1.00  0.00    -0.131 OA 
BRANCH  26  29
HETATM   29  C   UNL     3      -8.257   9.434  69.503  1.00  0.00    -0.124 C  
HETATM   30  O   UNL     3      -8.359  10.909  69.730  1.00  0.00    -0.340 OA 
HETATM   31  H   UNL     3      -8.642  11.064  70.623  1.00  0.00     0.000 HD 
BRANCH  29  32
HETATM   32  C   UNL     3      -9.692   8.952  69.807  1.00  0.00    -0.175 C  
HETATM   33  H   UNL     3     -11.470   9.802  69.808  1.00  0.00     0.000 HD 
HETATM   34  O   UNL     3     -10.586  10.098  69.622  1.00  0.00    -0.222 OA 
BRANCH  32  35
HETATM   35  C   UNL     3     -10.083   8.012  70.958  1.00  0.00    -0.186 C  
HETATM   36  H   UNL     3     -11.061   8.220  72.613  1.00  0.00     0.000 HD 
HETATM   37  O   UNL     3     -10.819   8.802  71.902  1.00  0.00    -0.314 OA 
BRANCH  35  38
HETATM   38  C   UNL     3     -10.819   6.732  70.577  1.00  0.00    -0.258 C  
HETATM   39  C   UNL     3      -9.811   5.588  70.289  1.00  0.00    -0.198 C  
HETATM   40  O   UNL     3     -11.632   6.934  69.404  1.00  0.00    -0.568 OA 
HETATM   41  O   UNL     3      -8.586   5.860  70.490  1.00  0.00    -0.132 OA 
HETATM   42  O   UNL     3     -10.316   4.611  69.669  1.00  0.00    -0.169 OA 
HETATM   43  H   UNL     3     -12.090   6.136  69.167  1.00  0.00     0.000 HD 
ENDBRANCH  35  38
ENDBRANCH  32  35
ENDBRANCH  29  32
ENDBRANCH  26  29
ENDBRANCH   6  26
TORSDOF 10
ENDMDL
MODEL      425
REMARK 921   NORMALIZED FREE ENERGY PREDICTED BY IDOCK:   -3.77 KCAL/MOL
REMARK 922        TOTAL FREE ENERGY PREDICTED BY IDOCK:   -8.47 KCAL/MOL
REMARK 923 INTER-LIGAND FREE ENERGY PREDICTED BY IDOCK:   -6.57 KCAL/MOL
REMARK 924 INTRA-LIGAND FREE ENERGY PREDICTED BY IDOCK:   -1.89 KCAL/MOL
REMARK 927      BINDING AFFINITY PREDICTED BY RF-SCORE:    0.00 PKD
ROOT
HETATM    1 CA   UNL     1      -6.510  13.729  68.136  1.00  0.00    -0.070 Ca 
HETATM    2  O   UNL     2     -10.781  17.394  69.253  1.00  0.00    -0.373 OA 
HETATM    3  O   UNL     3      -5.693   7.939  65.820  1.00  0.00    -0.036 OA 
HETATM    4  H   UNL     2     -10.863  17.311  70.196  1.00  0.00     0.000 HD 
HETATM    5  C   UNL     2      -9.786  16.481  68.794  1.00  0.00    -0.251 C  
HETATM    6  C   UNL     3      -5.819   8.638  67.055  1.00  0.00    -0.042 C  
HETATM    7  H   UNL     3      -4.910   7.402  65.825  1.00  0.00     0.000 HD 
ENDROOT
BRANCH   5   8
HETATM    8  C   UNL     2      -9.652  16.615  67.263  1.00  0.00    -0.243 C  
HETATM    9  O   UNL     2      -8.377  16.107  66.884  1.00  0.00    -0.189 OA 
HETATM   10  H   UNL     2      -8.295  16.190  65.941  1.00  0.00     0.000 HD 
BRANCH   8  11
HETATM   11  C   UNL     2     -10.728  15.794  66.534  1.00  0.00    -0.283 C  
HETATM   12  H   UNL     2     -12.692  15.910  66.126  1.00  0.00     0.000 HD 
HETATM   13  O   UNL     2     -12.027  16.417  66.576  1.00  0.00     1.213 OA 
BRANCH  11  14
HETATM   14  C   UNL     2     -10.461  15.293  65.093  1.00  0.00    -0.411 C  
HETATM   15  O   UNL     2     -11.223  16.049  64.166  1.00  0.00    -1.016 OA 
HETATM   16  H   UNL     2     -11.060  15.741  63.282  1.00  0.00     0.000 HD 
BRANCH  14  17
HETATM   17  C   UNL     2     -10.459  13.772  64.846  1.00  0.00    -0.418 C  
HETATM   18  H   UNL     2      -9.449  12.256  65.553  1.00  0.00     0.000 HD 
HETATM   19  O   UNL     2      -9.451  13.195  65.705  1.00  0.00    -0.114 OA 
BRANCH  17  20
HETATM   20  C   UNL     2     -11.806  13.067  65.000  1.00  0.00    -0.362 C  
HETATM   21  O   UNL     2     -12.895  14.014  65.066  1.00  0.00    -0.695 OA 
HETATM   22  C   UNL     2     -11.994  12.144  63.763  1.00  0.00    -0.513 C  
HETATM   23  H   UNL     2     -13.732  13.575  65.162  1.00  0.00     0.000 HD 
HETATM   24  O   UNL     2     -10.946  11.547  63.399  1.00  0.00    -0.392 OA 
HETATM   25  O   UNL     2     -13.167  12.158  63.302  1.00  0.00    -0.620 OA 
ENDBRANCH  17  20
ENDBRANCH  14  17
ENDBRANCH  11  14
ENDBRANCH   8  11
ENDBRANCH   5   8
BRANCH   6  26
HETATM   26  C   UNL     3      -7.084   9.506  67.046  1.00  0.00    -0.086 C  
HETATM   27  H   UNL     3      -7.785  10.859  65.880  1.00  0.00     0.000 HD 
HETATM   28  O   UNL     3      -7.002  10.322  65.885  1.00  0.00    -0.112 OA 
BRANCH  26  29
HETATM   29  C   UNL     3      -8.381   8.656  67.107  1.00  0.00    -0.107 C  
HETATM   30  O   UNL     3      -8.036   7.224  66.852  1.00  0.00    -0.116 OA 
HETATM   31  H   UNL     3      -8.831   6.704  66.889  1.00  0.00     0.000 HD 
BRANCH  29  32
HETATM   32  C   UNL     3      -9.035   8.596  68.505  1.00  0.00    -0.139 C  
HETATM   33  H   UNL     3     -10.641   9.394  69.320  1.00  0.00     0.000 HD 
HETATM   34  O   UNL     3     -10.238   9.431  68.461  1.00  0.00    -0.185 OA 
BRANCH  32  35
HETATM   35  C   UNL     3      -8.274   8.636  69.839  1.00  0.00    -0.121 C  
HETATM   36  H   UNL     3      -7.636  10.045  71.000  1.00  0.00     0.000 HD 
HETATM   37  O   UNL     3      -8.107  10.020  70.175  1.00  0.00    -0.175 OA 
BRANCH  35  38
HETATM   38  C   UNL     3      -8.864   7.828  70.989  1.00  0.00    -0.141 C  
HETATM   39  C   UNL     3      -8.727   6.307  70.715  1.00  0.00    -0.136 C  
HETATM   40  O   UNL     3     -10.259   8.138  71.174  1.00  0.00    -0.191 OA 
HETATM   41  O   UNL     3      -8.094   5.985  69.661  1.00  0.00    -0.104 OA 
HETATM   42  O   UNL     3      -9.462   5.591  71.450  1.00  0.00    -0.146 OA 
HETATM   43  H   UNL     3     -10.627   7.634  71.891  1.00  0.00     0.000 HD 
ENDBRANCH  35  38
ENDBRANCH  32  35
ENDBRANCH  29  32
ENDBRANCH  26  29
ENDBRANCH   6  26
TORSDOF 10
ENDMDL
MODEL      426
REMARK 921   NORMALIZED FREE ENERGY PREDICTED BY IDOCK:   -3.76 KCAL/MOL
REMARK 922        TOTAL FREE ENERGY PREDICTED BY IDOCK:   -8.46 KCAL/MOL
REMARK 923 INTER-LIGAND FREE ENERGY PREDICTED BY IDOCK:   -5.88 KCAL/MOL
REMARK 924 INTRA-LIGAND FREE ENERGY PREDICTED BY IDOCK:   -2.58 KCAL/MOL
REMARK 927      BINDING AFFINITY PREDICTED BY RF-SCORE:    0.00 PKD
ROOT
HETATM    1 CA   UNL     1     -12.577  11.853  68.679  1.00  0.00    -0.294 Ca 
HETATM    2  O   UNL     2     -11.847   6.690  71.074  1.00  0.00    -0.348 OA 
HETATM    3  O   UNL     3     -10.014  17.592  68.871  1.00  0.00    -0.336 OA 
HETATM    4  H   UNL     2     -12.550   6.674  71.713  1.00  0.00     0.000 HD 
HETATM    5  C   UNL     2     -11.845   7.959  70.422  1.00  0.00     0.073 C  
HETATM    6  C   UNL     3     -11.083  16.830  69.424  1.00  0.00    -0.083 C  
HETATM    7  H   UNL     3     -10.344  18.404  68.504  1.00  0.00     0.000 HD 
ENDROOT
BRANCH   5   8
HETATM    8  C   UNL     2     -10.703   7.985  69.384  1.00  0.00    -0.159 C  
HETATM    9  O   UNL     2     -10.070   9.258  69.455  1.00  0.00    -0.183 OA 
HETATM   10  H   UNL     2      -9.367   9.275  68.816  1.00  0.00     0.000 HD 
BRANCH   8  11
HETATM   11  C   UNL     2      -9.647   6.910  69.688  1.00  0.00    -0.146 C  
HETATM   12  H   UNL     2      -9.429   4.921  69.509  1.00  0.00     0.000 HD 
HETATM   13  O   UNL     2     -10.081   5.585  69.321  1.00  0.00    -0.182 OA 
BRANCH  11  14
HETATM   14  C   UNL     2      -8.191   7.110  69.202  1.00  0.00    -0.122 C  
HETATM   15  O   UNL     2      -7.480   7.925  70.121  1.00  0.00    -0.075 OA 
HETATM   16  H   UNL     2      -6.586   8.048  69.823  1.00  0.00     0.000 HD 
BRANCH  14  17
HETATM   17  C   UNL     2      -7.964   7.452  67.717  1.00  0.00    -0.118 C  
HETATM   18  H   UNL     2      -7.301   9.008  66.740  1.00  0.00     0.000 HD 
HETATM   19  O   UNL     2      -7.441   8.798  67.657  1.00  0.00    -0.091 OA 
BRANCH  17  20
HETATM   20  C   UNL     2      -7.097   6.471  66.929  1.00  0.00    -0.073 C  
HETATM   21  O   UNL     2      -6.097   5.855  67.770  1.00  0.00    -0.020 OA 
HETATM   22  C   UNL     2      -8.038   5.375  66.352  1.00  0.00    -0.105 C  
HETATM   23  H   UNL     2      -5.559   5.245  67.280  1.00  0.00     0.000 HD 
HETATM   24  O   UNL     2      -9.139   5.813  65.925  1.00  0.00    -0.159 OA 
HETATM   25  O   UNL     2      -7.557   4.213  66.426  1.00  0.00    -0.087 OA 
ENDBRANCH  17  20
ENDBRANCH  14  17
ENDBRANCH  11  14
ENDBRANCH   8  11
ENDBRANCH   5   8
BRANCH   6  26
HETATM   26  C   UNL     3     -10.548  15.519  70.016  1.00  0.00    -0.324 C  
HETATM   27  H   UNL     3     -10.578  14.713  71.758  1.00  0.00     0.000 HD 
HETATM   28  O   UNL     3     -10.909  15.524  71.391  1.00  0.00    -0.251 OA 
BRANCH  26  29
HETATM   29  C   UNL     3     -11.067  14.273  69.251  1.00  0.00    -0.265 C  
HETATM   30  O   UNL     3     -12.514  14.468  68.928  1.00  0.00    -0.573 OA 
HETATM   31  H   UNL     3     -12.831  13.705  68.460  1.00  0.00     0.000 HD 
BRANCH  29  32
HETATM   32  C   UNL     3     -10.439  14.080  67.854  1.00  0.00    -0.241 C  
HETATM   33  H   UNL     3     -10.595  12.717  66.440  1.00  0.00     0.000 HD 
HETATM   34  O   UNL     3     -10.980  12.836  67.300  1.00  0.00    -0.249 OA 
BRANCH  32  35
HETATM   35  C   UNL     3      -8.969  14.354  67.500  1.00  0.00    -0.190 C  
HETATM   36  H   UNL     3      -7.521  13.292  66.780  1.00  0.00     0.000 HD 
HETATM   37  O   UNL     3      -8.430  13.123  66.999  1.00  0.00    -0.194 OA 
BRANCH  35  38
HETATM   38  C   UNL     3      -8.696  15.527  66.566  1.00  0.00    -0.305 C  
HETATM   39  C   UNL     3      -7.728  16.541  67.230  1.00  0.00    -0.164 C  
HETATM   40  O   UNL     3      -9.919  16.213  66.229  1.00  0.00    -0.278 OA 
HETATM   41  O   UNL     3      -7.264  16.208  68.366  1.00  0.00    -0.128 OA 
HETATM   42  O   UNL     3      -7.708  17.669  66.665  1.00  0.00    -0.213 OA 
HETATM   43  H   UNL     3      -9.749  16.945  65.647  1.00  0.00     0.000 HD 
ENDBRANCH  35  38
ENDBRANCH  32  35
ENDBRANCH  29  32
ENDBRANCH  26  29
ENDBRANCH   6  26
TORSDOF 10
ENDMDL
MODEL      427
REMARK 921   NORMALIZED FREE ENERGY PREDICTED BY IDOCK:   -3.76 KCAL/MOL
REMARK 922        TOTAL FREE ENERGY PREDICTED BY IDOCK:   -8.45 KCAL/MOL
REMARK 923 INTER-LIGAND FREE ENERGY PREDICTED BY IDOCK:   -8.21 KCAL/MOL
REMARK 924 INTRA-LIGAND FREE ENERGY PREDICTED BY IDOCK:   -0.25 KCAL/MOL
REMARK 927      BINDING AFFINITY PREDICTED BY RF-SCORE:    0.00 PKD
ROOT
HETATM    1 CA   UNL     1     -11.590  13.509  70.442  1.00  0.00    -0.262 Ca 
HETATM    2  O   UNL     2     -10.294   8.007  71.431  1.00  0.00    -0.195 OA 
HETATM    3  O   UNL     3      -9.369  18.408  67.184  1.00  0.00    -0.263 OA 
HETATM    4  H   UNL     2      -9.916   8.053  72.302  1.00  0.00     0.000 HD 
HETATM    5  C   UNL     2     -10.617   9.328  70.999  1.00  0.00    -0.316 C  
HETATM    6  C   UNL     3      -9.346  17.834  68.488  1.00  0.00    -0.295 C  
HETATM    7  H   UNL     3      -9.629  19.321  67.232  1.00  0.00     0.000 HD 
ENDROOT
BRANCH   5   8
HETATM    8  C   UNL     2     -11.232   9.254  69.585  1.00  0.00    -0.041 C  
HETATM    9  O   UNL     2     -11.543  10.579  69.169  1.00  0.00    -0.350 OA 
HETATM   10  H   UNL     2     -11.922  10.533  68.298  1.00  0.00     0.000 HD 
BRANCH   8  11
HETATM   11  C   UNL     2     -10.238   8.658  68.574  1.00  0.00    -0.195 C  
HETATM   12  H   UNL     2      -8.251   8.449  68.360  1.00  0.00     0.000 HD 
HETATM   13  O   UNL     2      -8.865   8.817  68.985  1.00  0.00    -0.135 OA 
BRANCH  11  14
HETATM   14  C   UNL     2     -10.442   7.211  68.063  1.00  0.00    -0.201 C  
HETATM   15  O   UNL     2     -11.471   6.575  68.803  1.00  0.00    -0.593 OA 
HETATM   16  H   UNL     2     -11.597   5.687  68.489  1.00  0.00     0.000 HD 
BRANCH  14  17
HETATM   17  C   UNL     2      -9.190   6.349  67.814  1.00  0.00    -0.112 C  
HETATM   18  H   UNL     2      -8.597   4.574  68.375  1.00  0.00     0.000 HD 
HETATM   19  O   UNL     2      -9.370   5.106  68.528  1.00  0.00    -0.115 OA 
BRANCH  17  20
HETATM   20  C   UNL     2      -8.820   6.113  66.350  1.00  0.00    -0.141 C  
HETATM   21  O   UNL     2      -7.428   5.751  66.208  1.00  0.00    -0.080 OA 
HETATM   22  C   UNL     2      -9.714   4.957  65.822  1.00  0.00    -0.169 C  
HETATM   23  H   UNL     2      -7.198   5.605  65.298  1.00  0.00     0.000 HD 
HETATM   24  O   UNL     2     -10.906   4.998  66.229  1.00  0.00    -0.285 OA 
HETATM   25  O   UNL     2      -9.096   4.142  65.085  1.00  0.00    -0.127 OA 
ENDBRANCH  17  20
ENDBRANCH  14  17
ENDBRANCH  11  14
ENDBRANCH   8  11
ENDBRANCH   5   8
BRANCH   6  26
HETATM   26  C   UNL     3      -8.927  16.359  68.411  1.00  0.00    -0.214 C  
HETATM   27  H   UNL     3      -9.266  14.802  69.479  1.00  0.00     0.000 HD 
HETATM   28  O   UNL     3      -9.525  15.714  69.527  1.00  0.00    -0.265 OA 
BRANCH  26  29
HETATM   29  C   UNL     3      -9.306  15.711  67.053  1.00  0.00    -0.226 C  
HETATM   30  O   UNL     3      -8.331  16.159  66.011  1.00  0.00    -0.281 OA 
HETATM   31  H   UNL     3      -8.563  15.762  65.180  1.00  0.00     0.000 HD 
BRANCH  29  32
HETATM   32  C   UNL     3      -9.146  14.176  67.016  1.00  0.00    -0.243 C  
HETATM   33  H   UNL     3      -7.626  12.935  67.186  1.00  0.00     0.000 HD 
HETATM   34  O   UNL     3      -7.724  13.880  67.208  1.00  0.00    -0.164 OA 
BRANCH  32  35
HETATM   35  C   UNL     3      -9.873  13.235  66.043  1.00  0.00    -0.263 C  
HETATM   36  H   UNL     3     -11.244  11.883  66.224  1.00  0.00     0.000 HD 
HETATM   37  O   UNL     3     -10.794  12.465  66.826  1.00  0.00    -0.237 OA 
BRANCH  35  38
HETATM   38  C   UNL     3     -10.540  13.882  64.834  1.00  0.00    -0.419 C  
HETATM   39  C   UNL     3     -12.027  14.202  65.138  1.00  0.00    -0.388 C  
HETATM   40  O   UNL     3     -10.483  13.011  63.687  1.00  0.00    -0.504 OA 
HETATM   41  O   UNL     3     -12.419  13.966  66.324  1.00  0.00    -0.453 OA 
HETATM   42  O   UNL     3     -12.717  14.436  64.107  1.00  0.00    -0.676 OA 
HETATM   43  H   UNL     3     -10.899  13.415  62.934  1.00  0.00     0.000 HD 
ENDBRANCH  35  38
ENDBRANCH  32  35
ENDBRANCH  29  32
ENDBRANCH  26  29
ENDBRANCH   6  26
TORSDOF 10
ENDMDL
MODEL      428
REMARK 921   NORMALIZED FREE ENERGY PREDICTED BY IDOCK:   -3.75 KCAL/MOL
REMARK 922        TOTAL FREE ENERGY PREDICTED BY IDOCK:   -8.45 KCAL/MOL
REMARK 923 INTER-LIGAND FREE ENERGY PREDICTED BY IDOCK:   -6.93 KCAL/MOL
REMARK 924 INTRA-LIGAND FREE ENERGY PREDICTED BY IDOCK:   -1.52 KCAL/MOL
REMARK 927      BINDING AFFINITY PREDICTED BY RF-SCORE:    0.00 PKD
ROOT
HETATM    1 CA   UNL     1      -9.181  10.608  66.433  1.00  0.00    -0.150 Ca 
HETATM    2  O   UNL     2     -12.681  14.589  68.630  1.00  0.00    -0.364 OA 
HETATM    3  O   UNL     3      -8.996   4.379  65.589  1.00  0.00    -0.123 OA 
HETATM    4  H   UNL     2     -12.263  14.773  69.464  1.00  0.00     0.000 HD 
HETATM    5  C   UNL     2     -11.959  13.550  67.972  1.00  0.00    -0.337 C  
HETATM    6  C   UNL     3      -8.556   5.396  66.485  1.00  0.00    -0.116 C  
HETATM    7  H   UNL     3      -8.263   3.836  65.323  1.00  0.00     0.000 HD 
ENDROOT
BRANCH   5   8
HETATM    8  C   UNL     2     -12.637  13.251  66.618  1.00  0.00     0.129 C  
HETATM    9  O   UNL     2     -13.151  14.474  66.102  1.00  0.00    -0.247 OA 
HETATM   10  H   UNL     2     -13.569  14.291  65.268  1.00  0.00     0.000 HD 
BRANCH   8  11
HETATM   11  C   UNL     2     -11.631  12.690  65.600  1.00  0.00    -0.377 C  
HETATM   12  H   UNL     2     -11.635  11.924  63.743  1.00  0.00     0.000 HD 
HETATM   13  O   UNL     2     -12.257  12.271  64.372  1.00  0.00    -0.410 OA 
BRANCH  11  14
HETATM   14  C   UNL     2     -10.356  13.500  65.259  1.00  0.00    -0.331 C  
HETATM   15  O   UNL     2      -9.672  12.896  64.173  1.00  0.00    -0.638 OA 
HETATM   16  H   UNL     2      -8.890  13.394  63.964  1.00  0.00     0.000 HD 
BRANCH  14  17
HETATM   17  C   UNL     2      -9.456  13.955  66.424  1.00  0.00    -0.250 C  
HETATM   18  H   UNL     2      -7.779  13.328  67.205  1.00  0.00     0.000 HD 
HETATM   19  O   UNL     2      -8.334  13.047  66.486  1.00  0.00     0.084 OA 
BRANCH  17  20
HETATM   20  C   UNL     2      -9.002  15.414  66.389  1.00  0.00    -0.316 C  
HETATM   21  O   UNL     2      -9.596  16.126  65.281  1.00  0.00    -0.375 OA 
HETATM   22  C   UNL     2      -9.442  16.073  67.726  1.00  0.00    -0.217 C  
HETATM   23  H   UNL     2      -9.314  17.033  65.259  1.00  0.00     0.000 HD 
HETATM   24  O   UNL     2      -9.299  15.335  68.737  1.00  0.00    -0.190 OA 
HETATM   25  O   UNL     2      -9.899  17.239  67.584  1.00  0.00    -0.266 OA 
ENDBRANCH  17  20
ENDBRANCH  14  17
ENDBRANCH  11  14
ENDBRANCH   8  11
ENDBRANCH   5   8
BRANCH   6  26
HETATM   26  C   UNL     3      -9.741   6.272  66.914  1.00  0.00    -0.151 C  
HETATM   27  H   UNL     3     -11.626   5.982  67.133  1.00  0.00     0.000 HD 
HETATM   28  O   UNL     3     -10.893   5.440  66.867  1.00  0.00    -0.237 OA 
BRANCH  26  29
HETATM   29  C   UNL     3      -9.515   6.929  68.302  1.00  0.00    -0.126 C  
HETATM   30  O   UNL     3      -8.266   6.371  68.906  1.00  0.00    -0.115 OA 
HETATM   31  H   UNL     3      -8.129   6.773  69.756  1.00  0.00     0.000 HD 
BRANCH  29  32
HETATM   32  C   UNL     3      -9.210   8.441  68.246  1.00  0.00    -0.134 C  
HETATM   33  H   UNL     3      -8.234   9.614  67.000  1.00  0.00     0.000 HD 
HETATM   34  O   UNL     3      -8.422   8.683  67.035  1.00  0.00    -0.109 OA 
BRANCH  32  35
HETATM   35  C   UNL     3      -8.815   9.307  69.452  1.00  0.00    -0.149 C  
HETATM   36  H   UNL     3      -8.063  11.076  69.670  1.00  0.00     0.000 HD 
HETATM   37  O   UNL     3      -8.307  10.540  68.925  1.00  0.00    -0.129 OA 
BRANCH  35  38
HETATM   38  C   UNL     3      -9.886   9.531  70.515  1.00  0.00    -0.269 C  
HETATM   39  C   UNL     3      -9.677   8.566  71.712  1.00  0.00    -0.267 C  
HETATM   40  O   UNL     3     -11.203   9.312  69.973  1.00  0.00    -0.305 OA 
HETATM   41  O   UNL     3      -8.641   7.831  71.662  1.00  0.00    -0.112 OA 
HETATM   42  O   UNL     3     -10.684   8.468  72.466  1.00  0.00    -0.332 OA 
HETATM   43  H   UNL     3     -11.870   9.451  70.635  1.00  0.00     0.000 HD 
ENDBRANCH  35  38
ENDBRANCH  32  35
ENDBRANCH  29  32
ENDBRANCH  26  29
ENDBRANCH   6  26
TORSDOF 10
ENDMDL
MODEL      429
REMARK 921   NORMALIZED FREE ENERGY PREDICTED BY IDOCK:   -3.75 KCAL/MOL
REMARK 922        TOTAL FREE ENERGY PREDICTED BY IDOCK:   -8.44 KCAL/MOL
REMARK 923 INTER-LIGAND FREE ENERGY PREDICTED BY IDOCK:   -8.28 KCAL/MOL
REMARK 924 INTRA-LIGAND FREE ENERGY PREDICTED BY IDOCK:   -0.16 KCAL/MOL
REMARK 927      BINDING AFFINITY PREDICTED BY RF-SCORE:    0.00 PKD
ROOT
HETATM    1 CA   UNL     1     -11.666  13.125  68.363  1.00  0.00    -0.226 Ca 
HETATM    2  O   UNL     2     -11.409  16.881  64.033  1.00  0.00    -1.375 OA 
HETATM    3  O   UNL     3      -9.266   7.536  69.962  1.00  0.00    -0.151 OA 
HETATM    4  H   UNL     2     -12.232  16.717  63.587  1.00  0.00     0.000 HD 
HETATM    5  C   UNL     2     -11.281  15.965  65.119  1.00  0.00    -0.224 C  
HETATM    6  C   UNL     3     -10.420   8.125  69.370  1.00  0.00    -0.220 C  
HETATM    7  H   UNL     3      -9.519   6.962  70.675  1.00  0.00     0.000 HD 
ENDROOT
BRANCH   5   8
HETATM    8  C   UNL     2      -9.944  16.231  65.842  1.00  0.00    -0.339 C  
HETATM    9  O   UNL     2     -10.234  16.829  67.101  1.00  0.00    -0.283 OA 
HETATM   10  H   UNL     2      -9.411  16.993  67.547  1.00  0.00     0.000 HD 
BRANCH   8  11
HETATM   11  C   UNL     2      -9.179  14.923  66.101  1.00  0.00    -0.233 C  
HETATM   12  H   UNL     2      -7.800  14.212  67.378  1.00  0.00     0.000 HD 
HETATM   13  O   UNL     2      -8.273  15.020  67.218  1.00  0.00    -0.181 OA 
BRANCH  11  14
HETATM   14  C   UNL     2      -9.958  13.589  66.205  1.00  0.00    -0.298 C  
HETATM   15  O   UNL     2      -9.612  12.917  67.405  1.00  0.00    -0.195 OA 
HETATM   16  H   UNL     2     -10.091  12.098  67.469  1.00  0.00     0.000 HD 
BRANCH  14  17
HETATM   17  C   UNL     2     -10.029  12.694  64.954  1.00  0.00    -0.146 C  
HETATM   18  H   UNL     2     -10.039  10.768  64.628  1.00  0.00     0.000 HD 
HETATM   19  O   UNL     2      -9.996  11.320  65.401  1.00  0.00    -0.225 OA 
BRANCH  17  20
HETATM   20  C   UNL     2     -11.201  12.955  64.009  1.00  0.00    -0.412 C  
HETATM   21  O   UNL     2     -11.050  12.234  62.766  1.00  0.00    -0.467 OA 
HETATM   22  C   UNL     2     -12.496  12.484  64.730  1.00  0.00    -0.457 C  
HETATM   23  H   UNL     2     -11.779  12.396  62.179  1.00  0.00     0.000 HD 
HETATM   24  O   UNL     2     -12.532  12.758  65.959  1.00  0.00    -0.540 OA 
HETATM   25  O   UNL     2     -13.298  11.877  63.971  1.00  0.00    -0.646 OA 
ENDBRANCH  17  20
ENDBRANCH  14  17
ENDBRANCH  11  14
ENDBRANCH   8  11
ENDBRANCH   5   8
BRANCH   6  26
HETATM   26  C   UNL     3     -10.010   9.052  68.218  1.00  0.00    -0.173 C  
HETATM   27  H   UNL     3     -10.963  10.043  66.878  1.00  0.00     0.000 HD 
HETATM   28  O   UNL     3     -11.217   9.469  67.591  1.00  0.00    -0.081 OA 
BRANCH  26  29
HETATM   29  C   UNL     3      -9.129  10.235  68.699  1.00  0.00    -0.152 C  
HETATM   30  O   UNL     3      -9.352  10.444  70.163  1.00  0.00    -0.347 OA 
HETATM   31  H   UNL     3      -8.813  11.168  70.457  1.00  0.00     0.000 HD 
BRANCH  29  32
HETATM   32  C   UNL     3      -7.610   9.963  68.631  1.00  0.00    -0.080 C  
HETATM   33  H   UNL     3      -6.238   9.425  69.938  1.00  0.00     0.000 HD 
HETATM   34  O   UNL     3      -7.172   9.593  69.980  1.00  0.00    -0.084 OA 
BRANCH  32  35
HETATM   35  C   UNL     3      -6.598  10.800  67.835  1.00  0.00    -0.063 C  
HETATM   36  H   UNL     3      -4.690  11.095  67.944  1.00  0.00     0.000 HD 
HETATM   37  O   UNL     3      -5.316  10.578  68.437  1.00  0.00    -0.035 OA 
BRANCH  35  38
HETATM   38  C   UNL     3      -6.572  10.590  66.325  1.00  0.00    -0.118 C  
HETATM   39  C   UNL     3      -5.769   9.313  65.965  1.00  0.00    -0.049 C  
HETATM   40  O   UNL     3      -5.968  11.716  65.658  1.00  0.00    -0.392 OA 
HETATM   41  O   UNL     3      -5.348   8.622  66.946  1.00  0.00    -0.035 OA 
HETATM   42  O   UNL     3      -5.435   9.248  64.749  1.00  0.00    -0.052 OA 
HETATM   43  H   UNL     3      -5.952  11.585  64.717  1.00  0.00     0.000 HD 
ENDBRANCH  35  38
ENDBRANCH  32  35
ENDBRANCH  29  32
ENDBRANCH  26  29
ENDBRANCH   6  26
TORSDOF 10
ENDMDL
MODEL      430
REMARK 921   NORMALIZED FREE ENERGY PREDICTED BY IDOCK:   -3.75 KCAL/MOL
REMARK 922        TOTAL FREE ENERGY PREDICTED BY IDOCK:   -8.43 KCAL/MOL
REMARK 923 INTER-LIGAND FREE ENERGY PREDICTED BY IDOCK:   -7.98 KCAL/MOL
REMARK 924 INTRA-LIGAND FREE ENERGY PREDICTED BY IDOCK:   -0.45 KCAL/MOL
REMARK 927      BINDING AFFINITY PREDICTED BY RF-SCORE:    0.00 PKD
ROOT
HETATM    1 CA   UNL     1     -11.105  10.342  68.310  1.00  0.00    -0.184 Ca 
HETATM    2  O   UNL     2     -14.179   8.660  72.853  1.00  0.00    -0.938 OA 
HETATM    3  O   UNL     3      -7.510  15.185  66.526  1.00  0.00    -0.218 OA 
HETATM    4  H   UNL     2     -15.065   8.845  72.564  1.00  0.00     0.000 HD 
HETATM    5  C   UNL     2     -13.266   9.090  71.845  1.00  0.00    -0.405 C  
HETATM    6  C   UNL     3      -8.843  14.690  66.427  1.00  0.00    -0.078 C  
HETATM    7  H   UNL     3      -7.170  15.386  65.663  1.00  0.00     0.000 HD 
ENDROOT
BRANCH   5   8
HETATM    8  C   UNL     2     -11.827   8.789  72.314  1.00  0.00    -0.333 C  
HETATM    9  O   UNL     2     -11.890   7.774  73.310  1.00  0.00    -0.651 OA 
HETATM   10  H   UNL     2     -11.004   7.589  73.599  1.00  0.00     0.000 HD 
BRANCH   8  11
HETATM   11  C   UNL     2     -10.960   8.266  71.156  1.00  0.00    -0.245 C  
HETATM   12  H   UNL     2     -10.739   8.572  69.183  1.00  0.00     0.000 HD 
HETATM   13  O   UNL     2     -11.275   8.895  69.898  1.00  0.00    -0.189 OA 
BRANCH  11  14
HETATM   14  C   UNL     2      -9.421   8.214  71.317  1.00  0.00    -0.159 C  
HETATM   15  O   UNL     2      -8.816   9.233  70.538  1.00  0.00    -0.206 OA 
HETATM   16  H   UNL     2      -7.871   9.201  70.637  1.00  0.00     0.000 HD 
BRANCH  14  17
HETATM   17  C   UNL     2      -8.732   6.838  71.238  1.00  0.00    -0.128 C  
HETATM   18  H   UNL     2      -8.958   5.123  72.145  1.00  0.00     0.000 HD 
HETATM   19  O   UNL     2      -9.382   5.972  72.194  1.00  0.00    -0.149 OA 
BRANCH  17  20
HETATM   20  C   UNL     2      -8.666   6.201  69.850  1.00  0.00    -0.136 C  
HETATM   21  O   UNL     2      -9.974   5.792  69.393  1.00  0.00    -0.161 OA 
HETATM   22  C   UNL     2      -8.083   7.263  68.875  1.00  0.00    -0.128 C  
HETATM   23  H   UNL     2      -9.933   5.397  68.530  1.00  0.00     0.000 HD 
HETATM   24  O   UNL     2      -7.144   7.949  69.360  1.00  0.00    -0.061 OA 
HETATM   25  O   UNL     2      -8.663   7.288  67.757  1.00  0.00    -0.126 OA 
ENDBRANCH  17  20
ENDBRANCH  14  17
ENDBRANCH  11  14
ENDBRANCH   8  11
ENDBRANCH   5   8
BRANCH   6  26
HETATM   26  C   UNL     3      -9.392  14.364  67.823  1.00  0.00    -0.200 C  
HETATM   27  H   UNL     3      -8.834  14.751  69.618  1.00  0.00     0.000 HD 
HETATM   28  O   UNL     3      -8.493  14.952  68.754  1.00  0.00    -0.158 OA 
BRANCH  26  29
HETATM   29  C   UNL     3     -10.859  14.838  68.003  1.00  0.00    -0.260 C  
HETATM   30  O   UNL     3     -11.184  15.829  66.931  1.00  0.00    -0.208 OA 
HETATM   31  H   UNL     3     -12.082  16.120  67.042  1.00  0.00     0.000 HD 
BRANCH  29  32
HETATM   32  C   UNL     3     -11.915  13.737  67.767  1.00  0.00    -0.356 C  
HETATM   33  H   UNL     3     -12.193  11.912  68.455  1.00  0.00     0.000 HD 
HETATM   34  O   UNL     3     -11.543  12.590  68.599  1.00  0.00    -0.269 OA 
BRANCH  32  35
HETATM   35  C   UNL     3     -12.521  13.372  66.403  1.00  0.00    -0.236 C  
HETATM   36  H   UNL     3     -13.621  14.298  65.110  1.00  0.00     0.000 HD 
HETATM   37  O   UNL     3     -13.246  14.524  65.954  1.00  0.00    -0.026 OA 
BRANCH  35  38
HETATM   38  C   UNL     3     -11.559  12.844  65.345  1.00  0.00    -0.350 C  
HETATM   39  C   UNL     3     -12.339  12.193  64.173  1.00  0.00    -0.409 C  
HETATM   40  O   UNL     3     -10.666  11.861  65.905  1.00  0.00    -0.265 OA 
HETATM   41  O   UNL     3     -13.606  12.273  64.233  1.00  0.00    -0.457 OA 
HETATM   42  O   UNL     3     -11.624  11.464  63.431  1.00  0.00    -0.294 OA 
HETATM   43  H   UNL     3     -10.066  11.532  65.245  1.00  0.00     0.000 HD 
ENDBRANCH  35  38
ENDBRANCH  32  35
ENDBRANCH  29  32
ENDBRANCH  26  29
ENDBRANCH   6  26
TORSDOF 10
ENDMDL
MODEL      431
REMARK 921   NORMALIZED FREE ENERGY PREDICTED BY IDOCK:   -3.69 KCAL/MOL
REMARK 922        TOTAL FREE ENERGY PREDICTED BY IDOCK:   -8.35 KCAL/MOL
REMARK 923 INTER-LIGAND FREE ENERGY PREDICTED BY IDOCK:   -7.29 KCAL/MOL
REMARK 924 INTRA-LIGAND FREE ENERGY PREDICTED BY IDOCK:   -1.06 KCAL/MOL
REMARK 927      BINDING AFFINITY PREDICTED BY RF-SCORE:    0.00 PKD
ROOT
HETATM    1 CA   UNL     1     -11.835   8.273  66.832  1.00  0.00    -0.093 Ca 
HETATM    2  O   UNL     2      -9.713  11.895  62.920  1.00  0.00    -0.485 OA 
HETATM    3  O   UNL     3     -10.897   6.678  72.843  1.00  0.00    -0.238 OA 
HETATM    4  H   UNL     2      -9.182  11.313  62.388  1.00  0.00     0.000 HD 
HETATM    5  C   UNL     2     -10.271  11.150  64.002  1.00  0.00    -0.361 C  
HETATM    6  C   UNL     3     -10.553   6.282  71.518  1.00  0.00    -0.237 C  
HETATM    7  H   UNL     3     -11.251   5.940  73.324  1.00  0.00     0.000 HD 
ENDROOT
BRANCH   5   8
HETATM    8  C   UNL     2     -11.133  12.095  64.866  1.00  0.00    -0.319 C  
HETATM    9  O   UNL     2     -11.090  11.627  66.210  1.00  0.00    -0.299 OA 
HETATM   10  H   UNL     2     -11.621  12.208  66.742  1.00  0.00     0.000 HD 
BRANCH   8  11
HETATM   11  C   UNL     2     -10.582  13.530  64.844  1.00  0.00    -0.397 C  
HETATM   12  H   UNL     2     -11.268  15.404  64.605  1.00  0.00     0.000 HD 
HETATM   13  O   UNL     2     -11.608  14.517  64.619  1.00  0.00    -0.391 OA 
BRANCH  11  14
HETATM   14  C   UNL     2      -9.667  14.016  65.995  1.00  0.00    -0.258 C  
HETATM   15  O   UNL     2      -8.820  12.961  66.421  1.00  0.00    -0.420 OA 
HETATM   16  H   UNL     2      -8.258  13.259  67.127  1.00  0.00     0.000 HD 
BRANCH  14  17
HETATM   17  C   UNL     2     -10.308  14.835  67.131  1.00  0.00    -0.255 C  
HETATM   18  H   UNL     2     -11.194  14.406  68.818  1.00  0.00     0.000 HD 
HETATM   19  O   UNL     2     -10.799  13.900  68.117  1.00  0.00    -0.239 OA 
BRANCH  17  20
HETATM   20  C   UNL     2      -9.424  15.911  67.761  1.00  0.00    -0.216 C  
HETATM   21  O   UNL     2      -8.073  15.439  67.957  1.00  0.00    -0.135 OA 
HETATM   22  C   UNL     2      -9.414  17.131  66.797  1.00  0.00    -0.267 C  
HETATM   23  H   UNL     2      -7.524  16.108  68.348  1.00  0.00     0.000 HD 
HETATM   24  O   UNL     2     -10.530  17.383  66.271  1.00  0.00    -0.336 OA 
HETATM   25  O   UNL     2      -8.278  17.663  66.675  1.00  0.00    -0.234 OA 
ENDBRANCH  17  20
ENDBRANCH  14  17
ENDBRANCH  11  14
ENDBRANCH   8  11
ENDBRANCH   5   8
BRANCH   6  26
HETATM   26  C   UNL     3      -9.980   7.475  70.740  1.00  0.00    -0.182 C  
HETATM   27  H   UNL     3      -8.229   8.230  70.523  1.00  0.00     0.000 HD 
HETATM   28  O   UNL     3      -8.584   7.492  71.004  1.00  0.00    -0.130 OA 
BRANCH  26  29
HETATM   29  C   UNL     3     -10.317   7.407  69.227  1.00  0.00    -0.204 C  
HETATM   30  O   UNL     3     -10.752   8.761  68.764  1.00  0.00    -0.363 OA 
HETATM   31  H   UNL     3     -10.958   8.719  67.838  1.00  0.00     0.000 HD 
BRANCH  29  32
HETATM   32  C   UNL     3      -9.101   7.121  68.318  1.00  0.00    -0.134 C  
HETATM   33  H   UNL     3      -8.363   7.947  66.690  1.00  0.00     0.000 HD 
HETATM   34  O   UNL     3      -9.111   8.122  67.248  1.00  0.00    -0.134 OA 
BRANCH  32  35
HETATM   35  C   UNL     3      -8.631   5.724  67.886  1.00  0.00    -0.101 C  
HETATM   36  H   UNL     3      -9.208   3.916  68.261  1.00  0.00     0.000 HD 
HETATM   37  O   UNL     3      -9.499   4.781  68.528  1.00  0.00    -0.129 OA 
BRANCH  35  38
HETATM   38  C   UNL     3      -8.512   5.474  66.387  1.00  0.00    -0.119 C  
HETATM   39  C   UNL     3      -9.820   4.855  65.831  1.00  0.00    -0.191 C  
HETATM   40  O   UNL     3      -7.420   4.577  66.099  1.00  0.00    -0.083 OA 
HETATM   41  O   UNL     3     -10.778   4.736  66.658  1.00  0.00    -0.181 OA 
HETATM   42  O   UNL     3      -9.689   4.332  64.689  1.00  0.00    -0.163 OA 
HETATM   43  H   UNL     3      -7.346   4.422  65.165  1.00  0.00     0.000 HD 
ENDBRANCH  35  38
ENDBRANCH  32  35
ENDBRANCH  29  32
ENDBRANCH  26  29
ENDBRANCH   6  26
TORSDOF 10
ENDMDL
MODEL      432
REMARK 921   NORMALIZED FREE ENERGY PREDICTED BY IDOCK:   -3.69 KCAL/MOL
REMARK 922        TOTAL FREE ENERGY PREDICTED BY IDOCK:   -8.35 KCAL/MOL
REMARK 923 INTER-LIGAND FREE ENERGY PREDICTED BY IDOCK:   -5.97 KCAL/MOL
REMARK 924 INTRA-LIGAND FREE ENERGY PREDICTED BY IDOCK:   -2.38 KCAL/MOL
REMARK 927      BINDING AFFINITY PREDICTED BY RF-SCORE:    0.00 PKD
ROOT
HETATM    1 CA   UNL     1      -8.984   5.327  68.457  1.00  0.00    -0.104 Ca 
HETATM    2  O   UNL     2      -9.287   9.167  64.205  1.00  0.00    -0.385 OA 
HETATM    3  O   UNL     3      -6.092   4.575  73.992  1.00  0.00    -0.036 OA 
HETATM    4  H   UNL     2      -8.737   8.763  63.542  1.00  0.00     0.000 HD 
HETATM    5  C   UNL     2      -9.266   8.356  65.378  1.00  0.00     0.091 C  
HETATM    6  C   UNL     3      -5.973   4.226  72.615  1.00  0.00    -0.016 C  
HETATM    7  H   UNL     3      -6.038   3.797  74.533  1.00  0.00     0.000 HD 
ENDROOT
BRANCH   5   8
HETATM    8  C   UNL     2     -10.159   9.011  66.453  1.00  0.00    -0.281 C  
HETATM    9  O   UNL     2     -10.402   8.047  67.473  1.00  0.00    -0.221 OA 
HETATM   10  H   UNL     2     -10.952   8.451  68.135  1.00  0.00     0.000 HD 
BRANCH   8  11
HETATM   11  C   UNL     2      -9.461  10.220  67.097  1.00  0.00    -0.158 C  
HETATM   12  H   UNL     2      -7.656  10.698  67.839  1.00  0.00     0.000 HD 
HETATM   13  O   UNL     2      -8.087   9.951  67.441  1.00  0.00    -0.112 OA 
BRANCH  11  14
HETATM   14  C   UNL     2      -9.542  11.605  66.410  1.00  0.00    -0.217 C  
HETATM   15  O   UNL     2      -8.508  11.731  65.447  1.00  0.00    -0.288 OA 
HETATM   16  H   UNL     2      -8.558  12.581  65.026  1.00  0.00     0.000 HD 
BRANCH  14  17
HETATM   17  C   UNL     2      -9.757  12.843  67.302  1.00  0.00    -0.220 C  
HETATM   18  H   UNL     2      -8.697  13.778  68.651  1.00  0.00     0.000 HD 
HETATM   19  O   UNL     2      -8.565  13.014  68.100  1.00  0.00    -0.176 OA 
BRANCH  17  20
HETATM   20  C   UNL     2     -10.143  14.131  66.577  1.00  0.00    -0.280 C  
HETATM   21  O   UNL     2      -9.329  14.343  65.402  1.00  0.00    -0.469 OA 
HETATM   22  C   UNL     2     -11.635  14.003  66.159  1.00  0.00    -0.367 C  
HETATM   23  H   UNL     2      -9.569  15.144  64.952  1.00  0.00     0.000 HD 
HETATM   24  O   UNL     2     -12.369  13.458  67.025  1.00  0.00    -0.311 OA 
HETATM   25  O   UNL     2     -11.871  14.445  65.003  1.00  0.00    -0.367 OA 
ENDBRANCH  17  20
ENDBRANCH  14  17
ENDBRANCH  11  14
ENDBRANCH   8  11
ENDBRANCH   5   8
BRANCH   6  26
HETATM   26  C   UNL     3      -6.060   5.485  71.740  1.00  0.00    -0.030 C  
HETATM   27  H   UNL     3      -5.378   5.980  70.016  1.00  0.00     0.000 HD 
HETATM   28  O   UNL     3      -5.324   5.202  70.557  1.00  0.00    -0.004 OA 
BRANCH  26  29
HETATM   29  C   UNL     3      -7.527   5.907  71.462  1.00  0.00    -0.094 C  
HETATM   30  O   UNL     3      -8.448   4.931  72.123  1.00  0.00    -0.120 OA 
HETATM   31  H   UNL     3      -9.346   5.190  71.953  1.00  0.00     0.000 HD 
BRANCH  29  32
HETATM   32  C   UNL     3      -7.937   7.244  72.117  1.00  0.00    -0.093 C  
HETATM   33  H   UNL     3      -7.057   8.522  73.331  1.00  0.00     0.000 HD 
HETATM   34  O   UNL     3      -6.805   7.699  72.928  1.00  0.00    -0.064 OA 
BRANCH  32  35
HETATM   35  C   UNL     3      -9.319   7.548  72.716  1.00  0.00    -0.167 C  
HETATM   36  H   UNL     3      -9.979   8.759  74.072  1.00  0.00     0.000 HD 
HETATM   37  O   UNL     3      -9.124   8.571  73.701  1.00  0.00    -0.137 OA 
BRANCH  35  38
HETATM   38  C   UNL     3     -10.431   7.896  71.732  1.00  0.00    -0.221 C  
HETATM   39  C   UNL     3     -11.393   6.694  71.547  1.00  0.00    -0.281 C  
HETATM   40  O   UNL     3      -9.887   8.252  70.446  1.00  0.00    -0.184 OA 
HETATM   41  O   UNL     3     -11.165   5.678  72.277  1.00  0.00    -0.266 OA 
HETATM   42  O   UNL     3     -12.134   6.789  70.530  1.00  0.00    -0.386 OA 
HETATM   43  H   UNL     3     -10.580   8.469  69.833  1.00  0.00     0.000 HD 
ENDBRANCH  35  38
ENDBRANCH  32  35
ENDBRANCH  29  32
ENDBRANCH  26  29
ENDBRANCH   6  26
TORSDOF 10
ENDMDL
MODEL      433
REMARK 921   NORMALIZED FREE ENERGY PREDICTED BY IDOCK:   -3.66 KCAL/MOL
REMARK 922        TOTAL FREE ENERGY PREDICTED BY IDOCK:   -8.30 KCAL/MOL
REMARK 923 INTER-LIGAND FREE ENERGY PREDICTED BY IDOCK:   -7.54 KCAL/MOL
REMARK 924 INTRA-LIGAND FREE ENERGY PREDICTED BY IDOCK:   -0.76 KCAL/MOL
REMARK 927      BINDING AFFINITY PREDICTED BY RF-SCORE:    0.00 PKD
ROOT
HETATM    1 CA   UNL     1      -9.128  11.502  66.756  1.00  0.00    -0.152 Ca 
HETATM    2  O   UNL     2     -13.731  14.658  65.425  1.00  0.00    -0.196 OA 
HETATM    3  O   UNL     3      -5.245   7.369  64.038  1.00  0.00    -0.029 OA 
HETATM    4  H   UNL     2     -14.430  14.161  65.835  1.00  0.00     0.000 HD 
HETATM    5  C   UNL     2     -12.500  13.961  65.608  1.00  0.00    -0.505 C  
HETATM    6  C   UNL     3      -6.411   7.432  64.856  1.00  0.00    -0.038 C  
HETATM    7  H   UNL     3      -4.590   6.813  64.444  1.00  0.00     0.000 HD 
ENDROOT
BRANCH   5   8
HETATM    8  C   UNL     2     -11.365  14.769  64.942  1.00  0.00    -0.410 C  
HETATM    9  O   UNL     2     -11.958  15.740  64.086  1.00  0.00    -0.803 OA 
HETATM   10  H   UNL     2     -11.259  16.237  63.676  1.00  0.00     0.000 HD 
BRANCH   8  11
HETATM   11  C   UNL     2     -10.518  15.510  65.989  1.00  0.00    -0.323 C  
HETATM   12  H   UNL     2      -8.580  15.866  66.380  1.00  0.00     0.000 HD 
HETATM   13  O   UNL     2      -9.103  15.408  65.732  1.00  0.00    -0.265 OA 
BRANCH  11  14
HETATM   14  C   UNL     2     -10.857  16.978  66.347  1.00  0.00     0.048 C  
HETATM   15  O   UNL     2     -10.666  17.810  65.215  1.00  0.00    -0.649 OA 
HETATM   16  H   UNL     2     -10.873  18.711  65.435  1.00  0.00     0.000 HD 
BRANCH  14  17
HETATM   17  C   UNL     2     -10.311  17.543  67.671  1.00  0.00    -0.360 C  
HETATM   18  H   UNL     2      -9.695  16.771  69.357  1.00  0.00     0.000 HD 
HETATM   19  O   UNL     2     -10.032  16.422  68.540  1.00  0.00    -0.223 OA 
BRANCH  17  20
HETATM   20  C   UNL     2      -9.110  18.481  67.554  1.00  0.00    -0.279 C  
HETATM   21  O   UNL     2      -8.379  18.254  66.329  1.00  0.00    -0.371 OA 
HETATM   22  C   UNL     2      -9.651  19.938  67.574  1.00  0.00    -0.370 C  
HETATM   23  H   UNL     2      -7.632  18.837  66.256  1.00  0.00     0.000 HD 
HETATM   24  O   UNL     2     -10.592  20.129  68.390  1.00  0.00    -0.309 OA 
HETATM   25  O   UNL     2      -9.076  20.697  66.749  1.00  0.00    -0.218 OA 
ENDBRANCH  17  20
ENDBRANCH  14  17
ENDBRANCH  11  14
ENDBRANCH   8  11
ENDBRANCH   5   8
BRANCH   6  26
HETATM   26  C   UNL     3      -7.469   8.331  64.200  1.00  0.00    -0.108 C  
HETATM   27  H   UNL     3      -8.435   8.290  62.542  1.00  0.00     0.000 HD 
HETATM   28  O   UNL     3      -7.780   7.734  62.948  1.00  0.00    -0.117 OA 
BRANCH  26  29
HETATM   29  C   UNL     3      -8.711   8.535  65.107  1.00  0.00    -0.120 C  
HETATM   30  O   UNL     3      -9.335   7.205  65.383  1.00  0.00    -0.276 OA 
HETATM   31  H   UNL     3     -10.096   7.330  65.939  1.00  0.00     0.000 HD 
BRANCH  29  32
HETATM   32  C   UNL     3      -8.382   9.048  66.526  1.00  0.00    -0.115 C  
HETATM   33  H   UNL     3      -7.047  10.285  67.280  1.00  0.00     0.000 HD 
HETATM   34  O   UNL     3      -7.249   9.969  66.407  1.00  0.00    -0.096 OA 
BRANCH  32  35
HETATM   35  C   UNL     3      -8.377   8.185  67.798  1.00  0.00    -0.128 C  
HETATM   36  H   UNL     3      -7.046   7.718  69.121  1.00  0.00     0.000 HD 
HETATM   37  O   UNL     3      -7.049   8.252  68.334  1.00  0.00    -0.077 OA 
BRANCH  35  38
HETATM   38  C   UNL     3      -9.440   8.501  68.844  1.00  0.00    -0.147 C  
HETATM   39  C   UNL     3      -9.431   7.435  69.972  1.00  0.00    -0.161 C  
HETATM   40  O   UNL     3     -10.754   8.531  68.251  1.00  0.00    -0.401 OA 
HETATM   41  O   UNL     3      -8.521   6.551  69.896  1.00  0.00    -0.132 OA 
HETATM   42  O   UNL     3     -10.470   7.445  70.688  1.00  0.00    -0.211 OA 
HETATM   43  H   UNL     3     -11.416   8.728  68.903  1.00  0.00     0.000 HD 
ENDBRANCH  35  38
ENDBRANCH  32  35
ENDBRANCH  29  32
ENDBRANCH  26  29
ENDBRANCH   6  26
TORSDOF 10
ENDMDL
MODEL      434
REMARK 921   NORMALIZED FREE ENERGY PREDICTED BY IDOCK:   -3.64 KCAL/MOL
REMARK 922        TOTAL FREE ENERGY PREDICTED BY IDOCK:   -8.27 KCAL/MOL
REMARK 923 INTER-LIGAND FREE ENERGY PREDICTED BY IDOCK:   -6.78 KCAL/MOL
REMARK 924 INTRA-LIGAND FREE ENERGY PREDICTED BY IDOCK:   -1.48 KCAL/MOL
REMARK 927      BINDING AFFINITY PREDICTED BY RF-SCORE:    0.00 PKD
ROOT
HETATM    1 CA   UNL     1      -9.000  10.460  66.370  1.00  0.00    -0.136 Ca 
HETATM    2  O   UNL     2     -11.355  14.093  70.136  1.00  0.00    -0.436 OA 
HETATM    3  O   UNL     3      -9.667   4.510  64.444  1.00  0.00    -0.312 OA 
HETATM    4  H   UNL     2     -10.709  14.093  70.832  1.00  0.00     0.000 HD 
HETATM    5  C   UNL     2     -10.947  13.170  69.127  1.00  0.00    -0.145 C  
HETATM    6  C   UNL     3      -8.901   5.313  65.338  1.00  0.00    -0.152 C  
HETATM    7  H   UNL     3      -9.092   3.997  63.889  1.00  0.00     0.000 HD 
ENDROOT
BRANCH   5   8
HETATM    8  C   UNL     2     -11.997  13.170  67.996  1.00  0.00    -0.304 C  
HETATM    9  O   UNL     2     -12.659  14.430  68.008  1.00  0.00    -0.502 OA 
HETATM   10  H   UNL     2     -13.306  14.430  67.311  1.00  0.00     0.000 HD 
BRANCH   8  11
HETATM   11  C   UNL     2     -11.334  12.994  66.620  1.00  0.00    -0.325 C  
HETATM   12  H   UNL     2     -11.860  12.479  64.750  1.00  0.00     0.000 HD 
HETATM   13  O   UNL     2     -12.269  12.588  65.600  1.00  0.00    -0.554 OA 
BRANCH  11  14
HETATM   14  C   UNL     2     -10.435  14.120  66.054  1.00  0.00    -0.304 C  
HETATM   15  O   UNL     2      -9.933  13.748  64.781  1.00  0.00    -0.617 OA 
HETATM   16  H   UNL     2      -9.381  14.439  64.433  1.00  0.00     0.000 HD 
BRANCH  14  17
HETATM   17  C   UNL     2      -9.403  14.765  66.998  1.00  0.00    -0.233 C  
HETATM   18  H   UNL     2      -7.545  14.398  67.477  1.00  0.00     0.000 HD 
HETATM   19  O   UNL     2      -8.182  14.000  66.894  1.00  0.00    -0.110 OA 
BRANCH  17  20
HETATM   20  C   UNL     2      -9.155  16.260  66.799  1.00  0.00    -0.232 C  
HETATM   21  O   UNL     2      -9.103  16.605  65.397  1.00  0.00    -0.267 OA 
HETATM   22  C   UNL     2     -10.326  17.023  67.480  1.00  0.00    -0.329 C  
HETATM   23  H   UNL     2      -8.949  17.534  65.273  1.00  0.00     0.000 HD 
HETATM   24  O   UNL     2     -10.695  16.530  68.579  1.00  0.00    -0.299 OA 
HETATM   25  O   UNL     2     -10.741  18.005  66.808  1.00  0.00    -0.299 OA 
ENDBRANCH  17  20
ENDBRANCH  14  17
ENDBRANCH  11  14
ENDBRANCH   8  11
ENDBRANCH   5   8
BRANCH   6  26
HETATM   26  C   UNL     3      -9.831   6.143  66.234  1.00  0.00    -0.029 C  
HETATM   27  H   UNL     3     -11.592   5.890  66.953  1.00  0.00     0.000 HD 
HETATM   28  O   UNL     3     -11.017   5.377  66.398  1.00  0.00    -0.243 OA 
BRANCH  26  29
HETATM   29  C   UNL     3      -9.160   6.529  67.579  1.00  0.00    -0.115 C  
HETATM   30  O   UNL     3      -8.219   5.440  67.984  1.00  0.00    -0.099 OA 
HETATM   31  H   UNL     3      -7.809   5.677  68.807  1.00  0.00     0.000 HD 
BRANCH  29  32
HETATM   32  C   UNL     3      -8.229   7.758  67.494  1.00  0.00    -0.124 C  
HETATM   33  H   UNL     3      -6.277   8.017  67.428  1.00  0.00     0.000 HD 
HETATM   34  O   UNL     3      -6.851   7.261  67.481  1.00  0.00    -0.068 OA 
BRANCH  32  35
HETATM   35  C   UNL     3      -8.430   9.073  68.262  1.00  0.00    -0.129 C  
HETATM   36  H   UNL     3      -9.949   9.965  69.062  1.00  0.00     0.000 HD 
HETATM   37  O   UNL     3      -9.824   9.151  68.586  1.00  0.00    -0.156 OA 
BRANCH  35  38
HETATM   38  C   UNL     3      -7.540   9.299  69.479  1.00  0.00    -0.081 C  
HETATM   39  C   UNL     3      -6.229  10.022  69.071  1.00  0.00    -0.044 C  
HETATM   40  O   UNL     3      -7.198   8.048  70.107  1.00  0.00    -0.055 OA 
HETATM   41  O   UNL     3      -6.143  10.375  67.853  1.00  0.00    -0.048 OA 
HETATM   42  O   UNL     3      -5.321   9.958  69.944  1.00  0.00    -0.036 OA 
HETATM   43  H   UNL     3      -6.643   8.189  70.865  1.00  0.00     0.000 HD 
ENDBRANCH  35  38
ENDBRANCH  32  35
ENDBRANCH  29  32
ENDBRANCH  26  29
ENDBRANCH   6  26
TORSDOF 10
ENDMDL
MODEL      435
REMARK 921   NORMALIZED FREE ENERGY PREDICTED BY IDOCK:   -3.62 KCAL/MOL
REMARK 922        TOTAL FREE ENERGY PREDICTED BY IDOCK:   -8.24 KCAL/MOL
REMARK 923 INTER-LIGAND FREE ENERGY PREDICTED BY IDOCK:   -7.09 KCAL/MOL
REMARK 924 INTRA-LIGAND FREE ENERGY PREDICTED BY IDOCK:   -1.15 KCAL/MOL
REMARK 927      BINDING AFFINITY PREDICTED BY RF-SCORE:    0.00 PKD
ROOT
HETATM    1 CA   UNL     1      -6.499   6.824  68.751  1.00  0.00    -0.028 Ca 
HETATM    2  O   UNL     2      -6.409  12.060  66.406  1.00  0.00    -0.454 OA 
HETATM    3  O   UNL     3      -8.673   3.958  73.910  1.00  0.00    -0.093 OA 
HETATM    4  H   UNL     2      -5.520  12.339  66.592  1.00  0.00     0.000 HD 
HETATM    5  C   UNL     2      -6.624  10.777  66.992  1.00  0.00    -0.085 C  
HETATM    6  C   UNL     3      -7.493   4.556  73.380  1.00  0.00    -0.082 C  
HETATM    7  H   UNL     3      -8.483   3.084  74.229  1.00  0.00     0.000 HD 
ENDROOT
BRANCH   5   8
HETATM    8  C   UNL     2      -8.068  10.325  66.690  1.00  0.00    -0.119 C  
HETATM    9  O   UNL     2      -8.456   9.389  67.689  1.00  0.00    -0.118 OA 
HETATM   10  H   UNL     2      -9.346   9.110  67.503  1.00  0.00     0.000 HD 
BRANCH   8  11
HETATM   11  C   UNL     2      -9.046  11.510  66.742  1.00  0.00    -0.181 C  
HETATM   12  H   UNL     2      -8.989  13.517  66.644  1.00  0.00     0.000 HD 
HETATM   13  O   UNL     2      -8.384  12.784  66.611  1.00  0.00    -0.049 OA 
BRANCH  11  14
HETATM   14  C   UNL     2     -10.303  11.505  65.837  1.00  0.00    -0.247 C  
HETATM   15  O   UNL     2     -10.871  10.206  65.802  1.00  0.00     0.077 OA 
HETATM   16  H   UNL     2     -11.642  10.203  65.246  1.00  0.00     0.000 HD 
BRANCH  14  17
HETATM   17  C   UNL     2     -10.213  12.215  64.472  1.00  0.00    -0.293 C  
HETATM   18  H   UNL     2      -9.873  11.645  62.635  1.00  0.00     0.000 HD 
HETATM   19  O   UNL     2      -9.928  11.207  63.477  1.00  0.00    -0.306 OA 
BRANCH  17  20
HETATM   20  C   UNL     2     -11.417  13.071  64.083  1.00  0.00    -0.402 C  
HETATM   21  O   UNL     2     -12.662  12.413  64.406  1.00  0.00    -0.626 OA 
HETATM   22  C   UNL     2     -11.316  14.407  64.872  1.00  0.00    -0.380 C  
HETATM   23  H   UNL     2     -13.410  12.945  64.164  1.00  0.00     0.000 HD 
HETATM   24  O   UNL     2     -10.146  14.868  64.959  1.00  0.00    -0.360 OA 
HETATM   25  O   UNL     2     -12.422  14.807  65.323  1.00  0.00    -0.226 OA 
ENDBRANCH  17  20
ENDBRANCH  14  17
ENDBRANCH  11  14
ENDBRANCH   8  11
ENDBRANCH   5   8
BRANCH   6  26
HETATM   26  C   UNL     3      -7.800   5.969  72.864  1.00  0.00    -0.106 C  
HETATM   27  H   UNL     3      -6.813   7.611  72.758  1.00  0.00     0.000 HD 
HETATM   28  O   UNL     3      -6.623   6.737  73.077  1.00  0.00    -0.066 OA 
BRANCH  26  29
HETATM   29  C   UNL     3      -8.272   5.966  71.386  1.00  0.00    -0.123 C  
HETATM   30  O   UNL     3      -7.966   4.633  70.781  1.00  0.00    -0.073 OA 
HETATM   31  H   UNL     3      -8.255   4.632  69.876  1.00  0.00     0.000 HD 
BRANCH  29  32
HETATM   32  C   UNL     3      -9.803   6.067  71.209  1.00  0.00    -0.178 C  
HETATM   33  H   UNL     3     -11.193   4.888  70.461  1.00  0.00     0.000 HD 
HETATM   34  O   UNL     3     -10.251   4.827  70.570  1.00  0.00    -0.233 OA 
BRANCH  32  35
HETATM   35  C   UNL     3     -10.559   7.328  70.764  1.00  0.00    -0.223 C  
HETATM   36  H   UNL     3     -10.816   8.237  69.076  1.00  0.00     0.000 HD 
HETATM   37  O   UNL     3     -10.348   7.457  69.351  1.00  0.00    -0.200 OA 
BRANCH  35  38
HETATM   38  C   UNL     3     -12.035   7.410  71.138  1.00  0.00    -0.320 C  
HETATM   39  C   UNL     3     -12.409   8.851  71.575  1.00  0.00    -0.324 C  
HETATM   40  O   UNL     3     -12.343   6.508  72.219  1.00  0.00    -0.511 OA 
HETATM   41  O   UNL     3     -11.488   9.721  71.474  1.00  0.00    -0.378 OA 
HETATM   42  O   UNL     3     -13.506   8.925  72.193  1.00  0.00    -0.385 OA 
HETATM   43  H   UNL     3     -13.262   6.559  72.453  1.00  0.00     0.000 HD 
ENDBRANCH  35  38
ENDBRANCH  32  35
ENDBRANCH  29  32
ENDBRANCH  26  29
ENDBRANCH   6  26
TORSDOF 10
ENDMDL
MODEL      436
REMARK 921   NORMALIZED FREE ENERGY PREDICTED BY IDOCK:   -3.62 KCAL/MOL
REMARK 922        TOTAL FREE ENERGY PREDICTED BY IDOCK:   -8.24 KCAL/MOL
REMARK 923 INTER-LIGAND FREE ENERGY PREDICTED BY IDOCK:   -7.59 KCAL/MOL
REMARK 924 INTRA-LIGAND FREE ENERGY PREDICTED BY IDOCK:   -0.65 KCAL/MOL
REMARK 927      BINDING AFFINITY PREDICTED BY RF-SCORE:    0.00 PKD
ROOT
HETATM    1 CA   UNL     1     -10.118   9.670  72.498  1.00  0.00    -0.061 Ca 
HETATM    2  O   UNL     2     -14.295  13.571  71.992  1.00  0.00    -0.330 OA 
HETATM    3  O   UNL     3      -7.562   4.979  69.180  1.00  0.00    -0.070 OA 
HETATM    4  H   UNL     2     -14.977  13.193  72.535  1.00  0.00     0.000 HD 
HETATM    5  C   UNL     2     -13.185  12.675  71.955  1.00  0.00    -0.403 C  
HETATM    6  C   UNL     3      -8.527   5.226  70.199  1.00  0.00    -0.109 C  
HETATM    7  H   UNL     3      -6.946   4.315  69.466  1.00  0.00     0.000 HD 
ENDROOT
BRANCH   5   8
HETATM    8  C   UNL     2     -12.077  13.289  71.074  1.00  0.00    -0.062 C  
HETATM    9  O   UNL     2     -11.597  12.275  70.197  1.00  0.00    -0.509 OA 
HETATM   10  H   UNL     2     -10.915  12.653  69.654  1.00  0.00     0.000 HD 
BRANCH   8  11
HETATM   11  C   UNL     2     -12.621  14.443  70.216  1.00  0.00    -0.323 C  
HETATM   12  H   UNL     2     -12.937  16.421  70.377  1.00  0.00     0.000 HD 
HETATM   13  O   UNL     2     -12.601  15.707  70.907  1.00  0.00    -0.432 OA 
BRANCH  11  14
HETATM   14  C   UNL     2     -12.077  14.650  68.780  1.00  0.00    -0.202 C  
HETATM   15  O   UNL     2     -12.054  13.414  68.086  1.00  0.00    -0.335 OA 
HETATM   16  H   UNL     2     -11.721  13.541  67.205  1.00  0.00     0.000 HD 
BRANCH  14  17
HETATM   17  C   UNL     2     -10.819  15.521  68.603  1.00  0.00    -0.267 C  
HETATM   18  H   UNL     2      -9.021  15.229  67.897  1.00  0.00     0.000 HD 
HETATM   19  O   UNL     2      -9.798  14.691  68.006  1.00  0.00    -0.210 OA 
BRANCH  17  20
HETATM   20  C   UNL     2     -11.011  16.826  67.832  1.00  0.00    -0.260 C  
HETATM   21  O   UNL     2     -10.116  17.857  68.304  1.00  0.00    -0.332 OA 
HETATM   22  C   UNL     2     -10.721  16.531  66.333  1.00  0.00    -0.146 C  
HETATM   23  H   UNL     2     -10.235  18.668  67.824  1.00  0.00     0.000 HD 
HETATM   24  O   UNL     2     -11.167  15.424  65.929  1.00  0.00    -0.290 OA 
HETATM   25  O   UNL     2     -10.060  17.440  65.763  1.00  0.00    -0.544 OA 
ENDBRANCH  17  20
ENDBRANCH  14  17
ENDBRANCH  11  14
ENDBRANCH   8  11
ENDBRANCH   5   8
BRANCH   6  26
HETATM   26  C   UNL     3      -9.523   6.298  69.737  1.00  0.00    -0.151 C  
HETATM   27  H   UNL     3      -9.415   8.184  69.394  1.00  0.00     0.000 HD 
HETATM   28  O   UNL     3      -8.799   7.520  69.681  1.00  0.00    -0.140 OA 
BRANCH  26  29
HETATM   29  C   UNL     3     -10.205   5.928  68.393  1.00  0.00    -0.191 C  
HETATM   30  O   UNL     3     -11.641   6.339  68.447  1.00  0.00    -0.438 OA 
HETATM   31  H   UNL     3     -12.058   6.111  67.624  1.00  0.00     0.000 HD 
BRANCH  29  32
HETATM   32  C   UNL     3      -9.679   6.718  67.175  1.00  0.00    -0.151 C  
HETATM   33  H   UNL     3     -10.420   8.122  66.008  1.00  0.00     0.000 HD 
HETATM   34  O   UNL     3     -10.743   7.635  66.757  1.00  0.00    -0.318 OA 
BRANCH  32  35
HETATM   35  C   UNL     3      -8.856   6.122  66.023  1.00  0.00    -0.153 C  
HETATM   36  H   UNL     3      -7.006   5.604  65.798  1.00  0.00     0.000 HD 
HETATM   37  O   UNL     3      -7.516   5.973  66.510  1.00  0.00    -0.086 OA 
BRANCH  35  38
HETATM   38  C   UNL     3      -9.389   4.841  65.392  1.00  0.00    -0.156 C  
HETATM   39  C   UNL     3      -8.834   4.669  63.953  1.00  0.00    -0.135 C  
HETATM   40  O   UNL     3     -10.829   4.856  65.331  1.00  0.00    -0.570 OA 
HETATM   41  O   UNL     3      -7.991   5.540  63.572  1.00  0.00    -0.093 OA 
HETATM   42  O   UNL     3      -9.467   3.822  63.264  1.00  0.00    -0.116 OA 
HETATM   43  H   UNL     3     -11.161   4.058  64.937  1.00  0.00     0.000 HD 
ENDBRANCH  35  38
ENDBRANCH  32  35
ENDBRANCH  29  32
ENDBRANCH  26  29
ENDBRANCH   6  26
TORSDOF 10
ENDMDL
MODEL      437
REMARK 921   NORMALIZED FREE ENERGY PREDICTED BY IDOCK:   -3.62 KCAL/MOL
REMARK 922        TOTAL FREE ENERGY PREDICTED BY IDOCK:   -8.23 KCAL/MOL
REMARK 923 INTER-LIGAND FREE ENERGY PREDICTED BY IDOCK:   -7.38 KCAL/MOL
REMARK 924 INTRA-LIGAND FREE ENERGY PREDICTED BY IDOCK:   -0.85 KCAL/MOL
REMARK 927      BINDING AFFINITY PREDICTED BY RF-SCORE:    0.00 PKD
ROOT
HETATM    1 CA   UNL     1     -11.027  13.984  70.196  1.00  0.00    -0.318 Ca 
HETATM    2  O   UNL     2      -8.306   8.933  70.114  1.00  0.00    -0.117 OA 
HETATM    3  O   UNL     3     -10.408  19.761  67.789  1.00  0.00    -0.412 OA 
HETATM    4  H   UNL     2      -7.876   8.933  70.962  1.00  0.00     0.000 HD 
HETATM    5  C   UNL     2      -8.988  10.174  69.943  1.00  0.00    -0.067 C  
HETATM    6  C   UNL     3     -10.126  19.007  68.965  1.00  0.00    -0.271 C  
HETATM    7  H   UNL     3     -10.883  20.552  68.013  1.00  0.00     0.000 HD 
ENDROOT
BRANCH   5   8
HETATM    8  C   UNL     2      -9.687  10.174  68.567  1.00  0.00    -0.154 C  
HETATM    9  O   UNL     2     -10.617  11.251  68.543  1.00  0.00    -0.181 OA 
HETATM   10  H   UNL     2     -11.048  11.251  67.696  1.00  0.00     0.000 HD 
BRANCH   8  11
HETATM   11  C   UNL     2      -8.677  10.392  67.428  1.00  0.00    -0.125 C  
HETATM   12  H   UNL     2      -6.873  11.232  67.154  1.00  0.00     0.000 HD 
HETATM   13  O   UNL     2      -7.497  11.098  67.858  1.00  0.00    -0.089 OA 
BRANCH  11  14
HETATM   14  C   UNL     2      -8.249   9.192  66.546  1.00  0.00    -0.111 C  
HETATM   15  O   UNL     2      -8.687   7.977  67.132  1.00  0.00    -0.128 OA 
HETATM   16  H   UNL     2      -8.424   7.242  66.591  1.00  0.00     0.000 HD 
BRANCH  14  17
HETATM   17  C   UNL     2      -6.807   9.172  66.005  1.00  0.00    -0.084 C  
HETATM   18  H   UNL     2      -5.388   7.834  65.895  1.00  0.00     0.000 HD 
HETATM   19  O   UNL     2      -6.278   7.846  66.229  1.00  0.00    -0.044 OA 
BRANCH  17  20
HETATM   20  C   UNL     2      -6.630   9.616  64.554  1.00  0.00    -0.102 C  
HETATM   21  O   UNL     2      -5.255   9.958  64.269  1.00  0.00    -0.061 OA 
HETATM   22  C   UNL     2      -7.071   8.433  63.646  1.00  0.00    -0.089 C  
HETATM   23  H   UNL     2      -5.146  10.234  63.366  1.00  0.00     0.000 HD 
HETATM   24  O   UNL     2      -8.092   7.821  64.056  1.00  0.00    -0.131 OA 
HETATM   25  O   UNL     2      -6.317   8.258  62.652  1.00  0.00    -0.085 OA 
ENDBRANCH  17  20
ENDBRANCH  14  17
ENDBRANCH  11  14
ENDBRANCH   8  11
ENDBRANCH   5   8
BRANCH   6  26
HETATM   26  C   UNL     3      -9.357  17.728  68.603  1.00  0.00    -0.275 C  
HETATM   27  H   UNL     3      -9.433  15.900  69.180  1.00  0.00     0.000 HD 
HETATM   28  O   UNL     3      -9.908  16.691  69.404  1.00  0.00    -0.219 OA 
BRANCH  26  29
HETATM   29  C   UNL     3      -9.408  17.422  67.083  1.00  0.00    -0.245 C  
HETATM   30  O   UNL     3      -8.449  18.325  66.373  1.00  0.00    -0.290 OA 
HETATM   31  H   UNL     3      -8.481  18.137  65.443  1.00  0.00     0.000 HD 
BRANCH  29  32
HETATM   32  C   UNL     3      -8.887  16.020  66.701  1.00  0.00    -0.272 C  
HETATM   33  H   UNL     3      -7.192  15.318  65.984  1.00  0.00     0.000 HD 
HETATM   34  O   UNL     3      -7.513  16.181  66.219  1.00  0.00    -0.076 OA 
BRANCH  32  35
HETATM   35  C   UNL     3      -9.703  14.944  65.967  1.00  0.00    -0.328 C  
HETATM   36  H   UNL     3     -10.384  13.196  66.437  1.00  0.00     0.000 HD 
HETATM   37  O   UNL     3      -9.879  13.861  66.890  1.00  0.00    -0.253 OA 
BRANCH  35  38
HETATM   38  C   UNL     3     -11.020  15.391  65.342  1.00  0.00    -0.368 C  
HETATM   39  C   UNL     3     -11.746  14.190  64.681  1.00  0.00    -0.417 C  
HETATM   40  O   UNL     3     -10.797  16.402  64.339  1.00  0.00    -0.996 OA 
HETATM   41  O   UNL     3     -11.197  13.054  64.832  1.00  0.00    -0.290 OA 
HETATM   42  O   UNL     3     -12.663  14.528  63.882  1.00  0.00    -0.782 OA 
HETATM   43  H   UNL     3     -11.618  16.680  63.949  1.00  0.00     0.000 HD 
ENDBRANCH  35  38
ENDBRANCH  32  35
ENDBRANCH  29  32
ENDBRANCH  26  29
ENDBRANCH   6  26
TORSDOF 10
ENDMDL
MODEL      438
REMARK 921   NORMALIZED FREE ENERGY PREDICTED BY IDOCK:   -3.61 KCAL/MOL
REMARK 922        TOTAL FREE ENERGY PREDICTED BY IDOCK:   -8.22 KCAL/MOL
REMARK 923 INTER-LIGAND FREE ENERGY PREDICTED BY IDOCK:   -6.33 KCAL/MOL
REMARK 924 INTRA-LIGAND FREE ENERGY PREDICTED BY IDOCK:   -1.89 KCAL/MOL
REMARK 927      BINDING AFFINITY PREDICTED BY RF-SCORE:    0.00 PKD
ROOT
HETATM    1 CA   UNL     1     -11.637   6.638  68.211  1.00  0.00    -0.373 Ca 
HETATM    2  O   UNL     2      -9.121   2.621  71.444  1.00  0.00    -0.085 OA 
HETATM    3  O   UNL     3     -10.325  12.276  65.751  1.00  0.00    -0.246 OA 
HETATM    4  H   UNL     2      -9.530   2.770  72.288  1.00  0.00     0.000 HD 
HETATM    5  C   UNL     2      -9.596   3.600  70.521  1.00  0.00    -0.186 C  
HETATM    6  C   UNL     3     -10.957  11.670  66.875  1.00  0.00    -0.292 C  
HETATM    7  H   UNL     3     -10.914  12.896  65.338  1.00  0.00     0.000 HD 
ENDROOT
BRANCH   5   8
HETATM    8  C   UNL     2      -8.932   3.357  69.149  1.00  0.00    -0.122 C  
HETATM    9  O   UNL     2      -9.651   2.322  68.487  1.00  0.00    -0.186 OA 
HETATM   10  H   UNL     2      -9.242   2.173  67.642  1.00  0.00     0.000 HD 
BRANCH   8  11
HETATM   11  C   UNL     2      -8.990   4.616  68.270  1.00  0.00    -0.114 C  
HETATM   12  H   UNL     2      -8.611   6.584  68.429  1.00  0.00     0.000 HD 
HETATM   13  O   UNL     2      -8.575   5.805  68.972  1.00  0.00    -0.106 OA 
BRANCH  11  14
HETATM   14  C   UNL     2      -8.323   4.605  66.872  1.00  0.00    -0.106 C  
HETATM   15  O   UNL     2      -6.997   5.099  66.962  1.00  0.00    -0.062 OA 
HETATM   16  H   UNL     2      -6.588   5.092  66.104  1.00  0.00     0.000 HD 
BRANCH  14  17
HETATM   17  C   UNL     2      -9.138   5.138  65.679  1.00  0.00    -0.157 C  
HETATM   18  H   UNL     2      -9.409   6.890  64.859  1.00  0.00     0.000 HD 
HETATM   19  O   UNL     2      -8.906   6.561  65.595  1.00  0.00    -0.133 OA 
BRANCH  17  20
HETATM   20  C   UNL     2      -8.895   4.444  64.338  1.00  0.00    -0.149 C  
HETATM   21  O   UNL     2      -7.632   3.742  64.328  1.00  0.00    -0.076 OA 
HETATM   22  C   UNL     2     -10.054   3.433  64.117  1.00  0.00    -0.192 C  
HETATM   23  H   UNL     2      -7.481   3.311  63.495  1.00  0.00     0.000 HD 
HETATM   24  O   UNL     2     -11.186   3.858  64.473  1.00  0.00    -0.305 OA 
HETATM   25  O   UNL     2      -9.673   2.332  63.638  1.00  0.00    -0.117 OA 
ENDBRANCH  17  20
ENDBRANCH  14  17
ENDBRANCH  11  14
ENDBRANCH   8  11
ENDBRANCH   5   8
BRANCH   6  26
HETATM   26  C   UNL     3     -10.005  10.667  67.542  1.00  0.00    -0.171 C  
HETATM   27  H   UNL     3      -8.691  10.776  68.937  1.00  0.00     0.000 HD 
HETATM   28  O   UNL     3      -9.281  11.396  68.524  1.00  0.00    -0.178 OA 
BRANCH  26  29
HETATM   29  C   UNL     3     -10.755   9.438  68.119  1.00  0.00    -0.178 C  
HETATM   30  O   UNL     3      -9.928   8.213  67.891  1.00  0.00    -0.165 OA 
HETATM   31  H   UNL     3     -10.387   7.460  68.245  1.00  0.00     0.000 HD 
BRANCH  29  32
HETATM   32  C   UNL     3     -10.908   9.453  69.656  1.00  0.00    -0.228 C  
HETATM   33  H   UNL     3      -9.693   9.794  71.168  1.00  0.00     0.000 HD 
HETATM   34  O   UNL     3      -9.598   9.784  70.223  1.00  0.00    -0.249 OA 
BRANCH  32  35
HETATM   35  C   UNL     3     -11.722   8.436  70.472  1.00  0.00    -0.070 C  
HETATM   36  H   UNL     3     -11.410   6.635  71.103  1.00  0.00     0.000 HD 
HETATM   37  O   UNL     3     -10.907   7.263  70.598  1.00  0.00    -0.231 OA 
BRANCH  35  38
HETATM   38  C   UNL     3     -12.263   8.912  71.815  1.00  0.00    -0.359 C  
HETATM   39  C   UNL     3     -13.714   8.409  72.030  1.00  0.00    -0.374 C  
HETATM   40  O   UNL     3     -12.260  10.352  71.891  1.00  0.00    -0.245 OA 
HETATM   41  O   UNL     3     -14.177   7.639  71.130  1.00  0.00    -0.324 OA 
HETATM   42  O   UNL     3     -14.331   9.015  72.950  1.00  0.00    -0.550 OA 
HETATM   43  H   UNL     3     -12.597  10.649  72.729  1.00  0.00     0.000 HD 
ENDBRANCH  35  38
ENDBRANCH  32  35
ENDBRANCH  29  32
ENDBRANCH  26  29
ENDBRANCH   6  26
TORSDOF 10
ENDMDL
MODEL      439
REMARK 921   NORMALIZED FREE ENERGY PREDICTED BY IDOCK:   -3.60 KCAL/MOL
REMARK 922        TOTAL FREE ENERGY PREDICTED BY IDOCK:   -8.20 KCAL/MOL
REMARK 923 INTER-LIGAND FREE ENERGY PREDICTED BY IDOCK:   -5.84 KCAL/MOL
REMARK 924 INTRA-LIGAND FREE ENERGY PREDICTED BY IDOCK:   -2.35 KCAL/MOL
REMARK 927      BINDING AFFINITY PREDICTED BY RF-SCORE:    0.00 PKD
ROOT
HETATM    1 CA   UNL     1      -6.928  10.769  69.349  1.00  0.00    -0.052 Ca 
HETATM    2  O   UNL     2      -5.392   5.795  71.761  1.00  0.00    -0.019 OA 
HETATM    3  O   UNL     3     -12.162  13.965  67.955  1.00  0.00    -0.463 OA 
HETATM    4  H   UNL     2      -5.169   5.273  70.999  1.00  0.00     0.000 HD 
HETATM    5  C   UNL     2      -5.868   7.067  71.326  1.00  0.00    -0.036 C  
HETATM    6  C   UNL     3     -11.210  13.077  67.375  1.00  0.00    -0.288 C  
HETATM    7  H   UNL     3     -12.259  14.741  67.415  1.00  0.00     0.000 HD 
ENDROOT
BRANCH   5   8
HETATM    8  C   UNL     2      -6.230   7.915  72.564  1.00  0.00    -0.056 C  
HETATM    9  O   UNL     2      -5.977   9.281  72.253  1.00  0.00    -0.212 OA 
HETATM   10  H   UNL     2      -6.199   9.804  73.015  1.00  0.00     0.000 HD 
BRANCH   8  11
HETATM   11  C   UNL     2      -7.719   7.776  72.920  1.00  0.00    -0.108 C  
HETATM   12  H   UNL     2      -9.060   8.630  74.149  1.00  0.00     0.000 HD 
HETATM   13  O   UNL     2      -8.140   8.716  73.929  1.00  0.00    -0.398 OA 
BRANCH  11  14
HETATM   14  C   UNL     2      -8.777   7.748  71.790  1.00  0.00    -0.119 C  
HETATM   15  O   UNL     2      -9.089   9.071  71.384  1.00  0.00    -0.239 OA 
HETATM   16  H   UNL     2      -9.738   9.054  70.691  1.00  0.00     0.000 HD 
BRANCH  14  17
HETATM   17  C   UNL     2      -9.991   6.815  71.959  1.00  0.00    -0.171 C  
HETATM   18  H   UNL     2     -10.906   5.515  70.825  1.00  0.00     0.000 HD 
HETATM   19  O   UNL     2     -10.157   6.091  70.720  1.00  0.00    -0.185 OA 
BRANCH  17  20
HETATM   20  C   UNL     2      -9.950   5.876  73.164  1.00  0.00    -0.177 C  
HETATM   21  O   UNL     2     -11.279   5.566  73.638  1.00  0.00    -0.450 OA 
HETATM   22  C   UNL     2      -9.240   4.568  72.714  1.00  0.00    -0.128 C  
HETATM   23  H   UNL     2     -11.254   4.982  74.387  1.00  0.00     0.000 HD 
HETATM   24  O   UNL     2      -8.252   4.752  71.955  1.00  0.00    -0.106 OA 
HETATM   25  O   UNL     2      -9.784   3.524  73.163  1.00  0.00    -0.111 OA 
ENDBRANCH  17  20
ENDBRANCH  14  17
ENDBRANCH  11  14
ENDBRANCH   8  11
ENDBRANCH   5   8
BRANCH   6  26
HETATM   26  C   UNL     3     -11.054  11.825  68.247  1.00  0.00    -0.240 C  
HETATM   27  H   UNL     3     -12.064  10.210  68.486  1.00  0.00     0.000 HD 
HETATM   28  O   UNL     3     -12.161  10.985  67.946  1.00  0.00    -0.600 OA 
BRANCH  26  29
HETATM   29  C   UNL     3      -9.682  11.129  68.038  1.00  0.00    -0.176 C  
HETATM   30  O   UNL     3      -9.001  10.990  69.362  1.00  0.00    -0.395 OA 
HETATM   31  H   UNL     3      -8.161  10.564  69.233  1.00  0.00     0.000 HD 
BRANCH  29  32
HETATM   32  C   UNL     3      -9.780   9.664  67.560  1.00  0.00    -0.158 C  
HETATM   33  H   UNL     3     -10.324   7.966  68.396  1.00  0.00     0.000 HD 
HETATM   34  O   UNL     3     -10.263   8.867  68.690  1.00  0.00    -0.190 OA 
BRANCH  32  35
HETATM   35  C   UNL     3      -8.749   8.956  66.668  1.00  0.00    -0.127 C  
HETATM   36  H   UNL     3      -7.551   9.520  65.259  1.00  0.00     0.000 HD 
HETATM   37  O   UNL     3      -8.189   9.958  65.810  1.00  0.00    -0.119 OA 
BRANCH  35  38
HETATM   38  C   UNL     3      -7.676   8.137  67.379  1.00  0.00    -0.102 C  
HETATM   39  C   UNL     3      -8.030   6.627  67.346  1.00  0.00    -0.114 C  
HETATM   40  O   UNL     3      -7.541   8.548  68.754  1.00  0.00    -0.093 OA 
HETATM   41  O   UNL     3      -9.070   6.311  66.686  1.00  0.00    -0.134 OA 
HETATM   42  O   UNL     3      -7.374   5.934  68.172  1.00  0.00    -0.077 OA 
HETATM   43  H   UNL     3      -6.873   8.038  69.196  1.00  0.00     0.000 HD 
ENDBRANCH  35  38
ENDBRANCH  32  35
ENDBRANCH  29  32
ENDBRANCH  26  29
ENDBRANCH   6  26
TORSDOF 10
ENDMDL
MODEL      440
REMARK 921   NORMALIZED FREE ENERGY PREDICTED BY IDOCK:   -3.58 KCAL/MOL
REMARK 922        TOTAL FREE ENERGY PREDICTED BY IDOCK:   -8.18 KCAL/MOL
REMARK 923 INTER-LIGAND FREE ENERGY PREDICTED BY IDOCK:   -7.82 KCAL/MOL
REMARK 924 INTRA-LIGAND FREE ENERGY PREDICTED BY IDOCK:   -0.36 KCAL/MOL
REMARK 927      BINDING AFFINITY PREDICTED BY RF-SCORE:    0.00 PKD
ROOT
HETATM    1 CA   UNL     1     -12.703  12.706  68.898  1.00  0.00    -0.171 Ca 
HETATM    2  O   UNL     2     -12.220  14.063  63.344  1.00  0.00    -1.039 OA 
HETATM    3  O   UNL     3     -10.701   8.295  72.910  1.00  0.00    -0.320 OA 
HETATM    4  H   UNL     2     -13.058  13.773  63.003  1.00  0.00     0.000 HD 
HETATM    5  C   UNL     2     -12.147  13.732  64.730  1.00  0.00    -0.410 C  
HETATM    6  C   UNL     3     -11.816   8.632  72.089  1.00  0.00    -0.377 C  
HETATM    7  H   UNL     3     -10.988   8.127  73.800  1.00  0.00     0.000 HD 
ENDROOT
BRANCH   5   8
HETATM    8  C   UNL     2     -10.786  14.202  65.285  1.00  0.00    -0.364 C  
HETATM    9  O   UNL     2     -11.030  15.220  66.250  1.00  0.00    -0.322 OA 
HETATM   10  H   UNL     2     -10.192  15.510  66.591  1.00  0.00     0.000 HD 
BRANCH   8  11
HETATM   11  C   UNL     2     -10.041  13.053  65.983  1.00  0.00    -0.284 C  
HETATM   12  H   UNL     2      -8.795  12.790  67.538  1.00  0.00     0.000 HD 
HETATM   13  O   UNL     2      -9.256  13.500  67.107  1.00  0.00    -0.218 OA 
BRANCH  11  14
HETATM   14  C   UNL     2     -10.815  11.776  66.392  1.00  0.00    -0.282 C  
HETATM   15  O   UNL     2     -10.829  11.647  67.805  1.00  0.00    -0.197 OA 
HETATM   16  H   UNL     2     -11.304  10.863  68.055  1.00  0.00     0.000 HD 
BRANCH  14  17
HETATM   17  C   UNL     2     -10.521  10.475  65.622  1.00  0.00    -0.143 C  
HETATM   18  H   UNL     2      -9.739  10.041  63.885  1.00  0.00     0.000 HD 
HETATM   19  O   UNL     2      -9.921  10.844  64.360  1.00  0.00    -0.267 OA 
BRANCH  17  20
HETATM   20  C   UNL     2      -9.686   9.432  66.363  1.00  0.00    -0.250 C  
HETATM   21  O   UNL     2     -10.226   8.103  66.193  1.00  0.00    -0.460 OA 
HETATM   22  C   UNL     2      -8.245   9.486  65.782  1.00  0.00    -0.116 C  
HETATM   23  H   UNL     2      -9.707   7.454  66.654  1.00  0.00     0.000 HD 
HETATM   24  O   UNL     2      -7.830  10.651  65.540  1.00  0.00    -0.154 OA 
HETATM   25  O   UNL     2      -7.727   8.349  65.621  1.00  0.00    -0.092 OA 
ENDBRANCH  17  20
ENDBRANCH  14  17
ENDBRANCH  11  14
ENDBRANCH   8  11
ENDBRANCH   5   8
BRANCH   6  26
HETATM   26  C   UNL     3     -11.352   8.905  70.651  1.00  0.00    -0.259 C  
HETATM   27  H   UNL     3     -10.422  10.341  69.782  1.00  0.00     0.000 HD 
HETATM   28  O   UNL     3     -10.709  10.172  70.672  1.00  0.00    -0.297 OA 
BRANCH  26  29
HETATM   29  C   UNL     3     -10.452   7.769  70.098  1.00  0.00    -0.231 C  
HETATM   30  O   UNL     3     -11.002   7.308  68.786  1.00  0.00    -0.408 OA 
HETATM   31  H   UNL     3     -10.450   6.612  68.448  1.00  0.00     0.000 HD 
BRANCH  29  32
HETATM   32  C   UNL     3      -9.024   8.218  69.720  1.00  0.00    -0.146 C  
HETATM   33  H   UNL     3      -7.725   7.690  68.336  1.00  0.00     0.000 HD 
HETATM   34  O   UNL     3      -8.603   7.413  68.570  1.00  0.00    -0.128 OA 
BRANCH  32  35
HETATM   35  C   UNL     3      -7.905   8.541  70.721  1.00  0.00    -0.097 C  
HETATM   36  H   UNL     3      -7.011  10.159  71.289  1.00  0.00     0.000 HD 
HETATM   37  O   UNL     3      -7.703   9.959  70.670  1.00  0.00    -0.289 OA 
BRANCH  35  38
HETATM   38  C   UNL     3      -8.094   8.035  72.147  1.00  0.00    -0.134 C  
HETATM   39  C   UNL     3      -6.787   8.205  72.965  1.00  0.00    -0.103 C  
HETATM   40  O   UNL     3      -8.463   6.641  72.154  1.00  0.00    -0.113 OA 
HETATM   41  O   UNL     3      -5.830   8.793  72.372  1.00  0.00    -0.069 OA 
HETATM   42  O   UNL     3      -6.765   7.530  74.032  1.00  0.00    -0.079 OA 
HETATM   43  H   UNL     3      -8.581   6.326  73.043  1.00  0.00     0.000 HD 
ENDBRANCH  35  38
ENDBRANCH  32  35
ENDBRANCH  29  32
ENDBRANCH  26  29
ENDBRANCH   6  26
TORSDOF 10
ENDMDL
MODEL      441
REMARK 921   NORMALIZED FREE ENERGY PREDICTED BY IDOCK:   -3.56 KCAL/MOL
REMARK 922        TOTAL FREE ENERGY PREDICTED BY IDOCK:   -8.15 KCAL/MOL
REMARK 923 INTER-LIGAND FREE ENERGY PREDICTED BY IDOCK:   -5.60 KCAL/MOL
REMARK 924 INTRA-LIGAND FREE ENERGY PREDICTED BY IDOCK:   -2.55 KCAL/MOL
REMARK 927      BINDING AFFINITY PREDICTED BY RF-SCORE:    0.00 PKD
ROOT
HETATM    1 CA   UNL     1     -11.702   7.094  68.046  1.00  0.00    -0.466 Ca 
HETATM    2  O   UNL     2      -9.244   2.995  71.220  1.00  0.00    -0.100 OA 
HETATM    3  O   UNL     3     -10.480  12.925  66.031  1.00  0.00    -0.267 OA 
HETATM    4  H   UNL     2      -9.721   3.074  72.038  1.00  0.00     0.000 HD 
HETATM    5  C   UNL     2      -9.696   4.008  70.323  1.00  0.00    -0.193 C  
HETATM    6  C   UNL     3     -11.164  12.224  67.065  1.00  0.00    -0.310 C  
HETATM    7  H   UNL     3     -11.066  13.544  65.611  1.00  0.00     0.000 HD 
ENDROOT
BRANCH   5   8
HETATM    8  C   UNL     2      -8.921   3.880  68.994  1.00  0.00    -0.119 C  
HETATM    9  O   UNL     2      -9.611   2.947  68.169  1.00  0.00    -0.189 OA 
HETATM   10  H   UNL     2      -9.134   2.868  67.351  1.00  0.00     0.000 HD 
BRANCH   8  11
HETATM   11  C   UNL     2      -8.863   5.223  68.250  1.00  0.00    -0.104 C  
HETATM   12  H   UNL     2      -8.215   7.098  68.572  1.00  0.00     0.000 HD 
HETATM   13  O   UNL     2      -8.251   6.267  69.032  1.00  0.00    -0.111 OA 
BRANCH  11  14
HETATM   14  C   UNL     2      -8.292   5.277  66.811  1.00  0.00    -0.108 C  
HETATM   15  O   UNL     2      -6.880   5.411  66.854  1.00  0.00    -0.060 OA 
HETATM   16  H   UNL     2      -6.530   5.444  65.972  1.00  0.00     0.000 HD 
BRANCH  14  17
HETATM   17  C   UNL     2      -9.001   6.180  65.785  1.00  0.00    -0.086 C  
HETATM   18  H   UNL     2     -10.808   6.895  65.585  1.00  0.00     0.000 HD 
HETATM   19  O   UNL     2     -10.370   6.338  66.219  1.00  0.00    -0.047 OA 
BRANCH  17  20
HETATM   20  C   UNL     2      -8.336   7.527  65.506  1.00  0.00    -0.133 C  
HETATM   21  O   UNL     2      -7.607   8.006  66.658  1.00  0.00    -0.090 OA 
HETATM   22  C   UNL     2      -7.356   7.327  64.316  1.00  0.00    -0.086 C  
HETATM   23  H   UNL     2      -7.193   8.844  66.484  1.00  0.00     0.000 HD 
HETATM   24  O   UNL     2      -7.796   6.579  63.403  1.00  0.00    -0.108 OA 
HETATM   25  O   UNL     2      -6.258   7.929  64.465  1.00  0.00    -0.051 OA 
ENDBRANCH  17  20
ENDBRANCH  14  17
ENDBRANCH  11  14
ENDBRANCH   8  11
ENDBRANCH   5   8
BRANCH   6  26
HETATM   26  C   UNL     3     -10.218  11.224  67.743  1.00  0.00    -0.180 C  
HETATM   27  H   UNL     3      -9.015  11.302  69.237  1.00  0.00     0.000 HD 
HETATM   28  O   UNL     3      -9.601  11.921  68.817  1.00  0.00    -0.135 OA 
BRANCH  26  29
HETATM   29  C   UNL     3     -10.950   9.931  68.191  1.00  0.00    -0.207 C  
HETATM   30  O   UNL     3      -9.990   8.785  68.137  1.00  0.00    -0.160 OA 
HETATM   31  H   UNL     3     -10.439   7.994  68.411  1.00  0.00     0.000 HD 
BRANCH  29  32
HETATM   32  C   UNL     3     -11.384   9.930  69.673  1.00  0.00    -0.165 C  
HETATM   33  H   UNL     3     -11.632  11.319  71.047  1.00  0.00     0.000 HD 
HETATM   34  O   UNL     3     -11.364  11.320  70.136  1.00  0.00    -0.265 OA 
BRANCH  32  35
HETATM   35  C   UNL     3     -10.943   8.897  70.722  1.00  0.00    -0.253 C  
HETATM   36  H   UNL     3     -11.179   6.989  70.937  1.00  0.00     0.000 HD 
HETATM   37  O   UNL     3     -11.452   7.628  70.289  1.00  0.00    -0.237 OA 
BRANCH  35  38
HETATM   38  C   UNL     3      -9.455   8.843  71.046  1.00  0.00    -0.252 C  
HETATM   39  C   UNL     3      -9.231   8.398  72.515  1.00  0.00    -0.268 C  
HETATM   40  O   UNL     3      -8.839  10.133  70.859  1.00  0.00    -0.140 OA 
HETATM   41  O   UNL     3     -10.275   8.078  73.166  1.00  0.00    -0.322 OA 
HETATM   42  O   UNL     3      -8.069   8.635  72.947  1.00  0.00    -0.388 OA 
HETATM   43  H   UNL     3      -7.912  10.099  71.061  1.00  0.00     0.000 HD 
ENDBRANCH  35  38
ENDBRANCH  32  35
ENDBRANCH  29  32
ENDBRANCH  26  29
ENDBRANCH   6  26
TORSDOF 10
ENDMDL
MODEL      442
REMARK 921   NORMALIZED FREE ENERGY PREDICTED BY IDOCK:   -3.54 KCAL/MOL
REMARK 922        TOTAL FREE ENERGY PREDICTED BY IDOCK:   -8.11 KCAL/MOL
REMARK 923 INTER-LIGAND FREE ENERGY PREDICTED BY IDOCK:   -7.13 KCAL/MOL
REMARK 924 INTRA-LIGAND FREE ENERGY PREDICTED BY IDOCK:   -0.98 KCAL/MOL
REMARK 927      BINDING AFFINITY PREDICTED BY RF-SCORE:    0.00 PKD
ROOT
HETATM    1 CA   UNL     1     -10.361   7.189  67.261  1.00  0.00    -0.148 Ca 
HETATM    2  O   UNL     2      -7.147  10.180  63.567  1.00  0.00    -0.131 OA 
HETATM    3  O   UNL     3      -9.656   3.750  72.479  1.00  0.00    -0.122 OA 
HETATM    4  H   UNL     2      -7.099   9.584  62.828  1.00  0.00     0.000 HD 
HETATM    5  C   UNL     2      -7.871   9.549  64.622  1.00  0.00    -0.122 C  
HETATM    6  C   UNL     3      -9.767   3.619  71.065  1.00  0.00    -0.173 C  
HETATM    7  H   UNL     3     -10.289   3.188  72.911  1.00  0.00     0.000 HD 
ENDROOT
BRANCH   5   8
HETATM    8  C   UNL     2      -7.948  10.517  65.822  1.00  0.00    -0.158 C  
HETATM    9  O   UNL     2      -6.785  11.338  65.804  1.00  0.00    -0.366 OA 
HETATM   10  H   UNL     2      -6.833  11.934  66.543  1.00  0.00     0.000 HD 
BRANCH   8  11
HETATM   11  C   UNL     2      -9.179  11.432  65.723  1.00  0.00    -0.208 C  
HETATM   12  H   UNL     2     -10.766  11.697  64.519  1.00  0.00     0.000 HD 
HETATM   13  O   UNL     2     -10.005  11.132  64.580  1.00  0.00    -0.249 OA 
BRANCH  11  14
HETATM   14  C   UNL     2     -10.090  11.627  66.960  1.00  0.00    -0.209 C  
HETATM   15  O   UNL     2     -10.652  10.384  67.350  1.00  0.00    -0.231 OA 
HETATM   16  H   UNL     2     -11.211  10.503  68.109  1.00  0.00     0.000 HD 
BRANCH  14  17
HETATM   17  C   UNL     2     -11.073  12.813  66.955  1.00  0.00    -0.270 C  
HETATM   18  H   UNL     2     -12.954  13.051  66.485  1.00  0.00     0.000 HD 
HETATM   19  O   UNL     2     -12.348  12.318  66.488  1.00  0.00    -0.504 OA 
BRANCH  17  20
HETATM   20  C   UNL     2     -11.208  13.576  68.272  1.00  0.00    -0.274 C  
HETATM   21  O   UNL     2     -10.745  12.787  69.390  1.00  0.00    -0.439 OA 
HETATM   22  C   UNL     2     -10.350  14.867  68.155  1.00  0.00    -0.237 C  
HETATM   23  H   UNL     2     -10.829  13.261  70.209  1.00  0.00     0.000 HD 
HETATM   24  O   UNL     2     -10.412  15.428  67.029  1.00  0.00    -0.282 OA 
HETATM   25  O   UNL     2      -9.705  15.136  69.204  1.00  0.00    -0.215 OA 
ENDBRANCH  17  20
ENDBRANCH  14  17
ENDBRANCH  11  14
ENDBRANCH   8  11
ENDBRANCH   5   8
BRANCH   6  26
HETATM   26  C   UNL     3      -8.744   4.526  70.367  1.00  0.00    -0.082 C  
HETATM   27  H   UNL     3      -8.768   5.628  68.796  1.00  0.00     0.000 HD 
HETATM   28  O   UNL     3      -9.401   5.067  69.227  1.00  0.00    -0.109 OA 
BRANCH  26  29
HETATM   29  C   UNL     3      -8.175   5.612  71.318  1.00  0.00    -0.125 C  
HETATM   30  O   UNL     3      -6.744   5.865  70.966  1.00  0.00    -0.056 OA 
HETATM   31  H   UNL     3      -6.396   6.529  71.549  1.00  0.00     0.000 HD 
BRANCH  29  32
HETATM   32  C   UNL     3      -8.812   7.007  71.142  1.00  0.00    -0.141 C  
HETATM   33  H   UNL     3      -8.186   8.739  70.442  1.00  0.00     0.000 HD 
HETATM   34  O   UNL     3      -7.794   7.880  70.551  1.00  0.00    -0.091 OA 
BRANCH  32  35
HETATM   35  C   UNL     3      -9.732   7.694  72.164  1.00  0.00    -0.173 C  
HETATM   36  H   UNL     3     -10.341   9.508  72.444  1.00  0.00     0.000 HD 
HETATM   37  O   UNL     3      -9.772   9.083  71.812  1.00  0.00    -0.304 OA 
BRANCH  35  38
HETATM   38  C   UNL     3     -11.125   7.101  72.338  1.00  0.00    -0.266 C  
HETATM   39  C   UNL     3     -11.967   7.294  71.049  1.00  0.00    -0.327 C  
HETATM   40  O   UNL     3     -11.818   7.726  73.437  1.00  0.00    -0.555 OA 
HETATM   41  O   UNL     3     -11.362   7.816  70.061  1.00  0.00    -0.185 OA 
HETATM   42  O   UNL     3     -13.205   7.123  71.221  1.00  0.00    -0.377 OA 
HETATM   43  H   UNL     3     -12.686   7.356  73.545  1.00  0.00     0.000 HD 
ENDBRANCH  35  38
ENDBRANCH  32  35
ENDBRANCH  29  32
ENDBRANCH  26  29
ENDBRANCH   6  26
TORSDOF 10
ENDMDL
MODEL      443
REMARK 921   NORMALIZED FREE ENERGY PREDICTED BY IDOCK:   -3.53 KCAL/MOL
REMARK 922        TOTAL FREE ENERGY PREDICTED BY IDOCK:   -8.09 KCAL/MOL
REMARK 923 INTER-LIGAND FREE ENERGY PREDICTED BY IDOCK:   -6.72 KCAL/MOL
REMARK 924 INTRA-LIGAND FREE ENERGY PREDICTED BY IDOCK:   -1.37 KCAL/MOL
REMARK 927      BINDING AFFINITY PREDICTED BY RF-SCORE:    0.00 PKD
ROOT
HETATM    1 CA   UNL     1      -7.207  10.776  69.292  1.00  0.00    -0.058 Ca 
HETATM    2  O   UNL     2      -6.432   5.464  71.320  1.00  0.00    -0.033 OA 
HETATM    3  O   UNL     3     -11.923  14.626  67.716  1.00  0.00    -0.486 OA 
HETATM    4  H   UNL     2      -6.178   4.994  70.534  1.00  0.00     0.000 HD 
HETATM    5  C   UNL     2      -6.733   6.815  70.972  1.00  0.00    -0.054 C  
HETATM    6  C   UNL     3     -11.003  13.700  67.146  1.00  0.00    -0.288 C  
HETATM    7  H   UNL     3     -11.885  15.454  67.252  1.00  0.00     0.000 HD 
ENDROOT
BRANCH   5   8
HETATM    8  C   UNL     2      -7.146   7.579  72.248  1.00  0.00    -0.068 C  
HETATM    9  O   UNL     2      -6.713   8.929  72.115  1.00  0.00    -0.228 OA 
HETATM   10  H   UNL     2      -6.968   9.399  72.901  1.00  0.00     0.000 HD 
BRANCH   8  11
HETATM   11  C   UNL     2      -8.672   7.582  72.427  1.00  0.00    -0.123 C  
HETATM   12  H   UNL     2     -10.087   8.733  73.272  1.00  0.00     0.000 HD 
HETATM   13  O   UNL     2      -9.144   8.730  73.161  1.00  0.00    -0.239 OA 
BRANCH  11  14
HETATM   14  C   UNL     2      -9.587   7.367  71.197  1.00  0.00    -0.159 C  
HETATM   15  O   UNL     2      -9.861   8.610  70.571  1.00  0.00    -0.169 OA 
HETATM   16  H   UNL     2     -10.422   8.477  69.815  1.00  0.00     0.000 HD 
BRANCH  14  17
HETATM   17  C   UNL     2     -10.804   6.435  71.355  1.00  0.00    -0.253 C  
HETATM   18  H   UNL     2     -11.668   5.085  70.240  1.00  0.00     0.000 HD 
HETATM   19  O   UNL     2     -10.918   5.660  70.141  1.00  0.00    -0.313 OA 
BRANCH  17  20
HETATM   20  C   UNL     2     -10.809   5.546  72.599  1.00  0.00    -0.257 C  
HETATM   21  O   UNL     2     -12.154   5.262  73.040  1.00  0.00    -0.528 OA 
HETATM   22  C   UNL     2     -10.092   4.218  72.226  1.00  0.00    -0.182 C  
HETATM   23  H   UNL     2     -12.157   4.710  73.813  1.00  0.00     0.000 HD 
HETATM   24  O   UNL     2      -9.078   4.365  71.494  1.00  0.00    -0.123 OA 
HETATM   25  O   UNL     2     -10.657   3.195  72.699  1.00  0.00    -0.132 OA 
ENDBRANCH  17  20
ENDBRANCH  14  17
ENDBRANCH  11  14
ENDBRANCH   8  11
ENDBRANCH   5   8
BRANCH   6  26
HETATM   26  C   UNL     3     -11.065  12.362  67.897  1.00  0.00    -0.239 C  
HETATM   27  H   UNL     3     -12.138  10.778  67.745  1.00  0.00     0.000 HD 
HETATM   28  O   UNL     3     -12.100  11.605  67.281  1.00  0.00    -0.595 OA 
BRANCH  26  29
HETATM   29  C   UNL     3      -9.696  11.631  67.910  1.00  0.00    -0.179 C  
HETATM   30  O   UNL     3      -9.274  11.415  69.328  1.00  0.00    -0.394 OA 
HETATM   31  H   UNL     3      -8.436  10.967  69.336  1.00  0.00     0.000 HD 
BRANCH  29  32
HETATM   32  C   UNL     3      -9.740  10.191  67.354  1.00  0.00    -0.161 C  
HETATM   33  H   UNL     3     -10.760   8.565  67.796  1.00  0.00     0.000 HD 
HETATM   34  O   UNL     3     -10.732   9.450  68.138  1.00  0.00    -0.224 OA 
BRANCH  32  35
HETATM   35  C   UNL     3      -8.513   9.369  66.931  1.00  0.00    -0.127 C  
HETATM   36  H   UNL     3      -7.763   7.669  67.467  1.00  0.00     0.000 HD 
HETATM   37  O   UNL     3      -8.522   8.177  67.728  1.00  0.00    -0.129 OA 
BRANCH  35  38
HETATM   38  C   UNL     3      -8.368   9.070  65.444  1.00  0.00    -0.144 C  
HETATM   39  C   UNL     3      -7.235   9.927  64.821  1.00  0.00    -0.136 C  
HETATM   40  O   UNL     3      -9.595   9.349  64.740  1.00  0.00    -0.446 OA 
HETATM   41  O   UNL     3      -6.575  10.651  65.630  1.00  0.00    -0.123 OA 
HETATM   42  O   UNL     3      -7.268   9.973  63.560  1.00  0.00    -0.131 OA 
HETATM   43  H   UNL     3      -9.505   9.162  63.813  1.00  0.00     0.000 HD 
ENDBRANCH  35  38
ENDBRANCH  32  35
ENDBRANCH  29  32
ENDBRANCH  26  29
ENDBRANCH   6  26
TORSDOF 10
ENDMDL
MODEL      444
REMARK 921   NORMALIZED FREE ENERGY PREDICTED BY IDOCK:   -3.49 KCAL/MOL
REMARK 922        TOTAL FREE ENERGY PREDICTED BY IDOCK:   -8.03 KCAL/MOL
REMARK 923 INTER-LIGAND FREE ENERGY PREDICTED BY IDOCK:   -6.57 KCAL/MOL
REMARK 924 INTRA-LIGAND FREE ENERGY PREDICTED BY IDOCK:   -1.45 KCAL/MOL
REMARK 927      BINDING AFFINITY PREDICTED BY RF-SCORE:    0.00 PKD
ROOT
HETATM    1 CA   UNL     1      -9.506  13.148  64.071  1.00  0.00    -0.560 Ca 
HETATM    2  O   UNL     2      -8.038  17.719  67.213  1.00  0.00    -0.206 OA 
HETATM    3  O   UNL     3      -7.727   7.173  63.244  1.00  0.00    -0.106 OA 
HETATM    4  H   UNL     2      -7.565  18.244  66.577  1.00  0.00     0.000 HD 
HETATM    5  C   UNL     2      -8.424  16.490  66.599  1.00  0.00    -0.263 C  
HETATM    6  C   UNL     3      -7.551   8.475  62.693  1.00  0.00    -0.113 C  
HETATM    7  H   UNL     3      -7.991   6.562  62.566  1.00  0.00     0.000 HD 
ENDROOT
BRANCH   5   8
HETATM    8  C   UNL     2      -9.192  15.637  67.631  1.00  0.00    -0.193 C  
HETATM    9  O   UNL     2      -9.689  16.507  68.642  1.00  0.00    -0.228 OA 
HETATM   10  H   UNL     2     -10.162  15.982  69.277  1.00  0.00     0.000 HD 
BRANCH   8  11
HETATM   11  C   UNL     2     -10.390  14.924  66.984  1.00  0.00    -0.264 C  
HETATM   12  H   UNL     2     -10.733  13.505  65.604  1.00  0.00     0.000 HD 
HETATM   13  O   UNL     2      -9.992  13.945  66.003  1.00  0.00    -0.298 OA 
BRANCH  11  14
HETATM   14  C   UNL     2     -11.491  14.310  67.884  1.00  0.00    -0.315 C  
HETATM   15  O   UNL     2     -12.454  15.296  68.216  1.00  0.00    -0.392 OA 
HETATM   16  H   UNL     2     -13.130  14.919  68.768  1.00  0.00     0.000 HD 
BRANCH  14  17
HETATM   17  C   UNL     2     -11.049  13.411  69.055  1.00  0.00    -0.249 C  
HETATM   18  H   UNL     2     -11.849  12.846  70.745  1.00  0.00     0.000 HD 
HETATM   19  O   UNL     2     -12.122  13.401  70.023  1.00  0.00    -0.326 OA 
BRANCH  17  20
HETATM   20  C   UNL     2     -10.608  11.996  68.683  1.00  0.00    -0.229 C  
HETATM   21  O   UNL     2      -9.172  11.853  68.755  1.00  0.00    -0.371 OA 
HETATM   22  C   UNL     2     -11.279  11.017  69.687  1.00  0.00    -0.278 C  
HETATM   23  H   UNL     2      -8.898  10.973  68.524  1.00  0.00     0.000 HD 
HETATM   24  O   UNL     2     -12.470  11.310  69.976  1.00  0.00    -0.254 OA 
HETATM   25  O   UNL     2     -10.514  10.095  70.075  1.00  0.00    -0.264 OA 
ENDBRANCH  17  20
ENDBRANCH  14  17
ENDBRANCH  11  14
ENDBRANCH   8  11
ENDBRANCH   5   8
BRANCH   6  26
HETATM   26  C   UNL     3      -7.124   9.461  63.789  1.00  0.00    -0.098 C  
HETATM   27  H   UNL     3      -5.912  10.947  63.870  1.00  0.00     0.000 HD 
HETATM   28  O   UNL     3      -6.176  10.336  63.192  1.00  0.00    -0.135 OA 
BRANCH  26  29
HETATM   29  C   UNL     3      -8.334  10.203  64.416  1.00  0.00    -0.171 C  
HETATM   30  O   UNL     3      -9.552   9.347  64.281  1.00  0.00    -0.365 OA 
HETATM   31  H   UNL     3     -10.293   9.802  64.665  1.00  0.00     0.000 HD 
BRANCH  29  32
HETATM   32  C   UNL     3      -8.235  10.400  65.944  1.00  0.00    -0.150 C  
HETATM   33  H   UNL     3      -7.615  11.855  67.118  1.00  0.00     0.000 HD 
HETATM   34  O   UNL     3      -7.675  11.734  66.177  1.00  0.00     0.124 OA 
BRANCH  32  35
HETATM   35  C   UNL     3      -7.777   9.328  66.945  1.00  0.00    -0.094 C  
HETATM   36  H   UNL     3      -6.513   9.282  68.408  1.00  0.00     0.000 HD 
HETATM   37  O   UNL     3      -6.796   9.945  67.789  1.00  0.00    -0.078 OA 
BRANCH  35  38
HETATM   38  C   UNL     3      -8.869   8.626  67.744  1.00  0.00    -0.136 C  
HETATM   39  C   UNL     3      -8.718   7.086  67.642  1.00  0.00    -0.121 C  
HETATM   40  O   UNL     3     -10.177   8.992  67.261  1.00  0.00    -0.216 OA 
HETATM   41  O   UNL     3      -7.700   6.666  67.006  1.00  0.00    -0.100 OA 
HETATM   42  O   UNL     3      -9.747   6.449  68.001  1.00  0.00    -0.121 OA 
HETATM   43  H   UNL     3     -10.858   8.555  67.760  1.00  0.00     0.000 HD 
ENDBRANCH  35  38
ENDBRANCH  32  35
ENDBRANCH  29  32
ENDBRANCH  26  29
ENDBRANCH   6  26
TORSDOF 10
ENDMDL
MODEL      445
REMARK 921   NORMALIZED FREE ENERGY PREDICTED BY IDOCK:   -3.49 KCAL/MOL
REMARK 922        TOTAL FREE ENERGY PREDICTED BY IDOCK:   -8.02 KCAL/MOL
REMARK 923 INTER-LIGAND FREE ENERGY PREDICTED BY IDOCK:   -6.39 KCAL/MOL
REMARK 924 INTRA-LIGAND FREE ENERGY PREDICTED BY IDOCK:   -1.64 KCAL/MOL
REMARK 927      BINDING AFFINITY PREDICTED BY RF-SCORE:    0.00 PKD
ROOT
HETATM    1 CA   UNL     1      -9.297  15.850  65.565  1.00  0.00    -0.260 Ca 
HETATM    2  O   UNL     2     -12.361  11.419  67.542  1.00  0.00    -0.134 OA 
HETATM    3  O   UNL     3      -6.277  20.907  67.769  1.00  0.00    -0.283 OA 
HETATM    4  H   UNL     2     -13.247  11.690  67.332  1.00  0.00     0.000 HD 
HETATM    5  C   UNL     2     -11.459  12.460  67.169  1.00  0.00    -0.357 C  
HETATM    6  C   UNL     3      -7.526  20.510  67.210  1.00  0.00    -0.339 C  
HETATM    7  H   UNL     3      -5.921  21.644  67.287  1.00  0.00     0.000 HD 
ENDROOT
BRANCH   5   8
HETATM    8  C   UNL     2     -10.020  12.021  67.511  1.00  0.00    -0.192 C  
HETATM    9  O   UNL     2      -9.592  12.757  68.652  1.00  0.00    -0.383 OA 
HETATM   10  H   UNL     2      -8.706  12.486  68.862  1.00  0.00     0.000 HD 
BRANCH   8  11
HETATM   11  C   UNL     2      -9.960  10.525  67.858  1.00  0.00    -0.169 C  
HETATM   12  H   UNL     2      -9.568   8.780  66.942  1.00  0.00     0.000 HD 
HETATM   13  O   UNL     2      -9.605   9.705  66.727  1.00  0.00    -0.156 OA 
BRANCH  11  14
HETATM   14  C   UNL     2      -9.146  10.057  69.089  1.00  0.00    -0.184 C  
HETATM   15  O   UNL     2      -9.720  10.577  70.278  1.00  0.00    -0.295 OA 
HETATM   16  H   UNL     2      -9.219  10.291  71.033  1.00  0.00     0.000 HD 
BRANCH  14  17
HETATM   17  C   UNL     2      -7.609  10.146  69.015  1.00  0.00    -0.096 C  
HETATM   18  H   UNL     2      -6.245  11.267  69.849  1.00  0.00     0.000 HD 
HETATM   19  O   UNL     2      -7.193  11.213  69.895  1.00  0.00    -0.039 OA 
BRANCH  17  20
HETATM   20  C   UNL     2      -6.850   8.849  69.297  1.00  0.00    -0.050 C  
HETATM   21  O   UNL     2      -7.721   7.699  69.220  1.00  0.00    -0.100 OA 
HETATM   22  C   UNL     2      -5.726   8.724  68.230  1.00  0.00    -0.039 C  
HETATM   23  H   UNL     2      -7.249   6.893  69.395  1.00  0.00     0.000 HD 
HETATM   24  O   UNL     2      -5.150   9.811  67.957  1.00  0.00    -0.033 OA 
HETATM   25  O   UNL     2      -5.586   7.553  67.786  1.00  0.00    -0.031 OA 
ENDBRANCH  17  20
ENDBRANCH  14  17
ENDBRANCH  11  14
ENDBRANCH   8  11
ENDBRANCH   5   8
BRANCH   6  26
HETATM   26  C   UNL     3      -8.102  19.320  67.989  1.00  0.00    -0.306 C  
HETATM   27  H   UNL     3      -9.284  19.132  69.490  1.00  0.00     0.000 HD 
HETATM   28  O   UNL     3      -8.928  19.869  69.008  1.00  0.00    -0.155 OA 
BRANCH  26  29
HETATM   29  C   UNL     3      -8.848  18.319  67.068  1.00  0.00    -0.266 C  
HETATM   30  O   UNL     3      -7.968  17.977  65.908  1.00  0.00    -0.521 OA 
HETATM   31  H   UNL     3      -8.425  17.364  65.344  1.00  0.00     0.000 HD 
BRANCH  29  32
HETATM   32  C   UNL     3      -9.104  16.937  67.708  1.00  0.00    -0.229 C  
HETATM   33  H   UNL     3     -10.712  15.879  68.126  1.00  0.00     0.000 HD 
HETATM   34  O   UNL     3     -10.555  16.729  67.733  1.00  0.00    -0.327 OA 
BRANCH  32  35
HETATM   35  C   UNL     3      -8.354  16.375  68.926  1.00  0.00    -0.234 C  
HETATM   36  H   UNL     3      -8.725  15.004  70.239  1.00  0.00     0.000 HD 
HETATM   37  O   UNL     3      -9.189  15.352  69.486  1.00  0.00    -0.261 OA 
BRANCH  35  38
HETATM   38  C   UNL     3      -6.928  15.892  68.689  1.00  0.00    -0.127 C  
HETATM   39  C   UNL     3      -6.893  14.811  67.577  1.00  0.00    -0.155 C  
HETATM   40  O   UNL     3      -6.367  15.332  69.893  1.00  0.00    -0.150 OA 
HETATM   41  O   UNL     3      -8.000  14.567  67.001  1.00  0.00    -0.176 OA 
HETATM   42  O   UNL     3      -5.821  14.146  67.549  1.00  0.00    -0.343 OA 
HETATM   43  H   UNL     3      -5.478  15.031  69.745  1.00  0.00     0.000 HD 
ENDBRANCH  35  38
ENDBRANCH  32  35
ENDBRANCH  29  32
ENDBRANCH  26  29
ENDBRANCH   6  26
TORSDOF 10
ENDMDL
MODEL      446
REMARK 921   NORMALIZED FREE ENERGY PREDICTED BY IDOCK:   -3.48 KCAL/MOL
REMARK 922        TOTAL FREE ENERGY PREDICTED BY IDOCK:   -8.01 KCAL/MOL
REMARK 923 INTER-LIGAND FREE ENERGY PREDICTED BY IDOCK:   -7.79 KCAL/MOL
REMARK 924 INTRA-LIGAND FREE ENERGY PREDICTED BY IDOCK:   -0.22 KCAL/MOL
REMARK 927      BINDING AFFINITY PREDICTED BY RF-SCORE:    0.00 PKD
ROOT
HETATM    1 CA   UNL     1      -9.915  10.899  70.280  1.00  0.00    -0.401 Ca 
HETATM    2  O   UNL     2      -5.165   7.686  70.453  1.00  0.00    -0.023 OA 
HETATM    3  O   UNL     3     -13.195  14.323  66.149  1.00  0.00    -0.353 OA 
HETATM    4  H   UNL     2      -4.552   8.272  70.881  1.00  0.00     0.000 HD 
HETATM    5  C   UNL     2      -6.404   8.368  70.268  1.00  0.00    -0.035 C  
HETATM    6  C   UNL     3     -12.203  14.451  67.164  1.00  0.00    -0.222 C  
HETATM    7  H   UNL     3     -13.911  14.927  66.312  1.00  0.00     0.000 HD 
ENDROOT
BRANCH   5   8
HETATM    8  C   UNL     2      -7.400   7.415  69.572  1.00  0.00    -0.085 C  
HETATM    9  O   UNL     2      -6.686   6.670  68.592  1.00  0.00    -0.059 OA 
HETATM   10  H   UNL     2      -7.299   6.084  68.163  1.00  0.00     0.000 HD 
BRANCH   8  11
HETATM   11  C   UNL     2      -8.014   6.422  70.572  1.00  0.00    -0.112 C  
HETATM   12  H   UNL     2      -7.590   5.644  72.376  1.00  0.00     0.000 HD 
HETATM   13  O   UNL     2      -7.211   6.258  71.758  1.00  0.00    -0.083 OA 
BRANCH  11  14
HETATM   14  C   UNL     2      -9.497   6.577  70.991  1.00  0.00    -0.164 C  
HETATM   15  O   UNL     2      -9.589   6.763  72.394  1.00  0.00    -0.155 OA 
HETATM   16  H   UNL     2     -10.499   6.858  72.650  1.00  0.00     0.000 HD 
BRANCH  14  17
HETATM   17  C   UNL     2     -10.522   5.593  70.396  1.00  0.00    -0.285 C  
HETATM   18  H   UNL     2     -11.976   4.505  71.115  1.00  0.00     0.000 HD 
HETATM   19  O   UNL     2     -11.344   5.112  71.482  1.00  0.00     0.120 OA 
BRANCH  17  20
HETATM   20  C   UNL     2     -11.367   6.125  69.238  1.00  0.00    -0.291 C  
HETATM   21  O   UNL     2     -11.761   7.497  69.459  1.00  0.00    -0.316 OA 
HETATM   22  C   UNL     2     -10.504   6.033  67.948  1.00  0.00    -0.234 C  
HETATM   23  H   UNL     2     -12.287   7.828  68.740  1.00  0.00     0.000 HD 
HETATM   24  O   UNL     2      -9.810   4.985  67.865  1.00  0.00    -0.147 OA 
HETATM   25  O   UNL     2     -10.617   7.039  67.198  1.00  0.00    -0.269 OA 
ENDBRANCH  17  20
ENDBRANCH  14  17
ENDBRANCH  11  14
ENDBRANCH   8  11
ENDBRANCH   5   8
BRANCH   6  26
HETATM   26  C   UNL     3     -11.047  13.476  66.900  1.00  0.00    -0.296 C  
HETATM   27  H   UNL     3     -10.909  11.719  66.139  1.00  0.00     0.000 HD 
HETATM   28  O   UNL     3     -11.625  12.323  66.302  1.00  0.00    -0.366 OA 
BRANCH  26  29
HETATM   29  C   UNL     3      -9.923  14.114  66.041  1.00  0.00    -0.322 C  
HETATM   30  O   UNL     3     -10.234  13.895  64.595  1.00  0.00    -0.546 OA 
HETATM   31  H   UNL     3      -9.545  14.286  64.069  1.00  0.00     0.000 HD 
BRANCH  29  32
HETATM   32  C   UNL     3      -9.850  15.654  66.134  1.00  0.00    -0.314 C  
HETATM   33  H   UNL     3     -10.310  17.140  64.927  1.00  0.00     0.000 HD 
HETATM   34  O   UNL     3     -10.355  16.193  64.869  1.00  0.00    -0.563 OA 
BRANCH  32  35
HETATM   35  C   UNL     3      -8.688  16.446  66.752  1.00  0.00    -0.226 C  
HETATM   36  H   UNL     3      -7.468  17.800  66.104  1.00  0.00     0.000 HD 
HETATM   37  O   UNL     3      -8.186  17.310  65.722  1.00  0.00    -0.533 OA 
BRANCH  35  38
HETATM   38  C   UNL     3      -8.982  17.198  68.045  1.00  0.00    -0.233 C  
HETATM   39  C   UNL     3      -9.594  18.591  67.741  1.00  0.00    -0.290 C  
HETATM   40  O   UNL     3      -7.779  17.384  68.818  1.00  0.00    -0.264 OA 
HETATM   41  O   UNL     3      -9.825  18.843  66.517  1.00  0.00    -0.330 OA 
HETATM   42  O   UNL     3      -9.565  19.383  68.723  1.00  0.00    -0.393 OA 
HETATM   43  H   UNL     3      -7.962  17.853  69.624  1.00  0.00     0.000 HD 
ENDBRANCH  35  38
ENDBRANCH  32  35
ENDBRANCH  29  32
ENDBRANCH  26  29
ENDBRANCH   6  26
TORSDOF 10
ENDMDL
MODEL      447
REMARK 921   NORMALIZED FREE ENERGY PREDICTED BY IDOCK:   -3.47 KCAL/MOL
REMARK 922        TOTAL FREE ENERGY PREDICTED BY IDOCK:   -8.00 KCAL/MOL
REMARK 923 INTER-LIGAND FREE ENERGY PREDICTED BY IDOCK:   -8.84 KCAL/MOL
REMARK 924 INTRA-LIGAND FREE ENERGY PREDICTED BY IDOCK:    0.84 KCAL/MOL
REMARK 927      BINDING AFFINITY PREDICTED BY RF-SCORE:    0.00 PKD
ROOT
HETATM    1 CA   UNL     1      -8.228  14.865  67.214  1.00  0.00    -0.126 Ca 
HETATM    2  O   UNL     2     -10.226   9.499  66.830  1.00  0.00    -0.231 OA 
HETATM    3  O   UNL     3     -10.339  20.771  66.760  1.00  0.00    -0.194 OA 
HETATM    4  H   UNL     2      -9.920   9.242  65.967  1.00  0.00     0.000 HD 
HETATM    5  C   UNL     2      -9.863  10.860  67.061  1.00  0.00    -0.183 C  
HETATM    6  C   UNL     3      -9.701  19.754  65.993  1.00  0.00    -0.370 C  
HETATM    7  H   UNL     3      -9.841  21.579  66.713  1.00  0.00     0.000 HD 
ENDROOT
BRANCH   5   8
HETATM    8  C   UNL     2     -10.360  11.277  68.462  1.00  0.00    -0.203 C  
HETATM    9  O   UNL     2      -9.557  12.365  68.908  1.00  0.00    -0.407 OA 
HETATM   10  H   UNL     2      -9.863  12.622  69.771  1.00  0.00     0.000 HD 
BRANCH   8  11
HETATM   11  C   UNL     2     -11.822  11.750  68.418  1.00  0.00    -0.282 C  
HETATM   12  H   UNL     2     -13.582  11.281  69.265  1.00  0.00     0.000 HD 
HETATM   13  O   UNL     2     -12.679  10.989  69.292  1.00  0.00    -0.280 OA 
BRANCH  11  14
HETATM   14  C   UNL     2     -12.144  13.255  68.589  1.00  0.00    -0.222 C  
HETATM   15  O   UNL     2     -11.114  14.041  68.013  1.00  0.00    -0.250 OA 
HETATM   16  H   UNL     2     -11.312  14.965  68.118  1.00  0.00     0.000 HD 
BRANCH  14  17
HETATM   17  C   UNL     2     -12.638  13.736  69.967  1.00  0.00    -0.147 C  
HETATM   18  H   UNL     2     -12.151  13.361  71.821  1.00  0.00     0.000 HD 
HETATM   19  O   UNL     2     -11.846  13.064  70.971  1.00  0.00     0.023 OA 
BRANCH  17  20
HETATM   20  C   UNL     2     -12.657  15.249  70.180  1.00  0.00    -0.296 C  
HETATM   21  O   UNL     2     -13.846  15.669  70.886  1.00  0.00    -0.822 OA 
HETATM   22  C   UNL     2     -11.399  15.620  71.014  1.00  0.00    -0.381 C  
HETATM   23  H   UNL     2     -13.858  16.610  71.018  1.00  0.00     0.000 HD 
HETATM   24  O   UNL     2     -10.359  14.987  70.689  1.00  0.00    -0.010 OA 
HETATM   25  O   UNL     2     -11.625  16.483  71.904  1.00  0.00    -0.419 OA 
ENDBRANCH  17  20
ENDBRANCH  14  17
ENDBRANCH  11  14
ENDBRANCH   8  11
ENDBRANCH   5   8
BRANCH   6  26
HETATM   26  C   UNL     3     -10.506  18.449  66.069  1.00  0.00    -0.374 C  
HETATM   27  H   UNL     3     -11.450  17.369  64.795  1.00  0.00     0.000 HD 
HETATM   28  O   UNL     3     -10.952  18.176  64.747  1.00  0.00    -0.634 OA 
BRANCH  26  29
HETATM   29  C   UNL     3      -9.687  17.288  66.692  1.00  0.00    -0.288 C  
HETATM   30  O   UNL     3      -8.513  16.995  65.814  1.00  0.00    -0.508 OA 
HETATM   31  H   UNL     3      -8.012  16.284  66.196  1.00  0.00     0.000 HD 
BRANCH  29  32
HETATM   32  C   UNL     3      -9.015  17.636  68.038  1.00  0.00    -0.264 C  
HETATM   33  H   UNL     3      -9.671  18.103  69.836  1.00  0.00     0.000 HD 
HETATM   34  O   UNL     3     -10.085  17.890  69.008  1.00  0.00    -0.359 OA 
BRANCH  32  35
HETATM   35  C   UNL     3      -7.776  18.529  68.202  1.00  0.00    -0.284 C  
HETATM   36  H   UNL     3      -7.355  20.095  69.256  1.00  0.00     0.000 HD 
HETATM   37  O   UNL     3      -8.122  19.543  69.155  1.00  0.00    -0.320 OA 
BRANCH  35  38
HETATM   38  C   UNL     3      -6.468  17.827  68.553  1.00  0.00    -0.209 C  
HETATM   39  C   UNL     3      -6.745  16.450  69.211  1.00  0.00    -0.215 C  
HETATM   40  O   UNL     3      -5.685  18.623  69.465  1.00  0.00    -0.222 OA 
HETATM   41  O   UNL     3      -7.965  16.098  69.274  1.00  0.00    -0.235 OA 
HETATM   42  O   UNL     3      -5.746  15.963  69.809  1.00  0.00    -0.125 OA 
HETATM   43  H   UNL     3      -4.870  18.186  69.684  1.00  0.00     0.000 HD 
ENDBRANCH  35  38
ENDBRANCH  32  35
ENDBRANCH  29  32
ENDBRANCH  26  29
ENDBRANCH   6  26
TORSDOF 10
ENDMDL
MODEL      448
REMARK 921   NORMALIZED FREE ENERGY PREDICTED BY IDOCK:   -3.45 KCAL/MOL
REMARK 922        TOTAL FREE ENERGY PREDICTED BY IDOCK:   -7.97 KCAL/MOL
REMARK 923 INTER-LIGAND FREE ENERGY PREDICTED BY IDOCK:   -7.36 KCAL/MOL
REMARK 924 INTRA-LIGAND FREE ENERGY PREDICTED BY IDOCK:   -0.61 KCAL/MOL
REMARK 927      BINDING AFFINITY PREDICTED BY RF-SCORE:    0.00 PKD
ROOT
HETATM    1 CA   UNL     1     -10.441  13.178  66.799  1.00  0.00    -0.240 Ca 
HETATM    2  O   UNL     2      -8.994   9.051  63.085  1.00  0.00    -0.431 OA 
HETATM    3  O   UNL     3     -12.805  13.744  72.600  1.00  0.00    -0.317 OA 
HETATM    4  H   UNL     2      -9.726   9.073  62.479  1.00  0.00     0.000 HD 
HETATM    5  C   UNL     2      -9.233   9.991  64.131  1.00  0.00    -0.271 C  
HETATM    6  C   UNL     3     -13.198  13.754  71.230  1.00  0.00    -0.261 C  
HETATM    7  H   UNL     3     -13.124  14.524  73.038  1.00  0.00     0.000 HD 
ENDROOT
BRANCH   5   8
HETATM    8  C   UNL     2      -8.044   9.956  65.115  1.00  0.00    -0.138 C  
HETATM    9  O   UNL     2      -7.716  11.297  65.461  1.00  0.00    -0.354 OA 
HETATM   10  H   UNL     2      -6.984  11.275  66.067  1.00  0.00     0.000 HD 
BRANCH   8  11
HETATM   11  C   UNL     2      -8.410   9.207  66.407  1.00  0.00    -0.122 C  
HETATM   12  H   UNL     2      -9.335   9.577  68.152  1.00  0.00     0.000 HD 
HETATM   13  O   UNL     2      -9.108  10.040  67.354  1.00  0.00    -0.134 OA 
BRANCH  11  14
HETATM   14  C   UNL     2      -9.131   7.839  66.319  1.00  0.00    -0.178 C  
HETATM   15  O   UNL     2     -10.530   8.033  66.190  1.00  0.00    -0.269 OA 
HETATM   16  H   UNL     2     -10.972   7.194  66.136  1.00  0.00     0.000 HD 
BRANCH  14  17
HETATM   17  C   UNL     2      -8.715   6.739  67.315  1.00  0.00    -0.119 C  
HETATM   18  H   UNL     2      -9.666   5.537  68.526  1.00  0.00     0.000 HD 
HETATM   19  O   UNL     2      -9.922   6.215  67.912  1.00  0.00    -0.122 OA 
BRANCH  17  20
HETATM   20  C   UNL     2      -7.833   5.625  66.752  1.00  0.00    -0.101 C  
HETATM   21  O   UNL     2      -6.745   5.308  67.647  1.00  0.00    -0.052 OA 
HETATM   22  C   UNL     2      -8.730   4.370  66.559  1.00  0.00    -0.112 C  
HETATM   23  H   UNL     2      -6.196   4.616  67.297  1.00  0.00     0.000 HD 
HETATM   24  O   UNL     2      -9.882   4.621  66.116  1.00  0.00    -0.181 OA 
HETATM   25  O   UNL     2      -8.168   3.295  66.902  1.00  0.00    -0.083 OA 
ENDBRANCH  17  20
ENDBRANCH  14  17
ENDBRANCH  11  14
ENDBRANCH   8  11
ENDBRANCH   5   8
BRANCH   6  26
HETATM   26  C   UNL     3     -12.682  12.494  70.522  1.00  0.00     0.018 C  
HETATM   27  H   UNL     3     -11.135  12.076  69.465  1.00  0.00     0.000 HD 
HETATM   28  O   UNL     3     -11.454  12.856  69.903  1.00  0.00    -0.200 OA 
BRANCH  26  29
HETATM   29  C   UNL     3     -12.548  11.288  71.489  1.00  0.00    -0.312 C  
HETATM   30  O   UNL     3     -13.761  11.228  72.362  1.00  0.00    -0.457 OA 
HETATM   31  H   UNL     3     -13.679  10.490  72.954  1.00  0.00     0.000 HD 
BRANCH  29  32
HETATM   32  C   UNL     3     -12.572   9.910  70.793  1.00  0.00    -0.241 C  
HETATM   33  H   UNL     3     -13.897   8.462  70.629  1.00  0.00     0.000 HD 
HETATM   34  O   UNL     3     -13.882   9.310  71.057  1.00  0.00    -0.207 OA 
BRANCH  32  35
HETATM   35  C   UNL     3     -11.403   8.913  70.767  1.00  0.00    -0.278 C  
HETATM   36  H   UNL     3      -9.489   9.065  70.531  1.00  0.00     0.000 HD 
HETATM   37  O   UNL     3     -10.212   9.681  70.547  1.00  0.00    -0.264 OA 
BRANCH  35  38
HETATM   38  C   UNL     3     -11.274   7.977  71.963  1.00  0.00    -0.298 C  
HETATM   39  C   UNL     3     -11.541   6.509  71.539  1.00  0.00    -0.315 C  
HETATM   40  O   UNL     3     -12.209   8.333  73.000  1.00  0.00    -0.630 OA 
HETATM   41  O   UNL     3     -11.733   6.312  70.298  1.00  0.00    -0.384 OA 
HETATM   42  O   UNL     3     -11.766   5.733  72.509  1.00  0.00    -0.309 OA 
HETATM   43  H   UNL     3     -12.129   7.749  73.745  1.00  0.00     0.000 HD 
ENDBRANCH  35  38
ENDBRANCH  32  35
ENDBRANCH  29  32
ENDBRANCH  26  29
ENDBRANCH   6  26
TORSDOF 10
ENDMDL
MODEL      449
REMARK 921   NORMALIZED FREE ENERGY PREDICTED BY IDOCK:   -3.45 KCAL/MOL
REMARK 922        TOTAL FREE ENERGY PREDICTED BY IDOCK:   -7.96 KCAL/MOL
REMARK 923 INTER-LIGAND FREE ENERGY PREDICTED BY IDOCK:   -6.93 KCAL/MOL
REMARK 924 INTRA-LIGAND FREE ENERGY PREDICTED BY IDOCK:   -1.03 KCAL/MOL
REMARK 927      BINDING AFFINITY PREDICTED BY RF-SCORE:    0.00 PKD
ROOT
HETATM    1 CA   UNL     1      -8.823  12.399  68.504  1.00  0.00    -0.152 Ca 
HETATM    2  O   UNL     2     -12.912  14.460  65.048  1.00  0.00    -0.643 OA 
HETATM    3  O   UNL     3      -7.480   7.136  71.675  1.00  0.00    -0.084 OA 
HETATM    4  H   UNL     2     -13.393  15.030  65.638  1.00  0.00     0.000 HD 
HETATM    5  C   UNL     2     -11.879  13.804  65.780  1.00  0.00    -0.372 C  
HETATM    6  C   UNL     3      -8.073   8.420  71.847  1.00  0.00    -0.145 C  
HETATM    7  H   UNL     3      -6.810   6.993  72.334  1.00  0.00     0.000 HD 
ENDROOT
BRANCH   5   8
HETATM    8  C   UNL     2     -11.098  12.879  64.823  1.00  0.00    -0.309 C  
HETATM    9  O   UNL     2     -10.191  13.682  64.075  1.00  0.00    -0.701 OA 
HETATM   10  H   UNL     2      -9.711  13.112  63.485  1.00  0.00     0.000 HD 
BRANCH   8  11
HETATM   11  C   UNL     2     -10.281  11.833  65.598  1.00  0.00    -0.246 C  
HETATM   12  H   UNL     2     -10.587  10.401  66.974  1.00  0.00     0.000 HD 
HETATM   13  O   UNL     2     -11.092  11.047  66.495  1.00  0.00    -0.226 OA 
BRANCH  11  14
HETATM   14  C   UNL     2      -9.325  10.887  64.831  1.00  0.00    -0.224 C  
HETATM   15  O   UNL     2     -10.073   9.942  64.083  1.00  0.00    -0.450 OA 
HETATM   16  H   UNL     2      -9.486   9.362  63.612  1.00  0.00     0.000 HD 
BRANCH  14  17
HETATM   17  C   UNL     2      -8.118  10.307  65.592  1.00  0.00    -0.155 C  
HETATM   18  H   UNL     2      -7.802   8.716  66.680  1.00  0.00     0.000 HD 
HETATM   19  O   UNL     2      -8.547   9.073  66.210  1.00  0.00    -0.120 OA 
BRANCH  17  20
HETATM   20  C   UNL     2      -6.840  10.117  64.776  1.00  0.00    -0.121 C  
HETATM   21  O   UNL     2      -5.663  10.421  65.558  1.00  0.00    -0.090 OA 
HETATM   22  C   UNL     2      -6.792   8.632  64.319  1.00  0.00    -0.074 C  
HETATM   23  H   UNL     2      -4.869  10.303  65.050  1.00  0.00     0.000 HD 
HETATM   24  O   UNL     2      -7.907   8.165  63.965  1.00  0.00    -0.130 OA 
HETATM   25  O   UNL     2      -5.644   8.120  64.400  1.00  0.00    -0.047 OA 
ENDBRANCH  17  20
ENDBRANCH  14  17
ENDBRANCH  11  14
ENDBRANCH   8  11
ENDBRANCH   5   8
BRANCH   6  26
HETATM   26  C   UNL     3      -9.155   8.651  70.783  1.00  0.00    -0.178 C  
HETATM   27  H   UNL     3     -10.039   7.538  69.493  1.00  0.00     0.000 HD 
HETATM   28  O   UNL     3      -9.369   7.396  70.152  1.00  0.00    -0.158 OA 
BRANCH  26  29
HETATM   29  C   UNL     3     -10.448   9.265  71.382  1.00  0.00    -0.338 C  
HETATM   30  O   UNL     3     -10.837  10.462  70.575  1.00  0.00    -0.402 OA 
HETATM   31  H   UNL     3     -11.628  10.838  70.942  1.00  0.00     0.000 HD 
BRANCH  29  32
HETATM   32  C   UNL     3     -11.695   8.363  71.259  1.00  0.00    -0.285 C  
HETATM   33  H   UNL     3     -13.463   8.550  70.411  1.00  0.00     0.000 HD 
HETATM   34  O   UNL     3     -12.696   9.105  70.487  1.00  0.00     0.116 OA 
BRANCH  32  35
HETATM   35  C   UNL     3     -12.269   7.492  72.386  1.00  0.00    -0.129 C  
HETATM   36  H   UNL     3     -14.051   7.092  73.024  1.00  0.00     0.000 HD 
HETATM   37  O   UNL     3     -13.695   7.631  72.327  1.00  0.00    -0.097 OA 
BRANCH  35  38
HETATM   38  C   UNL     3     -11.832   6.032  72.414  1.00  0.00    -0.231 C  
HETATM   39  C   UNL     3     -10.716   5.816  73.470  1.00  0.00    -0.269 C  
HETATM   40  O   UNL     3     -11.332   5.619  71.127  1.00  0.00    -0.157 OA 
HETATM   41  O   UNL     3     -10.413   6.828  74.177  1.00  0.00    -0.365 OA 
HETATM   42  O   UNL     3     -10.089   4.729  73.332  1.00  0.00    -0.149 OA 
HETATM   43  H   UNL     3     -11.059   4.709  71.144  1.00  0.00     0.000 HD 
ENDBRANCH  35  38
ENDBRANCH  32  35
ENDBRANCH  29  32
ENDBRANCH  26  29
ENDBRANCH   6  26
TORSDOF 10
ENDMDL
MODEL      450
REMARK 921   NORMALIZED FREE ENERGY PREDICTED BY IDOCK:   -3.42 KCAL/MOL
REMARK 922        TOTAL FREE ENERGY PREDICTED BY IDOCK:   -7.91 KCAL/MOL
REMARK 923 INTER-LIGAND FREE ENERGY PREDICTED BY IDOCK:   -6.01 KCAL/MOL
REMARK 924 INTRA-LIGAND FREE ENERGY PREDICTED BY IDOCK:   -1.90 KCAL/MOL
REMARK 927      BINDING AFFINITY PREDICTED BY RF-SCORE:    0.00 PKD
ROOT
HETATM    1 CA   UNL     1     -10.104   3.050  67.459  1.00  0.00    -0.283 Ca 
HETATM    2  O   UNL     2      -6.466   5.541  63.788  1.00  0.00    -0.025 OA 
HETATM    3  O   UNL     3     -11.318   2.957  73.629  1.00  0.00    -0.228 OA 
HETATM    4  H   UNL     2      -5.858   4.833  63.609  1.00  0.00     0.000 HD 
HETATM    5  C   UNL     2      -7.418   5.101  64.755  1.00  0.00    -0.076 C  
HETATM    6  C   UNL     3     -10.612   2.239  72.621  1.00  0.00    -0.095 C  
HETATM    7  H   UNL     3     -11.885   2.370  74.115  1.00  0.00     0.000 HD 
ENDROOT
BRANCH   5   8
HETATM    8  C   UNL     2      -8.405   6.251  65.044  1.00  0.00    -0.099 C  
HETATM    9  O   UNL     2      -9.648   5.679  65.435  1.00  0.00    -0.367 OA 
HETATM   10  H   UNL     2     -10.256   6.387  65.614  1.00  0.00     0.000 HD 
BRANCH   8  11
HETATM   11  C   UNL     2      -7.906   7.139  66.196  1.00  0.00    -0.105 C  
HETATM   12  H   UNL     2      -6.239   7.392  67.290  1.00  0.00     0.000 HD 
HETATM   13  O   UNL     2      -6.548   6.843  66.578  1.00  0.00    -0.048 OA 
BRANCH  11  14
HETATM   14  C   UNL     2      -8.076   8.676  66.106  1.00  0.00    -0.108 C  
HETATM   15  O   UNL     2      -7.853   9.265  67.377  1.00  0.00    -0.098 OA 
HETATM   16  H   UNL     2      -7.957  10.208  67.321  1.00  0.00     0.000 HD 
BRANCH  14  17
HETATM   17  C   UNL     2      -9.293   9.224  65.338  1.00  0.00    -0.226 C  
HETATM   18  H   UNL     2     -11.142   9.653  65.799  1.00  0.00     0.000 HD 
HETATM   19  O   UNL     2     -10.391   9.315  66.273  1.00  0.00    -0.240 OA 
BRANCH  17  20
HETATM   20  C   UNL     2      -9.076  10.539  64.590  1.00  0.00    -0.218 C  
HETATM   21  O   UNL     2      -8.012  11.316  65.183  1.00  0.00    -0.318 OA 
HETATM   22  C   UNL     2      -8.705  10.186  63.122  1.00  0.00    -0.211 C  
HETATM   23  H   UNL     2      -7.877  12.133  64.718  1.00  0.00     0.000 HD 
HETATM   24  O   UNL     2      -9.361   9.224  62.640  1.00  0.00    -0.053 OA 
HETATM   25  O   UNL     2      -7.784  10.906  62.651  1.00  0.00    -0.094 OA 
ENDBRANCH  17  20
ENDBRANCH  14  17
ENDBRANCH  11  14
ENDBRANCH   8  11
ENDBRANCH   5   8
BRANCH   6  26
HETATM   26  C   UNL     3      -9.697   3.189  71.836  1.00  0.00    -0.164 C  
HETATM   27  H   UNL     3      -9.081   3.277  70.021  1.00  0.00     0.000 HD 
HETATM   28  O   UNL     3      -9.647   2.689  70.506  1.00  0.00    -0.144 OA 
BRANCH  26  29
HETATM   29  C   UNL     3     -10.169   4.664  71.920  1.00  0.00    -0.184 C  
HETATM   30  O   UNL     3      -9.654   5.269  73.186  1.00  0.00    -0.144 OA 
HETATM   31  H   UNL     3      -9.943   6.172  73.237  1.00  0.00     0.000 HD 
BRANCH  29  32
HETATM   32  C   UNL     3      -9.562   5.587  70.841  1.00  0.00    -0.170 C  
HETATM   33  H   UNL     3      -7.895   5.583  69.791  1.00  0.00     0.000 HD 
HETATM   34  O   UNL     3      -8.269   5.016  70.455  1.00  0.00    -0.096 OA 
BRANCH  32  35
HETATM   35  C   UNL     3      -9.603   7.123  70.867  1.00  0.00    -0.167 C  
HETATM   36  H   UNL     3      -8.696   8.526  69.892  1.00  0.00     0.000 HD 
HETATM   37  O   UNL     3      -8.671   7.576  69.876  1.00  0.00    -0.138 OA 
BRANCH  35  38
HETATM   38  C   UNL     3     -10.973   7.774  70.713  1.00  0.00    -0.252 C  
HETATM   39  C   UNL     3     -11.611   8.041  72.102  1.00  0.00    -0.342 C  
HETATM   40  O   UNL     3     -11.862   6.931  69.953  1.00  0.00    -0.602 OA 
HETATM   41  O   UNL     3     -10.887   7.766  73.110  1.00  0.00    -0.389 OA 
HETATM   42  O   UNL     3     -12.850   8.275  72.055  1.00  0.00    -0.327 OA 
HETATM   43  H   UNL     3     -12.716   7.337  69.857  1.00  0.00     0.000 HD 
ENDBRANCH  35  38
ENDBRANCH  32  35
ENDBRANCH  29  32
ENDBRANCH  26  29
ENDBRANCH   6  26
TORSDOF 10
ENDMDL
MODEL      451
REMARK 921   NORMALIZED FREE ENERGY PREDICTED BY IDOCK:   -3.40 KCAL/MOL
REMARK 922        TOTAL FREE ENERGY PREDICTED BY IDOCK:   -7.89 KCAL/MOL
REMARK 923 INTER-LIGAND FREE ENERGY PREDICTED BY IDOCK:   -4.65 KCAL/MOL
REMARK 924 INTRA-LIGAND FREE ENERGY PREDICTED BY IDOCK:   -3.25 KCAL/MOL
REMARK 927      BINDING AFFINITY PREDICTED BY RF-SCORE:    0.00 PKD
ROOT
HETATM    1 CA   UNL     1      -8.690   6.700  65.422  1.00  0.00    -0.135 Ca 
HETATM    2  O   UNL     2     -11.522   2.287  63.093  1.00  0.00    -0.366 OA 
HETATM    3  O   UNL     3      -8.453   9.871  70.848  1.00  0.00    -0.350 OA 
HETATM    4  H   UNL     2     -12.146   2.734  62.533  1.00  0.00     0.000 HD 
HETATM    5  C   UNL     2     -10.767   3.261  63.811  1.00  0.00    -0.225 C  
HETATM    6  C   UNL     3      -9.046   9.920  69.553  1.00  0.00    -0.223 C  
HETATM    7  H   UNL     3      -8.013  10.691  71.039  1.00  0.00     0.000 HD 
ENDROOT
BRANCH   5   8
HETATM    8  C   UNL     2      -9.753   2.535  64.721  1.00  0.00     0.018 C  
HETATM    9  O   UNL     2      -9.142   1.497  63.962  1.00  0.00    -0.091 OA 
HETATM   10  H   UNL     2      -8.518   1.050  64.523  1.00  0.00     0.000 HD 
BRANCH   8  11
HETATM   11  C   UNL     2      -8.647   3.491  65.198  1.00  0.00    -0.111 C  
HETATM   12  H   UNL     2      -7.929   5.311  64.743  1.00  0.00     0.000 HD 
HETATM   13  O   UNL     2      -8.613   4.721  64.448  1.00  0.00    -0.135 OA 
BRANCH  11  14
HETATM   14  C   UNL     2      -8.521   3.822  66.706  1.00  0.00    -0.105 C  
HETATM   15  O   UNL     2      -9.178   5.046  66.991  1.00  0.00    -0.115 OA 
HETATM   16  H   UNL     2      -9.100   5.250  67.916  1.00  0.00     0.000 HD 
BRANCH  14  17
HETATM   17  C   UNL     2      -7.141   3.653  67.370  1.00  0.00    -0.059 C  
HETATM   18  H   UNL     2      -5.714   2.323  67.277  1.00  0.00     0.000 HD 
HETATM   19  O   UNL     2      -6.565   2.427  66.867  1.00  0.00    -0.037 OA 
BRANCH  17  20
HETATM   20  C   UNL     2      -6.179   4.832  67.224  1.00  0.00    -0.035 C  
HETATM   21  O   UNL     2      -6.728   5.860  66.371  1.00  0.00    -0.054 OA 
HETATM   22  C   UNL     2      -5.933   5.412  68.646  1.00  0.00    -0.021 C  
HETATM   23  H   UNL     2      -6.130   6.593  66.281  1.00  0.00     0.000 HD 
HETATM   24  O   UNL     2      -5.817   4.540  69.547  1.00  0.00    -0.016 OA 
HETATM   25  O   UNL     2      -5.914   6.672  68.675  1.00  0.00    -0.020 OA 
ENDBRANCH  17  20
ENDBRANCH  14  17
ENDBRANCH  11  14
ENDBRANCH   8  11
ENDBRANCH   5   8
BRANCH   6  26
HETATM   26  C   UNL     3      -9.757   8.594  69.246  1.00  0.00    -0.173 C  
HETATM   27  H   UNL     3      -9.382   7.094  68.108  1.00  0.00     0.000 HD 
HETATM   28  O   UNL     3      -8.943   7.915  68.298  1.00  0.00    -0.133 OA 
BRANCH  26  29
HETATM   29  C   UNL     3     -10.032   7.763  70.526  1.00  0.00    -0.187 C  
HETATM   30  O   UNL     3     -11.018   8.495  71.379  1.00  0.00    -0.237 OA 
HETATM   31  H   UNL     3     -11.186   7.986  72.163  1.00  0.00     0.000 HD 
BRANCH  29  32
HETATM   32  C   UNL     3     -10.749   6.420  70.269  1.00  0.00    -0.266 C  
HETATM   33  H   UNL     3     -12.624   5.819  70.308  1.00  0.00     0.000 HD 
HETATM   34  O   UNL     3     -12.183   6.645  70.467  1.00  0.00    -0.364 OA 
BRANCH  32  35
HETATM   35  C   UNL     3     -10.244   5.046  70.736  1.00  0.00    -0.229 C  
HETATM   36  H   UNL     3      -8.723   3.934  70.301  1.00  0.00     0.000 HD 
HETATM   37  O   UNL     3      -9.035   4.783  70.012  1.00  0.00    -0.090 OA 
BRANCH  35  38
HETATM   38  C   UNL     3     -10.072   4.854  72.239  1.00  0.00    -0.191 C  
HETATM   39  C   UNL     3      -9.892   3.351  72.581  1.00  0.00    -0.146 C  
HETATM   40  O   UNL     3     -11.217   5.354  72.957  1.00  0.00    -0.288 OA 
HETATM   41  O   UNL     3      -9.833   2.557  71.591  1.00  0.00    -0.155 OA 
HETATM   42  O   UNL     3     -10.063   3.085  73.803  1.00  0.00    -0.104 OA 
HETATM   43  H   UNL     3     -11.110   5.235  73.894  1.00  0.00     0.000 HD 
ENDBRANCH  35  38
ENDBRANCH  32  35
ENDBRANCH  29  32
ENDBRANCH  26  29
ENDBRANCH   6  26
TORSDOF 10
ENDMDL
MODEL      452
REMARK 921   NORMALIZED FREE ENERGY PREDICTED BY IDOCK:   -3.38 KCAL/MOL
REMARK 922        TOTAL FREE ENERGY PREDICTED BY IDOCK:   -7.86 KCAL/MOL
REMARK 923 INTER-LIGAND FREE ENERGY PREDICTED BY IDOCK:   -6.28 KCAL/MOL
REMARK 924 INTRA-LIGAND FREE ENERGY PREDICTED BY IDOCK:   -1.58 KCAL/MOL
REMARK 927      BINDING AFFINITY PREDICTED BY RF-SCORE:    0.00 PKD
ROOT
HETATM    1 CA   UNL     1     -10.000   6.634  65.387  1.00  0.00    -0.383 Ca 
HETATM    2  O   UNL     2      -6.686  10.937  63.538  1.00  0.00    -0.336 OA 
HETATM    3  O   UNL     3      -9.638   1.655  69.213  1.00  0.00    -0.096 OA 
HETATM    4  H   UNL     2      -6.454  10.640  62.666  1.00  0.00     0.000 HD 
HETATM    5  C   UNL     2      -7.471   9.931  64.176  1.00  0.00    -0.139 C  
HETATM    6  C   UNL     3      -9.522   2.016  67.839  1.00  0.00    -0.121 C  
HETATM    7  H   UNL     3     -10.251   0.936  69.312  1.00  0.00     0.000 HD 
ENDROOT
BRANCH   5   8
HETATM    8  C   UNL     2      -7.848  10.414  65.592  1.00  0.00    -0.154 C  
HETATM    9  O   UNL     2      -6.884  11.379  66.001  1.00  0.00    -0.369 OA 
HETATM   10  H   UNL     2      -7.116  11.676  66.873  1.00  0.00     0.000 HD 
BRANCH   8  11
HETATM   11  C   UNL     2      -9.230  11.087  65.604  1.00  0.00    -0.210 C  
HETATM   12  H   UNL     2     -10.992  10.893  66.549  1.00  0.00     0.000 HD 
HETATM   13  O   UNL     2     -10.138  10.477  66.542  1.00  0.00    -0.210 OA 
BRANCH  11  14
HETATM   14  C   UNL     2      -9.330  12.626  65.741  1.00  0.00     0.056 C  
HETATM   15  O   UNL     2      -9.137  13.007  67.093  1.00  0.00    -0.209 OA 
HETATM   16  H   UNL     2      -9.198  13.952  67.177  1.00  0.00     0.000 HD 
BRANCH  14  17
HETATM   17  C   UNL     2     -10.489  13.342  65.021  1.00  0.00    -0.365 C  
HETATM   18  H   UNL     2     -11.349  13.174  63.276  1.00  0.00     0.000 HD 
HETATM   19  O   UNL     2     -10.634  12.733  63.719  1.00  0.00    -0.412 OA 
BRANCH  17  20
HETATM   20  C   UNL     2     -11.817  13.391  65.776  1.00  0.00    -0.377 C  
HETATM   21  O   UNL     2     -11.968  12.254  66.654  1.00  0.00    -0.598 OA 
HETATM   22  C   UNL     2     -11.831  14.701  66.613  1.00  0.00    -0.310 C  
HETATM   23  H   UNL     2     -12.794  12.285  67.123  1.00  0.00     0.000 HD 
HETATM   24  O   UNL     2     -11.344  15.699  66.019  1.00  0.00    -0.138 OA 
HETATM   25  O   UNL     2     -12.309  14.551  67.769  1.00  0.00    -0.204 OA 
ENDBRANCH  17  20
ENDBRANCH  14  17
ENDBRANCH  11  14
ENDBRANCH   8  11
ENDBRANCH   5   8
BRANCH   6  26
HETATM   26  C   UNL     3      -8.532   3.178  67.679  1.00  0.00    -0.090 C  
HETATM   27  H   UNL     3      -8.581   4.881  66.796  1.00  0.00     0.000 HD 
HETATM   28  O   UNL     3      -9.194   4.162  66.895  1.00  0.00    -0.132 OA 
BRANCH  26  29
HETATM   29  C   UNL     3      -8.032   3.718  69.045  1.00  0.00    -0.058 C  
HETATM   30  O   UNL     3      -6.569   3.435  69.173  1.00  0.00    -0.033 OA 
HETATM   31  H   UNL     3      -6.263   3.765  70.010  1.00  0.00     0.000 HD 
BRANCH  29  32
HETATM   32  C   UNL     3      -8.084   5.255  69.178  1.00  0.00    -0.089 C  
HETATM   33  H   UNL     3      -6.958   6.742  68.544  1.00  0.00     0.000 HD 
HETATM   34  O   UNL     3      -6.925   5.796  68.463  1.00  0.00    -0.063 OA 
BRANCH  32  35
HETATM   35  C   UNL     3      -8.464   6.019  70.456  1.00  0.00    -0.132 C  
HETATM   36  H   UNL     3      -7.497   6.625  72.018  1.00  0.00     0.000 HD 
HETATM   37  O   UNL     3      -7.262   6.152  71.227  1.00  0.00    -0.075 OA 
BRANCH  35  38
HETATM   38  C   UNL     3      -9.183   7.350  70.271  1.00  0.00    -0.154 C  
HETATM   39  C   UNL     3     -10.628   7.273  70.831  1.00  0.00    -0.220 C  
HETATM   40  O   UNL     3      -9.250   7.711  68.877  1.00  0.00    -0.140 OA 
HETATM   41  O   UNL     3     -10.945   6.187  71.410  1.00  0.00    -0.257 OA 
HETATM   42  O   UNL     3     -11.377   8.209  70.434  1.00  0.00    -0.259 OA 
HETATM   43  H   UNL     3      -9.698   8.540  68.762  1.00  0.00     0.000 HD 
ENDBRANCH  35  38
ENDBRANCH  32  35
ENDBRANCH  29  32
ENDBRANCH  26  29
ENDBRANCH   6  26
TORSDOF 10
ENDMDL
MODEL      453
REMARK 921   NORMALIZED FREE ENERGY PREDICTED BY IDOCK:   -3.37 KCAL/MOL
REMARK 922        TOTAL FREE ENERGY PREDICTED BY IDOCK:   -7.85 KCAL/MOL
REMARK 923 INTER-LIGAND FREE ENERGY PREDICTED BY IDOCK:   -8.77 KCAL/MOL
REMARK 924 INTRA-LIGAND FREE ENERGY PREDICTED BY IDOCK:    0.93 KCAL/MOL
REMARK 927      BINDING AFFINITY PREDICTED BY RF-SCORE:    0.00 PKD
ROOT
HETATM    1 CA   UNL     1      -7.490  15.207  66.091  1.00  0.00    -0.211 Ca 
HETATM    2  O   UNL     2     -10.987  11.863  63.006  1.00  0.00    -0.670 OA 
HETATM    3  O   UNL     3      -6.616  21.309  67.336  1.00  0.00    -0.440 OA 
HETATM    4  H   UNL     2     -10.437  11.646  62.262  1.00  0.00     0.000 HD 
HETATM    5  C   UNL     2     -10.277  12.762  63.857  1.00  0.00    -0.240 C  
HETATM    6  C   UNL     3      -6.149  20.267  66.483  1.00  0.00    -0.178 C  
HETATM    7  H   UNL     3      -5.885  21.728  67.774  1.00  0.00     0.000 HD 
ENDROOT
BRANCH   5   8
HETATM    8  C   UNL     2     -11.170  13.115  65.065  1.00  0.00    -0.298 C  
HETATM    9  O   UNL     2     -12.088  12.046  65.264  1.00  0.00    -0.404 OA 
HETATM   10  H   UNL     2     -12.638  12.263  66.008  1.00  0.00     0.000 HD 
BRANCH   8  11
HETATM   11  C   UNL     2     -10.337  13.273  66.348  1.00  0.00    -0.286 C  
HETATM   12  H   UNL     2     -10.240  14.494  67.940  1.00  0.00     0.000 HD 
HETATM   13  O   UNL     2     -10.755  14.397  67.148  1.00  0.00    -0.278 OA 
BRANCH  11  14
HETATM   14  C   UNL     2     -10.124  12.052  67.276  1.00  0.00    -0.194 C  
HETATM   15  O   UNL     2      -9.880  10.889  66.501  1.00  0.00    -0.193 OA 
HETATM   16  H   UNL     2      -9.749  10.139  67.071  1.00  0.00     0.000 HD 
BRANCH  14  17
HETATM   17  C   UNL     2     -11.100  11.858  68.452  1.00  0.00    -0.244 C  
HETATM   18  H   UNL     2     -12.988  12.251  68.763  1.00  0.00     0.000 HD 
HETATM   19  O   UNL     2     -12.386  12.370  68.037  1.00  0.00    -0.237 OA 
BRANCH  17  20
HETATM   20  C   UNL     2     -11.208  10.438  69.006  1.00  0.00    -0.234 C  
HETATM   21  O   UNL     2      -9.950   9.734  68.905  1.00  0.00    -0.163 OA 
HETATM   22  C   UNL     2     -11.624  10.549  70.499  1.00  0.00    -0.350 C  
HETATM   23  H   UNL     2     -10.017   8.851  69.250  1.00  0.00     0.000 HD 
HETATM   24  O   UNL     2     -12.482  11.442  70.732  1.00  0.00    -0.360 OA 
HETATM   25  O   UNL     2     -11.016   9.740  71.250  1.00  0.00    -0.351 OA 
ENDBRANCH  17  20
ENDBRANCH  14  17
ENDBRANCH  11  14
ENDBRANCH   8  11
ENDBRANCH   5   8
BRANCH   6  26
HETATM   26  C   UNL     3      -7.331  19.591  65.776  1.00  0.00    -0.279 C  
HETATM   27  H   UNL     3      -7.526  18.057  64.638  1.00  0.00     0.000 HD 
HETATM   28  O   UNL     3      -6.794  18.476  65.076  1.00  0.00    -0.498 OA 
BRANCH  26  29
HETATM   29  C   UNL     3      -8.466  19.208  66.762  1.00  0.00    -0.303 C  
HETATM   30  O   UNL     3      -9.242  18.065  66.189  1.00  0.00    -0.471 OA 
HETATM   31  H   UNL     3      -9.937  17.831  66.793  1.00  0.00     0.000 HD 
BRANCH  29  32
HETATM   32  C   UNL     3      -7.971  18.632  68.106  1.00  0.00    -0.289 C  
HETATM   33  H   UNL     3      -8.048  19.226  69.982  1.00  0.00     0.000 HD 
HETATM   34  O   UNL     3      -8.352  19.581  69.155  1.00  0.00    -0.298 OA 
BRANCH  32  35
HETATM   35  C   UNL     3      -6.616  17.942  68.326  1.00  0.00    -0.199 C  
HETATM   36  H   UNL     3      -5.221  18.074  69.659  1.00  0.00     0.000 HD 
HETATM   37  O   UNL     3      -6.059  18.501  69.523  1.00  0.00    -0.253 OA 
BRANCH  35  38
HETATM   38  C   UNL     3      -6.618  16.417  68.346  1.00  0.00    -0.136 C  
HETATM   39  C   UNL     3      -7.988  15.879  68.835  1.00  0.00    -0.204 C  
HETATM   40  O   UNL     3      -5.588  15.912  69.218  1.00  0.00    -0.110 OA 
HETATM   41  O   UNL     3      -8.886  16.752  69.052  1.00  0.00    -0.253 OA 
HETATM   42  O   UNL     3      -7.963  14.665  69.180  1.00  0.00    -0.148 OA 
HETATM   43  H   UNL     3      -5.589  14.962  69.230  1.00  0.00     0.000 HD 
ENDBRANCH  35  38
ENDBRANCH  32  35
ENDBRANCH  29  32
ENDBRANCH  26  29
ENDBRANCH   6  26
TORSDOF 10
ENDMDL
MODEL      454
REMARK 921   NORMALIZED FREE ENERGY PREDICTED BY IDOCK:   -3.36 KCAL/MOL
REMARK 922        TOTAL FREE ENERGY PREDICTED BY IDOCK:   -7.83 KCAL/MOL
REMARK 923 INTER-LIGAND FREE ENERGY PREDICTED BY IDOCK:   -7.61 KCAL/MOL
REMARK 924 INTRA-LIGAND FREE ENERGY PREDICTED BY IDOCK:   -0.22 KCAL/MOL
REMARK 927      BINDING AFFINITY PREDICTED BY RF-SCORE:    0.00 PKD
ROOT
HETATM    1 CA   UNL     1      -7.182   9.245  68.413  1.00  0.00    -0.067 Ca 
HETATM    2  O   UNL     2      -7.682  14.755  66.894  1.00  0.00    -0.317 OA 
HETATM    3  O   UNL     3      -7.455   5.695  73.598  1.00  0.00    -0.090 OA 
HETATM    4  H   UNL     2      -6.773  15.003  66.770  1.00  0.00     0.000 HD 
HETATM    5  C   UNL     2      -7.734  13.404  67.348  1.00  0.00    -0.137 C  
HETATM    6  C   UNL     3      -6.523   6.359  72.749  1.00  0.00    -0.063 C  
HETATM    7  H   UNL     3      -7.208   4.785  73.709  1.00  0.00     0.000 HD 
ENDROOT
BRANCH   5   8
HETATM    8  C   UNL     2      -9.210  13.001  67.549  1.00  0.00    -0.195 C  
HETATM    9  O   UNL     2      -9.360  12.522  68.882  1.00  0.00    -0.395 OA 
HETATM   10  H   UNL     2     -10.269  12.274  69.006  1.00  0.00     0.000 HD 
BRANCH   8  11
HETATM   11  C   UNL     2     -10.148  14.205  67.367  1.00  0.00    -0.240 C  
HETATM   12  H   UNL     2     -11.161  15.116  65.890  1.00  0.00     0.000 HD 
HETATM   13  O   UNL     2     -10.581  14.372  66.003  1.00  0.00    -0.287 OA 
BRANCH  11  14
HETATM   14  C   UNL     2     -11.371  14.371  68.303  1.00  0.00    -0.287 C  
HETATM   15  O   UNL     2     -12.533  13.849  67.681  1.00  0.00    -0.449 OA 
HETATM   16  H   UNL     2     -13.284  13.951  68.255  1.00  0.00     0.000 HD 
BRANCH  14  17
HETATM   17  C   UNL     2     -11.562  15.727  69.009  1.00  0.00    -0.400 C  
HETATM   18  H   UNL     2     -12.760  16.411  70.392  1.00  0.00     0.000 HD 
HETATM   19  O   UNL     2     -12.642  15.574  69.956  1.00  0.00    -0.339 OA 
BRANCH  17  20
HETATM   20  C   UNL     2     -10.315  16.323  69.662  1.00  0.00    -0.261 C  
HETATM   21  O   UNL     2      -9.333  15.305  69.954  1.00  0.00    -0.440 OA 
HETATM   22  C   UNL     2      -9.714  17.355  68.666  1.00  0.00    -0.308 C  
HETATM   23  H   UNL     2      -8.558  15.676  70.360  1.00  0.00     0.000 HD 
HETATM   24  O   UNL     2     -10.573  18.053  68.064  1.00  0.00    -0.387 OA 
HETATM   25  O   UNL     2      -8.457  17.313  68.600  1.00  0.00    -0.262 OA 
ENDBRANCH  17  20
ENDBRANCH  14  17
ENDBRANCH  11  14
ENDBRANCH   8  11
ENDBRANCH   5   8
BRANCH   6  26
HETATM   26  C   UNL     3      -6.922   7.830  72.570  1.00  0.00    -0.074 C  
HETATM   27  H   UNL     3      -5.957   9.478  72.383  1.00  0.00     0.000 HD 
HETATM   28  O   UNL     3      -5.710   8.568  72.494  1.00  0.00    -0.050 OA 
BRANCH  26  29
HETATM   29  C   UNL     3      -7.848   8.043  71.343  1.00  0.00    -0.094 C  
HETATM   30  O   UNL     3      -8.293   6.709  70.833  1.00  0.00    -0.123 OA 
HETATM   31  H   UNL     3      -8.859   6.840  70.081  1.00  0.00     0.000 HD 
BRANCH  29  32
HETATM   32  C   UNL     3      -9.188   8.736  71.672  1.00  0.00    -0.263 C  
HETATM   33  H   UNL     3     -10.113   9.250  73.333  1.00  0.00     0.000 HD 
HETATM   34  O   UNL     3      -9.288   8.823  73.131  1.00  0.00    -0.148 OA 
BRANCH  32  35
HETATM   35  C   UNL     3     -10.519   8.471  70.951  1.00  0.00    -0.203 C  
HETATM   36  H   UNL     3     -11.943   9.588  70.268  1.00  0.00     0.000 HD 
HETATM   37  O   UNL     3     -11.119   9.751  70.714  1.00  0.00    -0.293 OA 
BRANCH  35  38
HETATM   38  C   UNL     3     -10.458   7.618  69.689  1.00  0.00    -0.235 C  
HETATM   39  C   UNL     3     -10.264   8.510  68.435  1.00  0.00    -0.203 C  
HETATM   40  O   UNL     3     -11.668   6.852  69.526  1.00  0.00    -0.585 OA 
HETATM   41  O   UNL     3     -10.106   9.752  68.653  1.00  0.00    -0.159 OA 
HETATM   42  O   UNL     3     -10.521   7.921  67.349  1.00  0.00    -0.255 OA 
HETATM   43  H   UNL     3     -11.630   6.320  68.739  1.00  0.00     0.000 HD 
ENDBRANCH  35  38
ENDBRANCH  32  35
ENDBRANCH  29  32
ENDBRANCH  26  29
ENDBRANCH   6  26
TORSDOF 10
ENDMDL
MODEL      455
REMARK 921   NORMALIZED FREE ENERGY PREDICTED BY IDOCK:   -3.35 KCAL/MOL
REMARK 922        TOTAL FREE ENERGY PREDICTED BY IDOCK:   -7.81 KCAL/MOL
REMARK 923 INTER-LIGAND FREE ENERGY PREDICTED BY IDOCK:   -5.61 KCAL/MOL
REMARK 924 INTRA-LIGAND FREE ENERGY PREDICTED BY IDOCK:   -2.20 KCAL/MOL
REMARK 927      BINDING AFFINITY PREDICTED BY RF-SCORE:    0.00 PKD
ROOT
HETATM    1 CA   UNL     1     -10.164  10.733  70.103  1.00  0.00    -0.280 Ca 
HETATM    2  O   UNL     2      -5.178   9.557  72.687  1.00  0.00    -0.077 OA 
HETATM    3  O   UNL     3     -12.318  12.289  64.403  1.00  0.00    -0.425 OA 
HETATM    4  H   UNL     2      -5.009  10.367  73.155  1.00  0.00     0.000 HD 
HETATM    5  C   UNL     2      -6.373   9.707  71.923  1.00  0.00     0.341 C  
HETATM    6  C   UNL     3     -11.926  12.870  65.643  1.00  0.00    -0.440 C  
HETATM    7  H   UNL     3     -13.184  12.593  64.157  1.00  0.00     0.000 HD 
ENDROOT
BRANCH   5   8
HETATM    8  C   UNL     2      -6.648   8.392  71.163  1.00  0.00    -0.050 C  
HETATM    9  O   UNL     2      -5.395   7.822  70.798  1.00  0.00    -0.026 OA 
HETATM   10  H   UNL     2      -5.565   7.013  70.330  1.00  0.00     0.000 HD 
BRANCH   8  11
HETATM   11  C   UNL     2      -7.392   7.380  72.050  1.00  0.00    -0.072 C  
HETATM   12  H   UNL     2      -8.453   7.366  73.756  1.00  0.00     0.000 HD 
HETATM   13  O   UNL     2      -7.994   7.991  73.208  1.00  0.00    -0.149 OA 
BRANCH  11  14
HETATM   14  C   UNL     2      -8.414   6.408  71.409  1.00  0.00    -0.126 C  
HETATM   15  O   UNL     2      -9.725   6.723  71.850  1.00  0.00    -0.157 OA 
HETATM   16  H   UNL     2     -10.352   6.127  71.457  1.00  0.00     0.000 HD 
BRANCH  14  17
HETATM   17  C   UNL     2      -8.073   4.906  71.398  1.00  0.00    -0.110 C  
HETATM   18  H   UNL     2      -6.430   3.860  71.255  1.00  0.00     0.000 HD 
HETATM   19  O   UNL     2      -6.640   4.787  71.262  1.00  0.00    -0.028 OA 
BRANCH  17  20
HETATM   20  C   UNL     2      -8.601   4.091  72.578  1.00  0.00    -0.103 C  
HETATM   21  O   UNL     2      -8.815   4.921  73.741  1.00  0.00    -0.109 OA 
HETATM   22  C   UNL     2      -9.948   3.451  72.140  1.00  0.00    -0.160 C  
HETATM   23  H   UNL     2      -9.143   4.414  74.474  1.00  0.00     0.000 HD 
HETATM   24  O   UNL     2      -9.957   3.025  70.954  1.00  0.00    -0.067 OA 
HETATM   25  O   UNL     2     -10.833   3.484  73.037  1.00  0.00    -0.166 OA 
ENDBRANCH  17  20
ENDBRANCH  14  17
ENDBRANCH  11  14
ENDBRANCH   8  11
ENDBRANCH   5   8
BRANCH   6  26
HETATM   26  C   UNL     3     -10.527  12.378  66.040  1.00  0.00    -0.254 C  
HETATM   27  H   UNL     3      -8.903  13.234  66.600  1.00  0.00     0.000 HD 
HETATM   28  O   UNL     3      -9.768  13.539  66.354  1.00  0.00    -0.281 OA 
BRANCH  26  29
HETATM   29  C   UNL     3     -10.573  11.344  67.196  1.00  0.00    -0.243 C  
HETATM   30  O   UNL     3     -11.946  10.757  67.269  1.00  0.00    -0.217 OA 
HETATM   31  H   UNL     3     -11.975  10.124  67.977  1.00  0.00     0.000 HD 
BRANCH  29  32
HETATM   32  C   UNL     3      -9.691  10.098  66.969  1.00  0.00    -0.180 C  
HETATM   33  H   UNL     3      -8.260   9.624  65.701  1.00  0.00     0.000 HD 
HETATM   34  O   UNL     3      -8.803  10.391  65.841  1.00  0.00    -0.153 OA 
BRANCH  32  35
HETATM   35  C   UNL     3     -10.183   8.643  67.037  1.00  0.00    -0.290 C  
HETATM   36  H   UNL     3      -9.574   6.964  66.296  1.00  0.00     0.000 HD 
HETATM   37  O   UNL     3      -9.270   7.863  66.254  1.00  0.00    -0.181 OA 
BRANCH  35  38
HETATM   38  C   UNL     3     -10.397   8.058  68.429  1.00  0.00    -0.199 C  
HETATM   39  C   UNL     3     -10.963   6.616  68.334  1.00  0.00    -0.239 C  
HETATM   40  O   UNL     3     -11.319   8.863  69.190  1.00  0.00    -0.417 OA 
HETATM   41  O   UNL     3     -11.073   6.136  67.162  1.00  0.00    -0.333 OA 
HETATM   42  O   UNL     3     -11.459   6.194  69.414  1.00  0.00    -0.423 OA 
HETATM   43  H   UNL     3     -11.452   8.498  70.057  1.00  0.00     0.000 HD 
ENDBRANCH  35  38
ENDBRANCH  32  35
ENDBRANCH  29  32
ENDBRANCH  26  29
ENDBRANCH   6  26
TORSDOF 10
ENDMDL
MODEL      456
REMARK 921   NORMALIZED FREE ENERGY PREDICTED BY IDOCK:   -3.35 KCAL/MOL
REMARK 922        TOTAL FREE ENERGY PREDICTED BY IDOCK:   -7.81 KCAL/MOL
REMARK 923 INTER-LIGAND FREE ENERGY PREDICTED BY IDOCK:   -6.63 KCAL/MOL
REMARK 924 INTRA-LIGAND FREE ENERGY PREDICTED BY IDOCK:   -1.18 KCAL/MOL
REMARK 927      BINDING AFFINITY PREDICTED BY RF-SCORE:    0.00 PKD
ROOT
HETATM    1 CA   UNL     1      -7.054  12.033  68.753  1.00  0.00    -0.070 Ca 
HETATM    2  O   UNL     2      -5.155   6.813  70.193  1.00  0.00    -0.014 OA 
HETATM    3  O   UNL     3     -12.390  14.820  66.935  1.00  0.00    -0.403 OA 
HETATM    4  H   UNL     2      -4.690   6.554  69.406  1.00  0.00     0.000 HD 
HETATM    5  C   UNL     2      -5.757   8.088  69.975  1.00  0.00    -0.023 C  
HETATM    6  C   UNL     3     -11.194  14.252  66.409  1.00  0.00    -0.337 C  
HETATM    7  H   UNL     3     -12.516  15.697  66.591  1.00  0.00     0.000 HD 
ENDROOT
BRANCH   5   8
HETATM    8  C   UNL     2      -6.513   8.508  71.254  1.00  0.00    -0.056 C  
HETATM    9  O   UNL     2      -6.805   9.898  71.157  1.00  0.00    -0.337 OA 
HETATM   10  H   UNL     2      -7.270  10.157  71.945  1.00  0.00     0.000 HD 
BRANCH   8  11
HETATM   11  C   UNL     2      -7.843   7.750  71.392  1.00  0.00    -0.090 C  
HETATM   12  H   UNL     2      -8.715   6.456  72.658  1.00  0.00     0.000 HD 
HETATM   13  O   UNL     2      -7.893   6.925  72.573  1.00  0.00    -0.095 OA 
BRANCH  11  14
HETATM   14  C   UNL     2      -9.179   8.521  71.264  1.00  0.00    -0.200 C  
HETATM   15  O   UNL     2      -9.569   9.032  72.529  1.00  0.00    -0.182 OA 
HETATM   16  H   UNL     2     -10.389   9.505  72.450  1.00  0.00     0.000 HD 
BRANCH  14  17
HETATM   17  C   UNL     2     -10.312   7.873  70.446  1.00  0.00    -0.212 C  
HETATM   18  H   UNL     2     -10.891   6.041  70.092  1.00  0.00     0.000 HD 
HETATM   19  O   UNL     2     -10.192   6.441  70.597  1.00  0.00    -0.184 OA 
BRANCH  17  20
HETATM   20  C   UNL     2     -11.727   8.358  70.761  1.00  0.00    -0.202 C  
HETATM   21  O   UNL     2     -12.038   8.209  72.163  1.00  0.00    -0.319 OA 
HETATM   22  C   UNL     2     -11.804   9.860  70.367  1.00  0.00    -0.234 C  
HETATM   23  H   UNL     2     -12.918   8.511  72.359  1.00  0.00     0.000 HD 
HETATM   24  O   UNL     2     -11.204  10.146  69.297  1.00  0.00    -0.227 OA 
HETATM   25  O   UNL     2     -12.438  10.564  71.199  1.00  0.00    -0.339 OA 
ENDBRANCH  17  20
ENDBRANCH  14  17
ENDBRANCH  11  14
ENDBRANCH   8  11
ENDBRANCH   5   8
BRANCH   6  26
HETATM   26  C   UNL     3     -10.991  12.836  66.964  1.00  0.00    -0.263 C  
HETATM   27  H   UNL     3     -12.139  11.522  67.765  1.00  0.00     0.000 HD 
HETATM   28  O   UNL     3     -12.264  12.399  67.422  1.00  0.00    -0.459 OA 
BRANCH  26  29
HETATM   29  C   UNL     3     -10.353  11.880  65.921  1.00  0.00    -0.242 C  
HETATM   30  O   UNL     3      -9.651  12.694  64.882  1.00  0.00    -0.482 OA 
HETATM   31  H   UNL     3      -9.261  12.109  64.243  1.00  0.00     0.000 HD 
BRANCH  29  32
HETATM   32  C   UNL     3      -9.214  11.001  66.479  1.00  0.00    -0.171 C  
HETATM   33  H   UNL     3      -7.331  11.315  66.966  1.00  0.00     0.000 HD 
HETATM   34  O   UNL     3      -8.032  11.856  66.622  1.00  0.00    -0.132 OA 
BRANCH  32  35
HETATM   35  C   UNL     3      -8.914   9.559  66.040  1.00  0.00    -0.163 C  
HETATM   36  H   UNL     3      -9.657   7.825  66.464  1.00  0.00     0.000 HD 
HETATM   37  O   UNL     3      -9.842   8.716  66.735  1.00  0.00    -0.205 OA 
BRANCH  35  38
HETATM   38  C   UNL     3      -8.900   9.289  64.540  1.00  0.00    -0.163 C  
HETATM   39  C   UNL     3      -7.528   9.677  63.928  1.00  0.00    -0.123 C  
HETATM   40  O   UNL     3      -9.930  10.043  63.870  1.00  0.00    -0.476 OA 
HETATM   41  O   UNL     3      -6.638  10.061  64.750  1.00  0.00    -0.115 OA 
HETATM   42  O   UNL     3      -7.545   9.784  62.670  1.00  0.00    -0.113 OA 
HETATM   43  H   UNL     3      -9.921   9.875  62.935  1.00  0.00     0.000 HD 
ENDBRANCH  35  38
ENDBRANCH  32  35
ENDBRANCH  29  32
ENDBRANCH  26  29
ENDBRANCH   6  26
TORSDOF 10
ENDMDL
MODEL      457
REMARK 921   NORMALIZED FREE ENERGY PREDICTED BY IDOCK:   -3.31 KCAL/MOL
REMARK 922        TOTAL FREE ENERGY PREDICTED BY IDOCK:   -7.75 KCAL/MOL
REMARK 923 INTER-LIGAND FREE ENERGY PREDICTED BY IDOCK:   -6.21 KCAL/MOL
REMARK 924 INTRA-LIGAND FREE ENERGY PREDICTED BY IDOCK:   -1.54 KCAL/MOL
REMARK 927      BINDING AFFINITY PREDICTED BY RF-SCORE:    0.00 PKD
ROOT
HETATM    1 CA   UNL     1      -9.846   4.842  68.268  1.00  0.00    -0.120 Ca 
HETATM    2  O   UNL     2      -7.587   8.403  64.377  1.00  0.00    -0.101 OA 
HETATM    3  O   UNL     3     -10.695   4.512  74.490  1.00  0.00    -0.307 OA 
HETATM    4  H   UNL     2      -6.761   7.976  64.183  1.00  0.00     0.000 HD 
HETATM    5  C   UNL     2      -8.259   7.667  65.398  1.00  0.00    -0.136 C  
HETATM    6  C   UNL     3      -9.806   4.083  73.462  1.00  0.00    -0.118 C  
HETATM    7  H   UNL     3     -10.973   3.770  75.014  1.00  0.00     0.000 HD 
ENDROOT
BRANCH   5   8
HETATM    8  C   UNL     2      -9.600   8.361  65.714  1.00  0.00     0.063 C  
HETATM    9  O   UNL     2     -10.263   7.604  66.721  1.00  0.00    -0.292 OA 
HETATM   10  H   UNL     2     -11.089   8.031  66.916  1.00  0.00     0.000 HD 
BRANCH   8  11
HETATM   11  C   UNL     2      -9.379   9.783  66.255  1.00  0.00    -0.180 C  
HETATM   12  H   UNL     2      -8.037  10.779  67.371  1.00  0.00     0.000 HD 
HETATM   13  O   UNL     2      -8.174   9.900  67.036  1.00  0.00    -0.116 OA 
BRANCH  11  14
HETATM   14  C   UNL     2      -9.468  10.991  65.290  1.00  0.00    -0.223 C  
HETATM   15  O   UNL     2      -8.171  11.357  64.849  1.00  0.00    -0.214 OA 
HETATM   16  H   UNL     2      -8.225  12.098  64.257  1.00  0.00     0.000 HD 
BRANCH  14  17
HETATM   17  C   UNL     2     -10.378  12.168  65.688  1.00  0.00    -0.257 C  
HETATM   18  H   UNL     2     -10.321  13.561  67.055  1.00  0.00     0.000 HD 
HETATM   19  O   UNL     2      -9.760  12.835  66.810  1.00  0.00    -0.230 OA 
BRANCH  17  20
HETATM   20  C   UNL     2     -10.731  13.149  64.570  1.00  0.00    -0.398 C  
HETATM   21  O   UNL     2      -9.723  13.155  63.534  1.00  0.00    -0.417 OA 
HETATM   22  C   UNL     2     -12.093  12.703  63.968  1.00  0.00    -0.462 C  
HETATM   23  H   UNL     2      -9.943  13.765  62.839  1.00  0.00     0.000 HD 
HETATM   24  O   UNL     2     -12.930  12.308  64.822  1.00  0.00    -0.713 OA 
HETATM   25  O   UNL     2     -12.135  12.784  62.711  1.00  0.00     0.015 OA 
ENDBRANCH  17  20
ENDBRANCH  14  17
ENDBRANCH  11  14
ENDBRANCH   8  11
ENDBRANCH   5   8
BRANCH   6  26
HETATM   26  C   UNL     3      -9.356   5.282  72.616  1.00  0.00    -0.137 C  
HETATM   27  H   UNL     3      -8.300   5.493  71.028  1.00  0.00     0.000 HD 
HETATM   28  O   UNL     3      -8.578   4.751  71.551  1.00  0.00    -0.113 OA 
BRANCH  26  29
HETATM   29  C   UNL     3     -10.553   6.143  72.132  1.00  0.00    -0.209 C  
HETATM   30  O   UNL     3     -11.331   6.607  73.322  1.00  0.00    -0.484 OA 
HETATM   31  H   UNL     3     -12.063   7.134  73.025  1.00  0.00     0.000 HD 
BRANCH  29  32
HETATM   32  C   UNL     3     -10.148   7.473  71.462  1.00  0.00    -0.181 C  
HETATM   33  H   UNL     3     -11.131   9.028  70.758  1.00  0.00     0.000 HD 
HETATM   34  O   UNL     3     -11.381   8.209  71.170  1.00  0.00    -0.259 OA 
BRANCH  32  35
HETATM   35  C   UNL     3      -9.042   7.630  70.407  1.00  0.00    -0.152 C  
HETATM   36  H   UNL     3      -8.866   8.620  68.755  1.00  0.00     0.000 HD 
HETATM   37  O   UNL     3      -9.550   8.523  69.407  1.00  0.00    -0.167 OA 
BRANCH  35  38
HETATM   38  C   UNL     3      -7.666   8.050  70.913  1.00  0.00    -0.084 C  
HETATM   39  C   UNL     3      -6.555   7.193  70.252  1.00  0.00    -0.044 C  
HETATM   40  O   UNL     3      -7.575   7.898  72.343  1.00  0.00    -0.086 OA 
HETATM   41  O   UNL     3      -6.940   6.367  69.366  1.00  0.00    -0.066 OA 
HETATM   42  O   UNL     3      -5.443   7.259  70.845  1.00  0.00    -0.026 OA 
HETATM   43  H   UNL     3      -6.718   8.160  72.658  1.00  0.00     0.000 HD 
ENDBRANCH  35  38
ENDBRANCH  32  35
ENDBRANCH  29  32
ENDBRANCH  26  29
ENDBRANCH   6  26
TORSDOF 10
ENDMDL
MODEL      458
REMARK 921   NORMALIZED FREE ENERGY PREDICTED BY IDOCK:   -3.31 KCAL/MOL
REMARK 922        TOTAL FREE ENERGY PREDICTED BY IDOCK:   -7.75 KCAL/MOL
REMARK 923 INTER-LIGAND FREE ENERGY PREDICTED BY IDOCK:   -5.04 KCAL/MOL
REMARK 924 INTRA-LIGAND FREE ENERGY PREDICTED BY IDOCK:   -2.71 KCAL/MOL
REMARK 927      BINDING AFFINITY PREDICTED BY RF-SCORE:    0.00 PKD
ROOT
HETATM    1 CA   UNL     1      -9.097   7.951  63.960  1.00  0.00    -0.380 Ca 
HETATM    2  O   UNL     2     -10.964   2.526  64.002  1.00  0.00    -0.457 OA 
HETATM    3  O   UNL     3      -9.037  12.991  67.721  1.00  0.00    -0.182 OA 
HETATM    4  H   UNL     2     -11.743   2.587  63.461  1.00  0.00     0.000 HD 
HETATM    5  C   UNL     2     -10.402   3.829  64.152  1.00  0.00    -0.252 C  
HETATM    6  C   UNL     3      -9.772  12.411  66.648  1.00  0.00    -0.225 C  
HETATM    7  H   UNL     3      -8.802  13.887  67.511  1.00  0.00     0.000 HD 
ENDROOT
BRANCH   5   8
HETATM    8  C   UNL     2      -9.137   3.730  65.030  1.00  0.00    -0.141 C  
HETATM    9  O   UNL     2      -8.351   2.643  64.551  1.00  0.00    -0.085 OA 
HETATM   10  H   UNL     2      -7.572   2.582  65.092  1.00  0.00     0.000 HD 
BRANCH   8  11
HETATM   11  C   UNL     2      -8.290   5.009  64.935  1.00  0.00    -0.142 C  
HETATM   12  H   UNL     2      -8.055   6.571  63.693  1.00  0.00     0.000 HD 
HETATM   13  O   UNL     2      -8.578   5.781  63.752  1.00  0.00    -0.008 OA 
BRANCH  11  14
HETATM   14  C   UNL     2      -8.213   5.967  66.149  1.00  0.00    -0.116 C  
HETATM   15  O   UNL     2      -9.071   7.078  65.948  1.00  0.00    -0.315 OA 
HETATM   16  H   UNL     2      -9.023   7.665  66.693  1.00  0.00     0.000 HD 
BRANCH  14  17
HETATM   17  C   UNL     2      -6.820   6.312  66.710  1.00  0.00    -0.062 C  
HETATM   18  H   UNL     2      -5.181   5.310  67.062  1.00  0.00     0.000 HD 
HETATM   19  O   UNL     2      -6.040   5.096  66.716  1.00  0.00    -0.028 OA 
BRANCH  17  20
HETATM   20  C   UNL     2      -6.083   7.455  66.012  1.00  0.00    -0.038 C  
HETATM   21  O   UNL     2      -6.756   7.855  64.798  1.00  0.00    -0.051 OA 
HETATM   22  C   UNL     2      -6.035   8.654  67.000  1.00  0.00    -0.053 C  
HETATM   23  H   UNL     2      -6.297   8.565  64.364  1.00  0.00     0.000 HD 
HETATM   24  O   UNL     2      -5.817   8.328  68.197  1.00  0.00    -0.036 OA 
HETATM   25  O   UNL     2      -6.248   9.766  66.448  1.00  0.00    -0.065 OA 
ENDBRANCH  17  20
ENDBRANCH  14  17
ENDBRANCH  11  14
ENDBRANCH   8  11
ENDBRANCH   5   8
BRANCH   6  26
HETATM   26  C   UNL     3     -10.152  10.963  66.988  1.00  0.00    -0.205 C  
HETATM   27  H   UNL     3      -9.603   9.238  66.350  1.00  0.00     0.000 HD 
HETATM   28  O   UNL     3      -9.368  10.133  66.139  1.00  0.00    -0.159 OA 
BRANCH  26  29
HETATM   29  C   UNL     3      -9.969  10.645  68.495  1.00  0.00    -0.167 C  
HETATM   30  O   UNL     3     -10.436  11.816  69.299  1.00  0.00    -0.412 OA 
HETATM   31  H   UNL     3     -10.324  11.621  70.222  1.00  0.00     0.000 HD 
BRANCH  29  32
HETATM   32  C   UNL     3     -10.869   9.504  69.017  1.00  0.00    -0.160 C  
HETATM   33  H   UNL     3     -12.185   9.331  70.472  1.00  0.00     0.000 HD 
HETATM   34  O   UNL     3     -11.631  10.033  70.151  1.00  0.00    -0.258 OA 
BRANCH  32  35
HETATM   35  C   UNL     3     -10.440   8.036  69.161  1.00  0.00    -0.208 C  
HETATM   36  H   UNL     3     -10.576   6.462  68.045  1.00  0.00     0.000 HD 
HETATM   37  O   UNL     3     -10.841   7.370  67.956  1.00  0.00    -0.161 OA 
BRANCH  35  38
HETATM   38  C   UNL     3      -8.976   7.780  69.504  1.00  0.00    -0.142 C  
HETATM   39  C   UNL     3      -8.755   6.291  69.877  1.00  0.00    -0.141 C  
HETATM   40  O   UNL     3      -8.556   8.599  70.612  1.00  0.00    -0.136 OA 
HETATM   41  O   UNL     3      -9.766   5.530  69.761  1.00  0.00    -0.155 OA 
HETATM   42  O   UNL     3      -7.662   6.073  70.471  1.00  0.00    -0.096 OA 
HETATM   43  H   UNL     3      -7.644   8.440  70.826  1.00  0.00     0.000 HD 
ENDBRANCH  35  38
ENDBRANCH  32  35
ENDBRANCH  29  32
ENDBRANCH  26  29
ENDBRANCH   6  26
TORSDOF 10
ENDMDL
MODEL      459
REMARK 921   NORMALIZED FREE ENERGY PREDICTED BY IDOCK:   -3.28 KCAL/MOL
REMARK 922        TOTAL FREE ENERGY PREDICTED BY IDOCK:   -7.70 KCAL/MOL
REMARK 923 INTER-LIGAND FREE ENERGY PREDICTED BY IDOCK:   -5.61 KCAL/MOL
REMARK 924 INTRA-LIGAND FREE ENERGY PREDICTED BY IDOCK:   -2.10 KCAL/MOL
REMARK 927      BINDING AFFINITY PREDICTED BY RF-SCORE:    0.00 PKD
ROOT
HETATM    1 CA   UNL     1     -10.476  10.656  70.883  1.00  0.00    -0.368 Ca 
HETATM    2  O   UNL     2      -5.829   7.823  72.702  1.00  0.00    -0.040 OA 
HETATM    3  O   UNL     3     -12.194  14.447  66.169  1.00  0.00    -0.403 OA 
HETATM    4  H   UNL     2      -5.534   8.377  73.416  1.00  0.00     0.000 HD 
HETATM    5  C   UNL     2      -6.963   8.431  72.084  1.00  0.00    -0.090 C  
HETATM    6  C   UNL     3     -11.737  14.483  67.518  1.00  0.00    -0.386 C  
HETATM    7  H   UNL     3     -12.988  14.960  66.078  1.00  0.00     0.000 HD 
ENDROOT
BRANCH   5   8
HETATM    8  C   UNL     2      -7.442   7.531  70.925  1.00  0.00    -0.073 C  
HETATM    9  O   UNL     2      -6.300   6.903  70.352  1.00  0.00    -0.037 OA 
HETATM   10  H   UNL     2      -6.596   6.349  69.638  1.00  0.00     0.000 HD 
BRANCH   8  11
HETATM   11  C   UNL     2      -8.390   6.430  71.428  1.00  0.00    -0.122 C  
HETATM   12  H   UNL     2      -9.979   6.250  72.644  1.00  0.00     0.000 HD 
HETATM   13  O   UNL     2      -9.394   6.931  72.333  1.00  0.00    -0.138 OA 
BRANCH  11  14
HETATM   14  C   UNL     2      -9.065   5.479  70.410  1.00  0.00    -0.139 C  
HETATM   15  O   UNL     2     -10.235   6.083  69.882  1.00  0.00    -0.179 OA 
HETATM   16  H   UNL     2     -10.649   5.499  69.257  1.00  0.00     0.000 HD 
BRANCH  14  17
HETATM   17  C   UNL     2      -9.217   3.996  70.797  1.00  0.00    -0.127 C  
HETATM   18  H   UNL     2      -9.820   2.380  69.880  1.00  0.00     0.000 HD 
HETATM   19  O   UNL     2      -9.726   3.295  69.641  1.00  0.00    -0.126 OA 
BRANCH  17  20
HETATM   20  C   UNL     2      -7.968   3.321  71.364  1.00  0.00    -0.059 C  
HETATM   21  O   UNL     2      -6.761   3.882  70.801  1.00  0.00    -0.031 OA 
HETATM   22  C   UNL     2      -7.975   3.541  72.903  1.00  0.00    -0.070 C  
HETATM   23  H   UNL     2      -5.985   3.463  71.153  1.00  0.00     0.000 HD 
HETATM   24  O   UNL     2      -9.112   3.435  73.435  1.00  0.00    -0.092 OA 
HETATM   25  O   UNL     2      -6.839   3.817  73.374  1.00  0.00    -0.041 OA 
ENDBRANCH  17  20
ENDBRANCH  14  17
ENDBRANCH  11  14
ENDBRANCH   8  11
ENDBRANCH   5   8
BRANCH   6  26
HETATM   26  C   UNL     3     -10.454  13.653  67.664  1.00  0.00    -0.238 C  
HETATM   27  H   UNL     3      -8.933  13.713  68.833  1.00  0.00     0.000 HD 
HETATM   28  O   UNL     3      -9.727  14.227  68.743  1.00  0.00    -0.221 OA 
BRANCH  26  29
HETATM   29  C   UNL     3     -10.749  12.142  67.859  1.00  0.00    -0.207 C  
HETATM   30  O   UNL     3     -12.031  11.805  67.168  1.00  0.00    -0.617 OA 
HETATM   31  H   UNL     3     -12.212  10.880  67.287  1.00  0.00     0.000 HD 
BRANCH  29  32
HETATM   32  C   UNL     3      -9.740  11.204  67.162  1.00  0.00    -0.177 C  
HETATM   33  H   UNL     3      -7.946  11.430  66.382  1.00  0.00     0.000 HD 
HETATM   34  O   UNL     3      -8.567  12.008  66.810  1.00  0.00    -0.189 OA 
BRANCH  32  35
HETATM   35  C   UNL     3     -10.105  10.118  66.139  1.00  0.00    -0.246 C  
HETATM   36  H   UNL     3     -10.503  10.109  64.246  1.00  0.00     0.000 HD 
HETATM   37  O   UNL     3     -10.277  10.781  64.879  1.00  0.00    -0.295 OA 
BRANCH  35  38
HETATM   38  C   UNL     3      -9.162   8.924  66.040  1.00  0.00    -0.228 C  
HETATM   39  C   UNL     3      -9.703   7.730  66.870  1.00  0.00    -0.216 C  
HETATM   40  O   UNL     3      -7.848   9.264  66.526  1.00  0.00    -0.099 OA 
HETATM   41  O   UNL     3     -10.842   7.895  67.409  1.00  0.00    -0.237 OA 
HETATM   42  O   UNL     3      -8.840   6.837  67.096  1.00  0.00    -0.117 OA 
HETATM   43  H   UNL     3      -7.261   8.520  66.465  1.00  0.00     0.000 HD 
ENDBRANCH  35  38
ENDBRANCH  32  35
ENDBRANCH  29  32
ENDBRANCH  26  29
ENDBRANCH   6  26
TORSDOF 10
ENDMDL
MODEL      460
REMARK 921   NORMALIZED FREE ENERGY PREDICTED BY IDOCK:   -3.27 KCAL/MOL
REMARK 922        TOTAL FREE ENERGY PREDICTED BY IDOCK:   -7.69 KCAL/MOL
REMARK 923 INTER-LIGAND FREE ENERGY PREDICTED BY IDOCK:   -7.86 KCAL/MOL
REMARK 924 INTRA-LIGAND FREE ENERGY PREDICTED BY IDOCK:    0.17 KCAL/MOL
REMARK 927      BINDING AFFINITY PREDICTED BY RF-SCORE:    0.00 PKD
ROOT
HETATM    1 CA   UNL     1      -9.051  12.631  68.856  1.00  0.00    -0.232 Ca 
HETATM    2  O   UNL     2     -12.883  14.426  64.981  1.00  0.00    -0.631 OA 
HETATM    3  O   UNL     3      -7.815   7.525  72.314  1.00  0.00    -0.092 OA 
HETATM    4  H   UNL     2     -13.434  14.995  65.506  1.00  0.00     0.000 HD 
HETATM    5  C   UNL     2     -11.897  13.832  65.825  1.00  0.00    -0.372 C  
HETATM    6  C   UNL     3      -8.466   8.790  72.388  1.00  0.00     0.076 C  
HETATM    7  H   UNL     3      -7.203   7.428  73.033  1.00  0.00     0.000 HD 
ENDROOT
BRANCH   5   8
HETATM    8  C   UNL     2     -11.001  12.909  64.972  1.00  0.00    -0.297 C  
HETATM    9  O   UNL     2     -10.055  13.721  64.286  1.00  0.00    -0.744 OA 
HETATM   10  H   UNL     2      -9.503  13.152  63.761  1.00  0.00     0.000 HD 
BRANCH   8  11
HETATM   11  C   UNL     2     -10.227  11.915  65.853  1.00  0.00    -0.236 C  
HETATM   12  H   UNL     2     -10.581  10.670  67.390  1.00  0.00     0.000 HD 
HETATM   13  O   UNL     2     -11.060  11.284  66.846  1.00  0.00    -0.289 OA 
BRANCH  11  14
HETATM   14  C   UNL     2      -9.339  10.834  65.187  1.00  0.00    -0.217 C  
HETATM   15  O   UNL     2      -7.969  11.169  65.340  1.00  0.00    -0.366 OA 
HETATM   16  H   UNL     2      -7.424  10.506  64.932  1.00  0.00     0.000 HD 
BRANCH  14  17
HETATM   17  C   UNL     2      -9.735  10.338  63.784  1.00  0.00    -0.235 C  
HETATM   18  H   UNL     2     -10.955  10.956  62.389  1.00  0.00     0.000 HD 
HETATM   19  O   UNL     2     -10.711  11.263  63.255  1.00  0.00    -0.344 OA 
BRANCH  17  20
HETATM   20  C   UNL     2      -8.584  10.108  62.805  1.00  0.00    -0.190 C  
HETATM   21  O   UNL     2      -7.708  11.255  62.740  1.00  0.00    -0.381 OA 
HETATM   22  C   UNL     2      -7.785   8.871  63.304  1.00  0.00    -0.123 C  
HETATM   23  H   UNL     2      -6.992  11.112  62.132  1.00  0.00     0.000 HD 
HETATM   24  O   UNL     2      -8.504   7.937  63.748  1.00  0.00     0.022 OA 
HETATM   25  O   UNL     2      -6.536   9.010  63.209  1.00  0.00    -0.090 OA 
ENDBRANCH  17  20
ENDBRANCH  14  17
ENDBRANCH  11  14
ENDBRANCH   8  11
ENDBRANCH   5   8
BRANCH   6  26
HETATM   26  C   UNL     3      -9.455   8.946  71.224  1.00  0.00    -0.272 C  
HETATM   27  H   UNL     3      -9.445   8.455  69.369  1.00  0.00     0.000 HD 
HETATM   28  O   UNL     3      -8.833   8.359  70.089  1.00  0.00    -0.136 OA 
BRANCH  26  29
HETATM   29  C   UNL     3     -10.844   8.335  71.547  1.00  0.00    -0.249 C  
HETATM   30  O   UNL     3     -11.873   9.420  71.511  1.00  0.00    -0.333 OA 
HETATM   31  H   UNL     3     -12.723   9.046  71.709  1.00  0.00     0.000 HD 
BRANCH  29  32
HETATM   32  C   UNL     3     -11.366   7.348  70.481  1.00  0.00    -0.271 C  
HETATM   33  H   UNL     3     -13.065   6.395  70.187  1.00  0.00     0.000 HD 
HETATM   34  O   UNL     3     -12.743   7.002  70.844  1.00  0.00    -0.334 OA 
BRANCH  32  35
HETATM   35  C   UNL     3     -10.554   6.195  69.872  1.00  0.00    -0.265 C  
HETATM   36  H   UNL     3     -10.138   4.386  70.416  1.00  0.00     0.000 HD 
HETATM   37  O   UNL     3     -10.640   5.099  70.793  1.00  0.00    -0.222 OA 
BRANCH  35  38
HETATM   38  C   UNL     3     -10.910   5.783  68.448  1.00  0.00    -0.174 C  
HETATM   39  C   UNL     3      -9.632   5.421  67.647  1.00  0.00    -0.127 C  
HETATM   40  O   UNL     3     -11.597   6.847  67.760  1.00  0.00    -0.482 OA 
HETATM   41  O   UNL     3      -8.541   5.440  68.299  1.00  0.00    -0.097 OA 
HETATM   42  O   UNL     3      -9.809   5.383  66.398  1.00  0.00    -0.155 OA 
HETATM   43  H   UNL     3     -11.820   6.591  66.873  1.00  0.00     0.000 HD 
ENDBRANCH  35  38
ENDBRANCH  32  35
ENDBRANCH  29  32
ENDBRANCH  26  29
ENDBRANCH   6  26
TORSDOF 10
ENDMDL
MODEL      461
REMARK 921   NORMALIZED FREE ENERGY PREDICTED BY IDOCK:   -3.25 KCAL/MOL
REMARK 922        TOTAL FREE ENERGY PREDICTED BY IDOCK:   -7.65 KCAL/MOL
REMARK 923 INTER-LIGAND FREE ENERGY PREDICTED BY IDOCK:   -5.88 KCAL/MOL
REMARK 924 INTRA-LIGAND FREE ENERGY PREDICTED BY IDOCK:   -1.77 KCAL/MOL
REMARK 927      BINDING AFFINITY PREDICTED BY RF-SCORE:    0.00 PKD
ROOT
HETATM    1 CA   UNL     1     -11.016  11.309  68.358  1.00  0.00    -0.163 Ca 
HETATM    2  O   UNL     2     -11.239   8.007  73.045  1.00  0.00    -0.388 OA 
HETATM    3  O   UNL     3      -9.277  17.125  66.713  1.00  0.00    -0.236 OA 
HETATM    4  H   UNL     2     -12.165   8.040  73.259  1.00  0.00     0.000 HD 
HETATM    5  C   UNL     2     -10.996   8.848  71.918  1.00  0.00    -0.369 C  
HETATM    6  C   UNL     3     -10.427  16.367  67.080  1.00  0.00    -0.297 C  
HETATM    7  H   UNL     3      -9.434  17.583  65.897  1.00  0.00     0.000 HD 
ENDROOT
BRANCH   5   8
HETATM    8  C   UNL     2      -9.493   8.795  71.572  1.00  0.00    -0.271 C  
HETATM    9  O   UNL     2      -8.772   8.531  72.770  1.00  0.00    -0.321 OA 
HETATM   10  H   UNL     2      -7.847   8.499  72.557  1.00  0.00     0.000 HD 
BRANCH   8  11
HETATM   11  C   UNL     2      -9.189   7.665  70.574  1.00  0.00    -0.159 C  
HETATM   12  H   UNL     2      -9.970   5.901  70.013  1.00  0.00     0.000 HD 
HETATM   13  O   UNL     2     -10.158   6.599  70.629  1.00  0.00    -0.183 OA 
BRANCH  11  14
HETATM   14  C   UNL     2      -8.909   8.009  69.091  1.00  0.00    -0.145 C  
HETATM   15  O   UNL     2      -9.617   7.119  68.243  1.00  0.00    -0.136 OA 
HETATM   16  H   UNL     2      -9.445   7.331  67.333  1.00  0.00     0.000 HD 
BRANCH  14  17
HETATM   17  C   UNL     2      -7.451   8.284  68.676  1.00  0.00    -0.097 C  
HETATM   18  H   UNL     2      -5.961   7.188  68.046  1.00  0.00     0.000 HD 
HETATM   19  O   UNL     2      -6.861   7.019  68.302  1.00  0.00    -0.068 OA 
BRANCH  17  20
HETATM   20  C   UNL     2      -7.252   9.344  67.593  1.00  0.00    -0.083 C  
HETATM   21  O   UNL     2      -7.484   8.803  66.274  1.00  0.00    -0.085 OA 
HETATM   22  C   UNL     2      -8.262  10.492  67.871  1.00  0.00    -0.107 C  
HETATM   23  H   UNL     2      -7.360   9.463  65.601  1.00  0.00     0.000 HD 
HETATM   24  O   UNL     2      -8.400  10.775  69.091  1.00  0.00    -0.150 OA 
HETATM   25  O   UNL     2      -8.806  10.943  66.827  1.00  0.00    -0.140 OA 
ENDBRANCH  17  20
ENDBRANCH  14  17
ENDBRANCH  11  14
ENDBRANCH   8  11
ENDBRANCH   5   8
BRANCH   6  26
HETATM   26  C   UNL     3     -10.174  15.626  68.400  1.00  0.00    -0.222 C  
HETATM   27  H   UNL     3     -11.293  14.779  69.709  1.00  0.00     0.000 HD 
HETATM   28  O   UNL     3     -11.450  15.238  68.893  1.00  0.00    -0.293 OA 
BRANCH  26  29
HETATM   29  C   UNL     3      -9.195  14.434  68.228  1.00  0.00    -0.201 C  
HETATM   30  O   UNL     3      -9.472  13.762  66.921  1.00  0.00    -0.244 OA 
HETATM   31  H   UNL     3      -8.873  13.033  66.816  1.00  0.00     0.000 HD 
BRANCH  29  32
HETATM   32  C   UNL     3      -7.714  14.846  68.081  1.00  0.00    -0.115 C  
HETATM   33  H   UNL     3      -6.099  13.980  67.359  1.00  0.00     0.000 HD 
HETATM   34  O   UNL     3      -7.010  13.726  67.449  1.00  0.00    -0.169 OA 
BRANCH  32  35
HETATM   35  C   UNL     3      -6.898  15.601  69.141  1.00  0.00    -0.159 C  
HETATM   36  H   UNL     3      -6.005  15.102  70.783  1.00  0.00     0.000 HD 
HETATM   37  O   UNL     3      -6.510  14.635  70.127  1.00  0.00    -0.164 OA 
BRANCH  35  38
HETATM   38  C   UNL     3      -5.715  16.422  68.639  1.00  0.00    -0.109 C  
HETATM   39  C   UNL     3      -5.997  17.939  68.795  1.00  0.00    -0.192 C  
HETATM   40  O   UNL     3      -5.448  16.144  67.250  1.00  0.00    -0.258 OA 
HETATM   41  O   UNL     3      -7.087  18.248  69.371  1.00  0.00    -0.178 OA 
HETATM   42  O   UNL     3      -5.221  18.672  68.121  1.00  0.00    -0.173 OA 
HETATM   43  H   UNL     3      -4.711  16.656  66.937  1.00  0.00     0.000 HD 
ENDBRANCH  35  38
ENDBRANCH  32  35
ENDBRANCH  29  32
ENDBRANCH  26  29
ENDBRANCH   6  26
TORSDOF 10
ENDMDL
MODEL      462
REMARK 921   NORMALIZED FREE ENERGY PREDICTED BY IDOCK:   -3.24 KCAL/MOL
REMARK 922        TOTAL FREE ENERGY PREDICTED BY IDOCK:   -7.64 KCAL/MOL
REMARK 923 INTER-LIGAND FREE ENERGY PREDICTED BY IDOCK:   -5.65 KCAL/MOL
REMARK 924 INTRA-LIGAND FREE ENERGY PREDICTED BY IDOCK:   -1.99 KCAL/MOL
REMARK 927      BINDING AFFINITY PREDICTED BY RF-SCORE:    0.00 PKD
ROOT
HETATM    1 CA   UNL     1     -11.812   9.289  67.185  1.00  0.00    -0.225 Ca 
HETATM    2  O   UNL     2     -12.413   7.770  72.685  1.00  0.00    -0.556 OA 
HETATM    3  O   UNL     3     -11.079  14.501  63.742  1.00  0.00    -0.084 OA 
HETATM    4  H   UNL     2     -13.346   7.594  72.735  1.00  0.00     0.000 HD 
HETATM    5  C   UNL     2     -12.100   8.233  71.373  1.00  0.00    -0.300 C  
HETATM    6  C   UNL     3     -12.083  13.597  64.197  1.00  0.00    -0.435 C  
HETATM    7  H   UNL     3     -11.133  14.603  62.799  1.00  0.00     0.000 HD 
ENDROOT
BRANCH   5   8
HETATM    8  C   UNL     2     -10.585   8.519  71.292  1.00  0.00    -0.234 C  
HETATM    9  O   UNL     2     -10.063   8.512  72.616  1.00  0.00    -0.282 OA 
HETATM   10  H   UNL     2      -9.131   8.688  72.567  1.00  0.00     0.000 HD 
BRANCH   8  11
HETATM   11  C   UNL     2      -9.854   7.434  70.486  1.00  0.00    -0.180 C  
HETATM   12  H   UNL     2      -9.452   6.997  68.566  1.00  0.00     0.000 HD 
HETATM   13  O   UNL     2      -9.904   7.668  69.064  1.00  0.00    -0.162 OA 
BRANCH  11  14
HETATM   14  C   UNL     2      -8.410   7.034  70.876  1.00  0.00    -0.129 C  
HETATM   15  O   UNL     2      -7.489   7.560  69.934  1.00  0.00    -0.080 OA 
HETATM   16  H   UNL     2      -6.602   7.315  70.173  1.00  0.00     0.000 HD 
BRANCH  14  17
HETATM   17  C   UNL     2      -8.152   5.574  71.294  1.00  0.00    -0.113 C  
HETATM   18  H   UNL     2      -8.925   4.352  72.607  1.00  0.00     0.000 HD 
HETATM   19  O   UNL     2      -9.084   5.253  72.349  1.00  0.00    -0.134 OA 
BRANCH  17  20
HETATM   20  C   UNL     2      -8.190   4.539  70.169  1.00  0.00    -0.067 C  
HETATM   21  O   UNL     2      -8.093   5.165  68.871  1.00  0.00    -0.084 OA 
HETATM   22  C   UNL     2      -6.985   3.579  70.376  1.00  0.00    -0.034 C  
HETATM   23  H   UNL     2      -8.117   4.522  68.172  1.00  0.00     0.000 HD 
HETATM   24  O   UNL     2      -6.766   3.276  71.579  1.00  0.00    -0.025 OA 
HETATM   25  O   UNL     2      -6.399   3.274  69.303  1.00  0.00    -0.028 OA 
ENDBRANCH  17  20
ENDBRANCH  14  17
ENDBRANCH  11  14
ENDBRANCH   8  11
ENDBRANCH   5   8
BRANCH   6  26
HETATM   26  C   UNL     3     -11.996  13.433  65.720  1.00  0.00    -0.407 C  
HETATM   27  H   UNL     3     -13.195  13.757  67.183  1.00  0.00     0.000 HD 
HETATM   28  O   UNL     3     -13.249  13.859  66.241  1.00  0.00    -0.008 OA 
BRANCH  26  29
HETATM   29  C   UNL     3     -11.620  11.986  66.135  1.00  0.00    -0.304 C  
HETATM   30  O   UNL     3     -11.218  11.219  64.916  1.00  0.00    -0.176 OA 
HETATM   31  H   UNL     3     -10.988  10.333  65.170  1.00  0.00     0.000 HD 
BRANCH  29  32
HETATM   32  C   UNL     3     -10.358  11.887  67.019  1.00  0.00    -0.212 C  
HETATM   33  H   UNL     3      -8.820  10.659  67.109  1.00  0.00     0.000 HD 
HETATM   34  O   UNL     3      -9.597  10.719  66.566  1.00  0.00    -0.176 OA 
BRANCH  32  35
HETATM   35  C   UNL     3     -10.320  12.129  68.536  1.00  0.00    -0.221 C  
HETATM   36  H   UNL     3      -9.454  11.261  70.032  1.00  0.00     0.000 HD 
HETATM   37  O   UNL     3      -9.478  11.112  69.093  1.00  0.00    -0.117 OA 
BRANCH  35  38
HETATM   38  C   UNL     3      -9.923  13.527  68.997  1.00  0.00     0.138 C  
HETATM   39  C   UNL     3     -11.179  14.356  69.373  1.00  0.00    -0.281 C  
HETATM   40  O   UNL     3      -9.203  14.226  67.963  1.00  0.00    -0.180 OA 
HETATM   41  O   UNL     3     -12.290  13.740  69.322  1.00  0.00    -0.312 OA 
HETATM   42  O   UNL     3     -10.962  15.597  69.454  1.00  0.00    -0.243 OA 
HETATM   43  H   UNL     3      -8.955  15.097  68.250  1.00  0.00     0.000 HD 
ENDBRANCH  35  38
ENDBRANCH  32  35
ENDBRANCH  29  32
ENDBRANCH  26  29
ENDBRANCH   6  26
TORSDOF 10
ENDMDL
MODEL      463
REMARK 921   NORMALIZED FREE ENERGY PREDICTED BY IDOCK:   -3.24 KCAL/MOL
REMARK 922        TOTAL FREE ENERGY PREDICTED BY IDOCK:   -7.64 KCAL/MOL
REMARK 923 INTER-LIGAND FREE ENERGY PREDICTED BY IDOCK:   -6.16 KCAL/MOL
REMARK 924 INTRA-LIGAND FREE ENERGY PREDICTED BY IDOCK:   -1.48 KCAL/MOL
REMARK 927      BINDING AFFINITY PREDICTED BY RF-SCORE:    0.00 PKD
ROOT
HETATM    1 CA   UNL     1      -9.879   2.311  67.652  1.00  0.00    -0.218 Ca 
HETATM    2  O   UNL     2      -6.260   4.685  63.886  1.00  0.00    -0.021 OA 
HETATM    3  O   UNL     3     -11.361   2.745  73.749  1.00  0.00    -0.216 OA 
HETATM    4  H   UNL     2      -5.597   4.008  63.804  1.00  0.00     0.000 HD 
HETATM    5  C   UNL     2      -7.221   4.274  64.856  1.00  0.00    -0.071 C  
HETATM    6  C   UNL     3     -10.562   1.983  72.847  1.00  0.00    -0.153 C  
HETATM    7  H   UNL     3     -11.907   2.168  74.270  1.00  0.00     0.000 HD 
ENDROOT
BRANCH   5   8
HETATM    8  C   UNL     2      -8.298   5.372  64.988  1.00  0.00    -0.145 C  
HETATM    9  O   UNL     2      -9.557   4.798  64.657  1.00  0.00    -0.336 OA 
HETATM   10  H   UNL     2     -10.220   5.474  64.738  1.00  0.00     0.000 HD 
BRANCH   8  11
HETATM   11  C   UNL     2      -8.380   5.903  66.429  1.00  0.00    -0.114 C  
HETATM   12  H   UNL     2      -7.133   6.394  67.927  1.00  0.00     0.000 HD 
HETATM   13  O   UNL     2      -7.083   6.066  67.036  1.00  0.00    -0.067 OA 
BRANCH  11  14
HETATM   14  C   UNL     2      -9.235   7.157  66.734  1.00  0.00    -0.158 C  
HETATM   15  O   UNL     2     -10.581   6.934  66.344  1.00  0.00    -0.492 OA 
HETATM   16  H   UNL     2     -11.106   7.704  66.532  1.00  0.00     0.000 HD 
BRANCH  14  17
HETATM   17  C   UNL     2      -8.664   8.534  66.345  1.00  0.00    -0.133 C  
HETATM   18  H   UNL     2      -9.214   9.972  65.143  1.00  0.00     0.000 HD 
HETATM   19  O   UNL     2      -9.567   9.123  65.383  1.00  0.00    -0.231 OA 
BRANCH  17  20
HETATM   20  C   UNL     2      -8.367   9.487  67.502  1.00  0.00    -0.125 C  
HETATM   21  O   UNL     2      -7.348  10.448  67.148  1.00  0.00    -0.089 OA 
HETATM   22  C   UNL     2      -9.688  10.232  67.844  1.00  0.00    -0.145 C  
HETATM   23  H   UNL     2      -7.164  11.040  67.868  1.00  0.00     0.000 HD 
HETATM   24  O   UNL     2     -10.717   9.506  67.800  1.00  0.00    -0.261 OA 
HETATM   25  O   UNL     2      -9.523  11.457  68.088  1.00  0.00    -0.168 OA 
ENDBRANCH  17  20
ENDBRANCH  14  17
ENDBRANCH  11  14
ENDBRANCH   8  11
ENDBRANCH   5   8
BRANCH   6  26
HETATM   26  C   UNL     3      -9.680   2.914  72.005  1.00  0.00    -0.160 C  
HETATM   27  H   UNL     3      -9.131   2.956  70.166  1.00  0.00     0.000 HD 
HETATM   28  O   UNL     3      -9.677   2.380  70.687  1.00  0.00    -0.116 OA 
BRANCH  26  29
HETATM   29  C   UNL     3     -10.155   4.390  72.067  1.00  0.00    -0.186 C  
HETATM   30  O   UNL     3      -9.721   4.987  73.367  1.00  0.00    -0.142 OA 
HETATM   31  H   UNL     3     -10.012   5.890  73.405  1.00  0.00     0.000 HD 
BRANCH  29  32
HETATM   32  C   UNL     3      -9.479   5.318  71.034  1.00  0.00    -0.161 C  
HETATM   33  H   UNL     3      -7.711   5.373  70.167  1.00  0.00     0.000 HD 
HETATM   34  O   UNL     3      -8.127   4.803  70.803  1.00  0.00    -0.082 OA 
BRANCH  32  35
HETATM   35  C   UNL     3      -9.594   6.850  71.015  1.00  0.00    -0.170 C  
HETATM   36  H   UNL     3      -8.701   8.271  70.053  1.00  0.00     0.000 HD 
HETATM   37  O   UNL     3      -8.630   7.323  70.065  1.00  0.00    -0.138 OA 
BRANCH  35  38
HETATM   38  C   UNL     3     -10.982   7.430  70.768  1.00  0.00    -0.255 C  
HETATM   39  C   UNL     3     -11.666   7.801  72.110  1.00  0.00    -0.320 C  
HETATM   40  O   UNL     3     -11.819   6.486  70.071  1.00  0.00    -0.574 OA 
HETATM   41  O   UNL     3     -10.961   7.650  73.157  1.00  0.00    -0.392 OA 
HETATM   42  O   UNL     3     -12.912   7.981  72.012  1.00  0.00    -0.317 OA 
HETATM   43  H   UNL     3     -12.684   6.847  69.918  1.00  0.00     0.000 HD 
ENDBRANCH  35  38
ENDBRANCH  32  35
ENDBRANCH  29  32
ENDBRANCH  26  29
ENDBRANCH   6  26
TORSDOF 10
ENDMDL
MODEL      464
REMARK 921   NORMALIZED FREE ENERGY PREDICTED BY IDOCK:   -3.24 KCAL/MOL
REMARK 922        TOTAL FREE ENERGY PREDICTED BY IDOCK:   -7.63 KCAL/MOL
REMARK 923 INTER-LIGAND FREE ENERGY PREDICTED BY IDOCK:   -5.06 KCAL/MOL
REMARK 924 INTRA-LIGAND FREE ENERGY PREDICTED BY IDOCK:   -2.56 KCAL/MOL
REMARK 927      BINDING AFFINITY PREDICTED BY RF-SCORE:    0.00 PKD
ROOT
HETATM    1 CA   UNL     1      -9.969  10.470  71.030  1.00  0.00    -0.302 Ca 
HETATM    2  O   UNL     2      -5.965   7.685  74.052  1.00  0.00    -0.070 OA 
HETATM    3  O   UNL     3     -11.168  12.080  65.070  1.00  0.00    -0.315 OA 
HETATM    4  H   UNL     2      -5.488   8.405  74.448  1.00  0.00     0.000 HD 
HETATM    5  C   UNL     2      -6.976   8.216  73.197  1.00  0.00    -0.109 C  
HETATM    6  C   UNL     3     -10.598  12.595  66.270  1.00  0.00    -0.252 C  
HETATM    7  H   UNL     3     -11.826  12.679  64.736  1.00  0.00     0.000 HD 
ENDROOT
BRANCH   5   8
HETATM    8  C   UNL     2      -7.750   7.046  72.553  1.00  0.00    -0.093 C  
HETATM    9  O   UNL     2      -6.892   5.911  72.523  1.00  0.00    -0.074 OA 
HETATM   10  H   UNL     2      -7.369   5.191  72.127  1.00  0.00     0.000 HD 
BRANCH   8  11
HETATM   11  C   UNL     2      -8.995   6.680  73.378  1.00  0.00    -0.124 C  
HETATM   12  H   UNL     2     -10.476   7.613  74.364  1.00  0.00     0.000 HD 
HETATM   13  O   UNL     2      -9.707   7.839  73.854  1.00  0.00    -0.220 OA 
BRANCH  11  14
HETATM   14  C   UNL     2     -10.017   5.664  72.811  1.00  0.00    -0.173 C  
HETATM   15  O   UNL     2     -11.186   6.341  72.378  1.00  0.00    -0.253 OA 
HETATM   16  H   UNL     2     -11.813   5.717  72.030  1.00  0.00     0.000 HD 
BRANCH  14  17
HETATM   17  C   UNL     2     -10.270   4.371  73.610  1.00  0.00    -0.166 C  
HETATM   18  H   UNL     2     -11.857   3.398  74.200  1.00  0.00     0.000 HD 
HETATM   19  O   UNL     2     -11.701   4.195  73.707  1.00  0.00    -0.068 OA 
BRANCH  17  20
HETATM   20  C   UNL     2      -9.579   3.114  73.085  1.00  0.00    -0.099 C  
HETATM   21  O   UNL     2      -9.759   2.967  71.659  1.00  0.00    -0.146 OA 
HETATM   22  C   UNL     2      -8.064   3.243  73.408  1.00  0.00    -0.074 C  
HETATM   23  H   UNL     2      -9.329   2.185  71.333  1.00  0.00     0.000 HD 
HETATM   24  O   UNL     2      -7.817   3.739  74.539  1.00  0.00    -0.075 OA 
HETATM   25  O   UNL     2      -7.317   2.853  72.471  1.00  0.00    -0.041 OA 
ENDBRANCH  17  20
ENDBRANCH  14  17
ENDBRANCH  11  14
ENDBRANCH   8  11
ENDBRANCH   5   8
BRANCH   6  26
HETATM   26  C   UNL     3      -9.534  11.627  66.808  1.00  0.00    -0.186 C  
HETATM   27  H   UNL     3      -7.816  11.836  67.639  1.00  0.00     0.000 HD 
HETATM   28  O   UNL     3      -8.474  12.434  67.305  1.00  0.00    -0.168 OA 
BRANCH  26  29
HETATM   29  C   UNL     3     -10.110  10.650  67.867  1.00  0.00    -0.168 C  
HETATM   30  O   UNL     3     -11.528  10.333  67.516  1.00  0.00    -0.527 OA 
HETATM   31  H   UNL     3     -11.881   9.735  68.165  1.00  0.00     0.000 HD 
BRANCH  29  32
HETATM   32  C   UNL     3      -9.449   9.255  67.868  1.00  0.00    -0.137 C  
HETATM   33  H   UNL     3      -7.908   8.449  66.943  1.00  0.00     0.000 HD 
HETATM   34  O   UNL     3      -8.315   9.307  66.942  1.00  0.00    -0.121 OA 
BRANCH  32  35
HETATM   35  C   UNL     3     -10.207   7.918  67.880  1.00  0.00    -0.209 C  
HETATM   36  H   UNL     3     -11.400   7.019  66.651  1.00  0.00     0.000 HD 
HETATM   37  O   UNL     3     -10.931   7.845  66.644  1.00  0.00     0.015 OA 
BRANCH  35  38
HETATM   38  C   UNL     3      -9.382   6.664  68.142  1.00  0.00    -0.114 C  
HETATM   39  C   UNL     3     -10.188   5.646  68.990  1.00  0.00    -0.222 C  
HETATM   40  O   UNL     3      -8.165   6.986  68.845  1.00  0.00    -0.119 OA 
HETATM   41  O   UNL     3     -11.391   5.964  69.250  1.00  0.00    -0.325 OA 
HETATM   42  O   UNL     3      -9.477   4.742  69.509  1.00  0.00    -0.127 OA 
HETATM   43  H   UNL     3      -7.650   6.204  69.009  1.00  0.00     0.000 HD 
ENDBRANCH  35  38
ENDBRANCH  32  35
ENDBRANCH  29  32
ENDBRANCH  26  29
ENDBRANCH   6  26
TORSDOF 10
ENDMDL
MODEL      465
REMARK 921   NORMALIZED FREE ENERGY PREDICTED BY IDOCK:   -3.23 KCAL/MOL
REMARK 922        TOTAL FREE ENERGY PREDICTED BY IDOCK:   -7.62 KCAL/MOL
REMARK 923 INTER-LIGAND FREE ENERGY PREDICTED BY IDOCK:   -7.57 KCAL/MOL
REMARK 924 INTRA-LIGAND FREE ENERGY PREDICTED BY IDOCK:   -0.05 KCAL/MOL
REMARK 927      BINDING AFFINITY PREDICTED BY RF-SCORE:    0.00 PKD
ROOT
HETATM    1 CA   UNL     1     -10.607  10.417  63.678  1.00  0.00    -0.385 Ca 
HETATM    2  O   UNL     2     -12.036  15.971  63.855  1.00  0.00    -1.267 OA 
HETATM    3  O   UNL     3      -6.439   6.492  66.280  1.00  0.00    -0.041 OA 
HETATM    4  H   UNL     2     -11.653  16.294  63.047  1.00  0.00     0.000 HD 
HETATM    5  C   UNL     2     -11.709  14.590  64.002  1.00  0.00    -0.080 C  
HETATM    6  C   UNL     3      -6.648   7.281  65.112  1.00  0.00    -0.044 C  
HETATM    7  H   UNL     3      -6.234   5.596  66.038  1.00  0.00     0.000 HD 
ENDROOT
BRANCH   5   8
HETATM    8  C   UNL     2     -12.331  14.067  65.314  1.00  0.00    -0.465 C  
HETATM    9  O   UNL     2     -13.058  12.880  65.015  1.00  0.00    -0.794 OA 
HETATM   10  H   UNL     2     -13.441  12.558  65.823  1.00  0.00     0.000 HD 
BRANCH   8  11
HETATM   11  C   UNL     2     -11.246  13.715  66.344  1.00  0.00    -0.308 C  
HETATM   12  H   UNL     2     -10.629  12.117  67.395  1.00  0.00     0.000 HD 
HETATM   13  O   UNL     2     -11.299  12.335  66.759  1.00  0.00    -0.298 OA 
BRANCH  11  14
HETATM   14  C   UNL     2      -9.771  14.095  66.062  1.00  0.00    -0.274 C  
HETATM   15  O   UNL     2      -9.090  12.997  65.477  1.00  0.00    -0.257 OA 
HETATM   16  H   UNL     2      -8.185  13.230  65.304  1.00  0.00     0.000 HD 
BRANCH  14  17
HETATM   17  C   UNL     2      -8.991  14.832  67.167  1.00  0.00    -0.224 C  
HETATM   18  H   UNL     2      -9.462  16.065  68.607  1.00  0.00     0.000 HD 
HETATM   19  O   UNL     2      -9.944  15.610  67.926  1.00  0.00    -0.221 OA 
BRANCH  17  20
HETATM   20  C   UNL     2      -8.125  13.956  68.073  1.00  0.00    -0.154 C  
HETATM   21  O   UNL     2      -8.584  12.587  68.081  1.00  0.00    -0.177 OA 
HETATM   22  C   UNL     2      -6.671  14.014  67.527  1.00  0.00    -0.108 C  
HETATM   23  H   UNL     2      -8.046  12.043  68.644  1.00  0.00     0.000 HD 
HETATM   24  O   UNL     2      -6.313  15.155  67.131  1.00  0.00    -0.280 OA 
HETATM   25  O   UNL     2      -6.085  12.899  67.545  1.00  0.00    -0.148 OA 
ENDBRANCH  17  20
ENDBRANCH  14  17
ENDBRANCH  11  14
ENDBRANCH   8  11
ENDBRANCH   5   8
BRANCH   6  26
HETATM   26  C   UNL     3      -6.979   8.728  65.504  1.00  0.00    -0.076 C  
HETATM   27  H   UNL     3      -6.721  10.442  64.679  1.00  0.00     0.000 HD 
HETATM   28  O   UNL     3      -6.516   9.547  64.437  1.00  0.00    -0.086 OA 
BRANCH  26  29
HETATM   29  C   UNL     3      -8.486   8.923  65.817  1.00  0.00    -0.145 C  
HETATM   30  O   UNL     3      -9.223   7.673  65.457  1.00  0.00    -0.385 OA 
HETATM   31  H   UNL     3     -10.146   7.793  65.648  1.00  0.00     0.000 HD 
BRANCH  29  32
HETATM   32  C   UNL     3      -8.807   9.076  67.319  1.00  0.00    -0.117 C  
HETATM   33  H   UNL     3      -7.915   9.942  68.847  1.00  0.00     0.000 HD 
HETATM   34  O   UNL     3      -7.717   9.847  67.923  1.00  0.00    -0.090 OA 
BRANCH  32  35
HETATM   35  C   UNL     3      -9.384   7.969  68.216  1.00  0.00    -0.140 C  
HETATM   36  H   UNL     3     -11.168   7.387  68.682  1.00  0.00     0.000 HD 
HETATM   37  O   UNL     3     -10.811   8.071  68.128  1.00  0.00    -0.079 OA 
BRANCH  35  38
HETATM   38  C   UNL     3      -8.888   6.551  67.959  1.00  0.00    -0.114 C  
HETATM   39  C   UNL     3     -10.015   5.681  67.343  1.00  0.00    -0.156 C  
HETATM   40  O   UNL     3      -8.445   5.930  69.183  1.00  0.00    -0.111 OA 
HETATM   41  O   UNL     3     -11.103   6.282  67.080  1.00  0.00    -0.362 OA 
HETATM   42  O   UNL     3      -9.787   4.441  67.400  1.00  0.00    -0.185 OA 
HETATM   43  H   UNL     3      -8.136   5.046  69.023  1.00  0.00     0.000 HD 
ENDBRANCH  35  38
ENDBRANCH  32  35
ENDBRANCH  29  32
ENDBRANCH  26  29
ENDBRANCH   6  26
TORSDOF 10
ENDMDL
MODEL      466
REMARK 921   NORMALIZED FREE ENERGY PREDICTED BY IDOCK:   -3.19 KCAL/MOL
REMARK 922        TOTAL FREE ENERGY PREDICTED BY IDOCK:   -7.56 KCAL/MOL
REMARK 923 INTER-LIGAND FREE ENERGY PREDICTED BY IDOCK:   -6.56 KCAL/MOL
REMARK 924 INTRA-LIGAND FREE ENERGY PREDICTED BY IDOCK:   -0.99 KCAL/MOL
REMARK 927      BINDING AFFINITY PREDICTED BY RF-SCORE:    0.00 PKD
ROOT
HETATM    1 CA   UNL     1     -11.245  10.371  66.641  1.00  0.00    -0.240 Ca 
HETATM    2  O   UNL     2     -12.162   7.201  71.336  1.00  0.00    -0.321 OA 
HETATM    3  O   UNL     3     -10.240  16.379  65.079  1.00  0.00    -0.566 OA 
HETATM    4  H   UNL     2     -13.099   7.050  71.285  1.00  0.00     0.000 HD 
HETATM    5  C   UNL     2     -11.772   8.047  70.255  1.00  0.00     0.089 C  
HETATM    6  C   UNL     3     -11.282  15.412  65.177  1.00  0.00    -0.350 C  
HETATM    7  H   UNL     3     -10.242  16.778  64.217  1.00  0.00     0.000 HD 
ENDROOT
BRANCH   5   8
HETATM    8  C   UNL     2     -10.250   8.293  70.337  1.00  0.00    -0.201 C  
HETATM    9  O   UNL     2      -9.994   9.093  71.487  1.00  0.00    -0.312 OA 
HETATM   10  H   UNL     2      -9.057   9.245  71.537  1.00  0.00     0.000 HD 
BRANCH   8  11
HETATM   11  C   UNL     2      -9.479   6.973  70.494  1.00  0.00    -0.166 C  
HETATM   12  H   UNL     2      -8.024   5.957  69.550  1.00  0.00     0.000 HD 
HETATM   13  O   UNL     2      -8.501   6.773  69.454  1.00  0.00    -0.130 OA 
BRANCH  11  14
HETATM   14  C   UNL     2      -8.836   6.619  71.858  1.00  0.00    -0.132 C  
HETATM   15  O   UNL     2      -7.445   6.892  71.825  1.00  0.00    -0.086 OA 
HETATM   16  H   UNL     2      -7.051   6.675  72.662  1.00  0.00     0.000 HD 
BRANCH  14  17
HETATM   17  C   UNL     2      -9.222   5.280  72.513  1.00  0.00    -0.136 C  
HETATM   18  H   UNL     2     -10.812   4.145  72.512  1.00  0.00     0.000 HD 
HETATM   19  O   UNL     2     -10.574   4.972  72.107  1.00  0.00    -0.216 OA 
BRANCH  17  20
HETATM   20  C   UNL     2      -8.273   4.110  72.254  1.00  0.00    -0.098 C  
HETATM   21  O   UNL     2      -7.800   4.105  70.889  1.00  0.00    -0.057 OA 
HETATM   22  C   UNL     2      -7.066   4.264  73.222  1.00  0.00    -0.069 C  
HETATM   23  H   UNL     2      -7.210   3.378  70.728  1.00  0.00     0.000 HD 
HETATM   24  O   UNL     2      -7.379   4.650  74.380  1.00  0.00    -0.075 OA 
HETATM   25  O   UNL     2      -5.957   4.002  72.685  1.00  0.00    -0.013 OA 
ENDBRANCH  17  20
ENDBRANCH  14  17
ENDBRANCH  11  14
ENDBRANCH   8  11
ENDBRANCH   5   8
BRANCH   6  26
HETATM   26  C   UNL     3     -11.279  14.769  66.570  1.00  0.00    -0.342 C  
HETATM   27  H   UNL     3     -10.630  13.112  67.291  1.00  0.00     0.000 HD 
HETATM   28  O   UNL     3     -10.632  13.510  66.428  1.00  0.00    -0.278 OA 
BRANCH  26  29
HETATM   29  C   UNL     3     -10.619  15.680  67.638  1.00  0.00    -0.294 C  
HETATM   30  O   UNL     3     -11.493  16.872  67.867  1.00  0.00    -0.033 OA 
HETATM   31  H   UNL     3     -11.088  17.430  68.520  1.00  0.00     0.000 HD 
BRANCH  29  32
HETATM   32  C   UNL     3     -10.539  15.053  69.046  1.00  0.00    -0.245 C  
HETATM   33  H   UNL     3     -10.760  13.234  69.769  1.00  0.00     0.000 HD 
HETATM   34  O   UNL     3     -10.810  13.620  68.902  1.00  0.00    -0.247 OA 
BRANCH  32  35
HETATM   35  C   UNL     3     -11.099  15.687  70.329  1.00  0.00    -0.347 C  
HETATM   36  H   UNL     3     -11.033  17.453  71.116  1.00  0.00     0.000 HD 
HETATM   37  O   UNL     3     -10.686  17.060  70.323  1.00  0.00    -0.015 OA 
BRANCH  35  38
HETATM   38  C   UNL     3     -12.596  15.534  70.571  1.00  0.00    -0.416 C  
HETATM   39  C   UNL     3     -12.871  15.088  72.032  1.00  0.00    -0.333 C  
HETATM   40  O   UNL     3     -13.166  14.556  69.678  1.00  0.00    -0.157 OA 
HETATM   41  O   UNL     3     -11.855  15.007  72.791  1.00  0.00    -0.352 OA 
HETATM   42  O   UNL     3     -14.036  14.638  72.215  1.00  0.00    -0.425 OA 
HETATM   43  H   UNL     3     -14.099  14.461  69.829  1.00  0.00     0.000 HD 
ENDBRANCH  35  38
ENDBRANCH  32  35
ENDBRANCH  29  32
ENDBRANCH  26  29
ENDBRANCH   6  26
TORSDOF 10
ENDMDL
MODEL      467
REMARK 921   NORMALIZED FREE ENERGY PREDICTED BY IDOCK:   -3.16 KCAL/MOL
REMARK 922        TOTAL FREE ENERGY PREDICTED BY IDOCK:   -7.51 KCAL/MOL
REMARK 923 INTER-LIGAND FREE ENERGY PREDICTED BY IDOCK:   -5.68 KCAL/MOL
REMARK 924 INTRA-LIGAND FREE ENERGY PREDICTED BY IDOCK:   -1.82 KCAL/MOL
REMARK 927      BINDING AFFINITY PREDICTED BY RF-SCORE:    0.00 PKD
ROOT
HETATM    1 CA   UNL     1     -11.512   6.697  66.707  1.00  0.00    -0.337 Ca 
HETATM    2  O   UNL     2      -8.691   2.637  69.619  1.00  0.00    -0.062 OA 
HETATM    3  O   UNL     3     -10.503  12.451  64.377  1.00  0.00    -0.305 OA 
HETATM    4  H   UNL     2      -9.047   2.746  70.493  1.00  0.00     0.000 HD 
HETATM    5  C   UNL     2      -9.249   3.635  68.766  1.00  0.00    -0.160 C  
HETATM    6  C   UNL     3     -11.045  11.789  65.517  1.00  0.00    -0.280 C  
HETATM    7  H   UNL     3     -11.133  13.069  64.027  1.00  0.00     0.000 HD 
ENDROOT
BRANCH   5   8
HETATM    8  C   UNL     2      -8.671   3.458  67.346  1.00  0.00    -0.117 C  
HETATM    9  O   UNL     2      -9.709   2.968  66.504  1.00  0.00    -0.409 OA 
HETATM   10  H   UNL     2      -9.353   2.860  65.629  1.00  0.00     0.000 HD 
BRANCH   8  11
HETATM   11  C   UNL     2      -8.184   4.798  66.771  1.00  0.00    -0.107 C  
HETATM   12  H   UNL     2      -6.447   5.754  66.442  1.00  0.00     0.000 HD 
HETATM   13  O   UNL     2      -6.748   4.926  66.798  1.00  0.00    -0.051 OA 
BRANCH  11  14
HETATM   14  C   UNL     2      -8.702   5.272  65.390  1.00  0.00    -0.150 C  
HETATM   15  O   UNL     2     -10.119   5.323  65.394  1.00  0.00    -0.388 OA 
HETATM   16  H   UNL     2     -10.437   5.613  64.547  1.00  0.00     0.000 HD 
BRANCH  14  17
HETATM   17  C   UNL     2      -8.076   4.644  64.130  1.00  0.00    -0.104 C  
HETATM   18  H   UNL     2      -8.279   2.950  63.179  1.00  0.00     0.000 HD 
HETATM   19  O   UNL     2      -8.666   3.337  63.957  1.00  0.00    -0.089 OA 
BRANCH  17  20
HETATM   20  C   UNL     2      -8.163   5.479  62.853  1.00  0.00    -0.107 C  
HETATM   21  O   UNL     2      -9.534   5.659  62.431  1.00  0.00    -0.277 OA 
HETATM   22  C   UNL     2      -7.527   6.865  63.155  1.00  0.00    -0.087 C  
HETATM   23  H   UNL     2      -9.588   6.177  61.637  1.00  0.00     0.000 HD 
HETATM   24  O   UNL     2      -6.490   6.812  63.869  1.00  0.00    -0.037 OA 
HETATM   25  O   UNL     2      -8.166   7.829  62.655  1.00  0.00    -0.149 OA 
ENDBRANCH  17  20
ENDBRANCH  14  17
ENDBRANCH  11  14
ENDBRANCH   8  11
ENDBRANCH   5   8
BRANCH   6  26
HETATM   26  C   UNL     3     -10.026  10.790  66.083  1.00  0.00    -0.232 C  
HETATM   27  H   UNL     3      -8.572  10.904  67.331  1.00  0.00     0.000 HD 
HETATM   28  O   UNL     3      -9.202  11.523  66.981  1.00  0.00    -0.170 OA 
BRANCH  26  29
HETATM   29  C   UNL     3     -10.710   9.562  66.741  1.00  0.00    -0.066 C  
HETATM   30  O   UNL     3      -9.890   8.343  66.464  1.00  0.00    -0.242 OA 
HETATM   31  H   UNL     3     -10.309   7.591  66.867  1.00  0.00     0.000 HD 
BRANCH  29  32
HETATM   32  C   UNL     3     -10.734   9.601  68.284  1.00  0.00    -0.217 C  
HETATM   33  H   UNL     3     -10.522  11.015  69.640  1.00  0.00     0.000 HD 
HETATM   34  O   UNL     3     -10.507  10.991  68.690  1.00  0.00    -0.175 OA 
BRANCH  32  35
HETATM   35  C   UNL     3     -10.093   8.551  69.205  1.00  0.00    -0.203 C  
HETATM   36  H   UNL     3      -9.932   6.624  69.167  1.00  0.00     0.000 HD 
HETATM   37  O   UNL     3     -10.329   7.274  68.598  1.00  0.00    -0.184 OA 
BRANCH  35  38
HETATM   38  C   UNL     3      -8.626   8.759  69.565  1.00  0.00    -0.130 C  
HETATM   39  C   UNL     3      -8.479   9.141  71.061  1.00  0.00    -0.165 C  
HETATM   40  O   UNL     3      -8.043   9.805  68.764  1.00  0.00    -0.096 OA 
HETATM   41  O   UNL     3      -9.550   9.137  71.746  1.00  0.00    -0.283 OA 
HETATM   42  O   UNL     3      -7.354   9.633  71.351  1.00  0.00    -0.302 OA 
HETATM   43  H   UNL     3      -7.128   9.935  68.988  1.00  0.00     0.000 HD 
ENDBRANCH  35  38
ENDBRANCH  32  35
ENDBRANCH  29  32
ENDBRANCH  26  29
ENDBRANCH   6  26
TORSDOF 10
ENDMDL
MODEL      468
REMARK 921   NORMALIZED FREE ENERGY PREDICTED BY IDOCK:   -3.15 KCAL/MOL
REMARK 922        TOTAL FREE ENERGY PREDICTED BY IDOCK:   -7.49 KCAL/MOL
REMARK 923 INTER-LIGAND FREE ENERGY PREDICTED BY IDOCK:   -6.57 KCAL/MOL
REMARK 924 INTRA-LIGAND FREE ENERGY PREDICTED BY IDOCK:   -0.93 KCAL/MOL
REMARK 927      BINDING AFFINITY PREDICTED BY RF-SCORE:    0.00 PKD
ROOT
HETATM    1 CA   UNL     1     -10.770   7.951  68.592  1.00  0.00    -0.193 Ca 
HETATM    2  O   UNL     2      -8.465  10.952  64.279  1.00  0.00    -0.364 OA 
HETATM    3  O   UNL     3      -9.089   3.546  72.755  1.00  0.00    -0.094 OA 
HETATM    4  H   UNL     2      -8.821  10.503  63.521  1.00  0.00     0.000 HD 
HETATM    5  C   UNL     2      -8.896  10.278  65.460  1.00  0.00    -0.172 C  
HETATM    6  C   UNL     3      -9.719   3.698  71.485  1.00  0.00    -0.167 C  
HETATM    7  H   UNL     3      -9.640   3.036  73.336  1.00  0.00     0.000 HD 
ENDROOT
BRANCH   5   8
HETATM    8  C   UNL     2      -8.319  11.008  66.691  1.00  0.00    -0.155 C  
HETATM    9  O   UNL     2      -7.059  11.561  66.326  1.00  0.00    -0.358 OA 
HETATM   10  H   UNL     2      -6.703  12.011  67.084  1.00  0.00     0.000 HD 
BRANCH   8  11
HETATM   11  C   UNL     2      -9.234  12.160  67.137  1.00  0.00    -0.193 C  
HETATM   12  H   UNL     2      -9.671  13.172  68.817  1.00  0.00     0.000 HD 
HETATM   13  O   UNL     2      -9.106  12.460  68.541  1.00  0.00    -0.163 OA 
BRANCH  11  14
HETATM   14  C   UNL     2      -9.235  13.488  66.340  1.00  0.00    -0.119 C  
HETATM   15  O   UNL     2      -8.159  14.309  66.764  1.00  0.00    -0.382 OA 
HETATM   16  H   UNL     2      -8.161  15.124  66.275  1.00  0.00     0.000 HD 
BRANCH  14  17
HETATM   17  C   UNL     2     -10.579  14.217  66.155  1.00  0.00    -0.293 C  
HETATM   18  H   UNL     2     -12.313  14.176  67.054  1.00  0.00     0.000 HD 
HETATM   19  O   UNL     2     -11.484  13.726  67.169  1.00  0.00    -0.310 OA 
BRANCH  17  20
HETATM   20  C   UNL     2     -10.516  15.745  66.145  1.00  0.00    -0.317 C  
HETATM   21  O   UNL     2     -11.596  16.314  65.373  1.00  0.00     0.259 OA 
HETATM   22  C   UNL     2     -10.619  16.227  67.619  1.00  0.00    -0.311 C  
HETATM   23  H   UNL     2     -11.556  17.263  65.367  1.00  0.00     0.000 HD 
HETATM   24  O   UNL     2      -9.977  15.520  68.440  1.00  0.00    -0.209 OA 
HETATM   25  O   UNL     2     -11.354  17.240  67.764  1.00  0.00    -0.022 OA 
ENDBRANCH  17  20
ENDBRANCH  14  17
ENDBRANCH  11  14
ENDBRANCH   8  11
ENDBRANCH   5   8
BRANCH   6  26
HETATM   26  C   UNL     3      -8.827   4.523  70.547  1.00  0.00    -0.099 C  
HETATM   27  H   UNL     3      -8.296   4.370  68.709  1.00  0.00     0.000 HD 
HETATM   28  O   UNL     3      -8.848   3.859  69.290  1.00  0.00    -0.079 OA 
BRANCH  26  29
HETATM   29  C   UNL     3      -9.273   6.007  70.464  1.00  0.00    -0.156 C  
HETATM   30  O   UNL     3      -9.313   6.423  69.028  1.00  0.00    -0.129 OA 
HETATM   31  H   UNL     3      -9.586   7.332  68.978  1.00  0.00     0.000 HD 
BRANCH  29  32
HETATM   32  C   UNL     3     -10.726   6.259  70.922  1.00  0.00    -0.259 C  
HETATM   33  H   UNL     3     -12.490   6.174  70.050  1.00  0.00     0.000 HD 
HETATM   34  O   UNL     3     -11.596   6.019  69.768  1.00  0.00    -0.325 OA 
BRANCH  32  35
HETATM   35  C   UNL     3     -11.177   7.406  71.839  1.00  0.00    -0.247 C  
HETATM   36  H   UNL     3     -12.888   8.151  72.347  1.00  0.00     0.000 HD 
HETATM   37  O   UNL     3     -12.609   7.441  71.780  1.00  0.00    -0.320 OA 
BRANCH  35  38
HETATM   38  C   UNL     3     -10.657   7.383  73.272  1.00  0.00    -0.392 C  
HETATM   39  C   UNL     3      -9.343   8.200  73.390  1.00  0.00    -0.197 C  
HETATM   40  O   UNL     3     -10.399   6.033  73.705  1.00  0.00    -0.217 OA 
HETATM   41  O   UNL     3      -8.967   8.807  72.339  1.00  0.00    -0.379 OA 
HETATM   42  O   UNL     3      -8.694   7.967  74.447  1.00  0.00    -0.207 OA 
HETATM   43  H   UNL     3     -10.075   6.018  74.598  1.00  0.00     0.000 HD 
ENDBRANCH  35  38
ENDBRANCH  32  35
ENDBRANCH  29  32
ENDBRANCH  26  29
ENDBRANCH   6  26
TORSDOF 10
ENDMDL
MODEL      469
REMARK 921   NORMALIZED FREE ENERGY PREDICTED BY IDOCK:   -3.14 KCAL/MOL
REMARK 922        TOTAL FREE ENERGY PREDICTED BY IDOCK:   -7.47 KCAL/MOL
REMARK 923 INTER-LIGAND FREE ENERGY PREDICTED BY IDOCK:   -5.72 KCAL/MOL
REMARK 924 INTRA-LIGAND FREE ENERGY PREDICTED BY IDOCK:   -1.75 KCAL/MOL
REMARK 927      BINDING AFFINITY PREDICTED BY RF-SCORE:    0.00 PKD
ROOT
HETATM    1 CA   UNL     1      -9.479   8.443  63.806  1.00  0.00    -0.363 Ca 
HETATM    2  O   UNL     2     -10.150   2.784  64.473  1.00  0.00    -0.340 OA 
HETATM    3  O   UNL     3     -10.502  13.764  66.999  1.00  0.00    -0.270 OA 
HETATM    4  H   UNL     2     -10.923   2.619  63.945  1.00  0.00     0.000 HD 
HETATM    5  C   UNL     2      -9.879   4.185  64.469  1.00  0.00    -0.162 C  
HETATM    6  C   UNL     3     -11.094  12.927  66.010  1.00  0.00    -0.281 C  
HETATM    7  H   UNL     3     -10.462  14.661  66.688  1.00  0.00     0.000 HD 
ENDROOT
BRANCH   5   8
HETATM    8  C   UNL     2      -8.623   4.453  65.326  1.00  0.00    -0.124 C  
HETATM    9  O   UNL     2      -7.584   3.593  64.868  1.00  0.00    -0.075 OA 
HETATM   10  H   UNL     2      -6.811   3.758  65.396  1.00  0.00     0.000 HD 
BRANCH   8  11
HETATM   11  C   UNL     2      -8.142   5.905  65.173  1.00  0.00    -0.131 C  
HETATM   12  H   UNL     2      -8.282   7.406  63.844  1.00  0.00     0.000 HD 
HETATM   13  O   UNL     2      -8.579   6.508  63.939  1.00  0.00     0.193 OA 
BRANCH  11  14
HETATM   14  C   UNL     2      -8.368   6.911  66.328  1.00  0.00    -0.126 C  
HETATM   15  O   UNL     2      -9.439   7.784  66.010  1.00  0.00    -0.382 OA 
HETATM   16  H   UNL     2      -9.578   8.401  66.719  1.00  0.00     0.000 HD 
BRANCH  14  17
HETATM   17  C   UNL     2      -7.132   7.593  66.944  1.00  0.00    -0.084 C  
HETATM   18  H   UNL     2      -5.336   7.013  67.445  1.00  0.00     0.000 HD 
HETATM   19  O   UNL     2      -6.098   6.591  67.066  1.00  0.00    -0.023 OA 
BRANCH  17  20
HETATM   20  C   UNL     2      -6.628   8.843  66.221  1.00  0.00    -0.066 C  
HETATM   21  O   UNL     2      -7.307   9.035  64.960  1.00  0.00    -0.093 OA 
HETATM   22  C   UNL     2      -6.899  10.061  67.149  1.00  0.00    -0.082 C  
HETATM   23  H   UNL     2      -6.993   9.811  64.511  1.00  0.00     0.000 HD 
HETATM   24  O   UNL     2      -6.679   9.839  68.369  1.00  0.00    -0.059 OA 
HETATM   25  O   UNL     2      -7.322  11.075  66.532  1.00  0.00    -0.138 OA 
ENDBRANCH  17  20
ENDBRANCH  14  17
ENDBRANCH  11  14
ENDBRANCH   8  11
ENDBRANCH   5   8
BRANCH   6  26
HETATM   26  C   UNL     3     -11.158  11.477  66.512  1.00  0.00    -0.282 C  
HETATM   27  H   UNL     3     -10.478   9.798  65.879  1.00  0.00     0.000 HD 
HETATM   28  O   UNL     3     -10.439  10.694  65.568  1.00  0.00    -0.248 OA 
BRANCH  26  29
HETATM   29  C   UNL     3     -10.624  11.333  67.962  1.00  0.00    -0.195 C  
HETATM   30  O   UNL     3      -9.446  12.238  68.138  1.00  0.00    -0.203 OA 
HETATM   31  H   UNL     3      -9.119  12.149  69.026  1.00  0.00     0.000 HD 
BRANCH  29  32
HETATM   32  C   UNL     3     -11.596  11.839  69.049  1.00  0.00    -0.311 C  
HETATM   33  H   UNL     3     -11.675  13.429  70.208  1.00  0.00     0.000 HD 
HETATM   34  O   UNL     3     -11.076  13.118  69.539  1.00  0.00    -0.142 OA 
BRANCH  32  35
HETATM   35  C   UNL     3     -12.254  10.959  70.124  1.00  0.00    -0.343 C  
HETATM   36  H   UNL     3     -13.940  10.023  70.272  1.00  0.00     0.000 HD 
HETATM   37  O   UNL     3     -13.533  10.567  69.607  1.00  0.00     0.300 OA 
BRANCH  35  38
HETATM   38  C   UNL     3     -11.444   9.769  70.626  1.00  0.00    -0.324 C  
HETATM   39  C   UNL     3     -12.006   9.257  71.978  1.00  0.00    -0.321 C  
HETATM   40  O   UNL     3     -10.061  10.129  70.811  1.00  0.00    -0.322 OA 
HETATM   41  O   UNL     3     -13.062   9.828  72.396  1.00  0.00    -0.388 OA 
HETATM   42  O   UNL     3     -11.213   8.500  72.603  1.00  0.00    -0.331 OA 
HETATM   43  H   UNL     3      -9.556   9.388  71.124  1.00  0.00     0.000 HD 
ENDBRANCH  35  38
ENDBRANCH  32  35
ENDBRANCH  29  32
ENDBRANCH  26  29
ENDBRANCH   6  26
TORSDOF 10
ENDMDL
MODEL      470
REMARK 921   NORMALIZED FREE ENERGY PREDICTED BY IDOCK:   -3.12 KCAL/MOL
REMARK 922        TOTAL FREE ENERGY PREDICTED BY IDOCK:   -7.45 KCAL/MOL
REMARK 923 INTER-LIGAND FREE ENERGY PREDICTED BY IDOCK:   -5.14 KCAL/MOL
REMARK 924 INTRA-LIGAND FREE ENERGY PREDICTED BY IDOCK:   -2.30 KCAL/MOL
REMARK 927      BINDING AFFINITY PREDICTED BY RF-SCORE:    0.00 PKD
ROOT
HETATM    1 CA   UNL     1     -11.591   8.481  67.612  1.00  0.00    -0.495 Ca 
HETATM    2  O   UNL     2     -13.755   8.646  72.923  1.00  0.00    -0.737 OA 
HETATM    3  O   UNL     3      -9.327  12.431  63.272  1.00  0.00    -0.584 OA 
HETATM    4  H   UNL     2     -14.685   8.545  72.755  1.00  0.00     0.000 HD 
HETATM    5  C   UNL     2     -13.063   8.693  71.677  1.00  0.00    -0.346 C  
HETATM    6  C   UNL     3     -10.524  11.755  63.649  1.00  0.00    -0.439 C  
HETATM    7  H   UNL     3      -9.127  12.260  62.360  1.00  0.00     0.000 HD 
ENDROOT
BRANCH   5   8
HETATM    8  C   UNL     2     -11.553   8.857  71.950  1.00  0.00    -0.371 C  
HETATM    9  O   UNL     2     -11.298   8.438  73.287  1.00  0.00     0.053 OA 
HETATM   10  H   UNL     2     -10.368   8.539  73.455  1.00  0.00     0.000 HD 
BRANCH   8  11
HETATM   11  C   UNL     2     -10.715   7.978  71.007  1.00  0.00    -0.220 C  
HETATM   12  H   UNL     2      -8.931   8.033  70.085  1.00  0.00     0.000 HD 
HETATM   13  O   UNL     2      -9.448   8.576  70.668  1.00  0.00    -0.161 OA 
BRANCH  11  14
HETATM   14  C   UNL     2     -10.487   6.486  71.354  1.00  0.00    -0.213 C  
HETATM   15  O   UNL     2      -9.499   6.368  72.365  1.00  0.00    -0.145 OA 
HETATM   16  H   UNL     2      -9.359   5.453  72.577  1.00  0.00     0.000 HD 
BRANCH  14  17
HETATM   17  C   UNL     2     -10.351   5.487  70.190  1.00  0.00    -0.284 C  
HETATM   18  H   UNL     2     -11.091   5.351  68.387  1.00  0.00     0.000 HD 
HETATM   19  O   UNL     2     -11.175   5.969  69.105  1.00  0.00    -0.378 OA 
BRANCH  17  20
HETATM   20  C   UNL     2      -8.925   5.186  69.729  1.00  0.00    -0.110 C  
HETATM   21  O   UNL     2      -7.954   5.936  70.490  1.00  0.00    -0.102 OA 
HETATM   22  C   UNL     2      -8.680   3.664  69.929  1.00  0.00    -0.078 C  
HETATM   23  H   UNL     2      -7.067   5.750  70.203  1.00  0.00     0.000 HD 
HETATM   24  O   UNL     2      -9.665   2.938  69.628  1.00  0.00    -0.072 OA 
HETATM   25  O   UNL     2      -7.537   3.397  70.387  1.00  0.00    -0.044 OA 
ENDBRANCH  17  20
ENDBRANCH  14  17
ENDBRANCH  11  14
ENDBRANCH   8  11
ENDBRANCH   5   8
BRANCH   6  26
HETATM   26  C   UNL     3     -10.847  12.032  65.124  1.00  0.00    -0.300 C  
HETATM   27  H   UNL     3     -12.457  12.080  66.167  1.00  0.00     0.000 HD 
HETATM   28  O   UNL     3     -12.257  11.910  65.254  1.00  0.00    -0.357 OA 
BRANCH  26  29
HETATM   29  C   UNL     3     -10.059  11.100  66.083  1.00  0.00    -0.238 C  
HETATM   30  O   UNL     3      -9.946   9.745  65.460  1.00  0.00    -0.307 OA 
HETATM   31  H   UNL     3      -9.464   9.175  66.047  1.00  0.00     0.000 HD 
BRANCH  29  32
HETATM   32  C   UNL     3      -8.581  11.498  66.282  1.00  0.00    -0.133 C  
HETATM   33  H   UNL     3      -7.563  13.177  66.124  1.00  0.00     0.000 HD 
HETATM   34  O   UNL     3      -8.473  12.932  66.001  1.00  0.00     0.508 OA 
BRANCH  32  35
HETATM   35  C   UNL     3      -7.373  10.663  65.832  1.00  0.00    -0.128 C  
HETATM   36  H   UNL     3      -5.786  11.018  64.784  1.00  0.00     0.000 HD 
HETATM   37  O   UNL     3      -6.534  11.535  65.062  1.00  0.00     0.900 OA 
BRANCH  35  38
HETATM   38  C   UNL     3      -6.600   9.931  66.923  1.00  0.00    -0.067 C  
HETATM   39  C   UNL     3      -7.059   8.453  67.021  1.00  0.00    -0.079 C  
HETATM   40  O   UNL     3      -6.800  10.560  68.205  1.00  0.00    -0.066 OA 
HETATM   41  O   UNL     3      -7.909   8.074  66.155  1.00  0.00    -0.088 OA 
HETATM   42  O   UNL     3      -6.706   7.881  68.089  1.00  0.00    -0.060 OA 
HETATM   43  H   UNL     3      -6.318  10.104  68.886  1.00  0.00     0.000 HD 
ENDBRANCH  35  38
ENDBRANCH  32  35
ENDBRANCH  29  32
ENDBRANCH  26  29
ENDBRANCH   6  26
TORSDOF 10
ENDMDL
MODEL      471
REMARK 921   NORMALIZED FREE ENERGY PREDICTED BY IDOCK:   -3.12 KCAL/MOL
REMARK 922        TOTAL FREE ENERGY PREDICTED BY IDOCK:   -7.44 KCAL/MOL
REMARK 923 INTER-LIGAND FREE ENERGY PREDICTED BY IDOCK:   -6.42 KCAL/MOL
REMARK 924 INTRA-LIGAND FREE ENERGY PREDICTED BY IDOCK:   -1.02 KCAL/MOL
REMARK 927      BINDING AFFINITY PREDICTED BY RF-SCORE:    0.00 PKD
ROOT
HETATM    1 CA   UNL     1      -8.380  12.232  68.091  1.00  0.00    -0.120 Ca 
HETATM    2  O   UNL     2     -12.827  13.044  64.558  1.00  0.00    -0.692 OA 
HETATM    3  O   UNL     3      -5.936   7.697  71.700  1.00  0.00    -0.036 OA 
HETATM    4  H   UNL     2     -13.416  13.553  65.105  1.00  0.00     0.000 HD 
HETATM    5  C   UNL     2     -11.675  12.694  65.323  1.00  0.00    -0.378 C  
HETATM    6  C   UNL     3      -6.788   8.837  71.767  1.00  0.00    -0.062 C  
HETATM    7  H   UNL     3      -5.249   7.762  72.352  1.00  0.00     0.000 HD 
ENDROOT
BRANCH   5   8
HETATM    8  C   UNL     2     -10.719  11.868  64.436  1.00  0.00    -0.323 C  
HETATM    9  O   UNL     2     -10.062  12.762  63.543  1.00  0.00    -0.632 OA 
HETATM   10  H   UNL     2      -9.474  12.253  62.997  1.00  0.00     0.000 HD 
BRANCH   8  11
HETATM   11  C   UNL     2      -9.646  11.161  65.279  1.00  0.00    -0.230 C  
HETATM   12  H   UNL     2      -9.161  10.930  67.215  1.00  0.00     0.000 HD 
HETATM   13  O   UNL     2      -9.825  11.367  66.694  1.00  0.00    -0.198 OA 
BRANCH  11  14
HETATM   14  C   UNL     2      -9.338   9.665  65.027  1.00  0.00    -0.255 C  
HETATM   15  O   UNL     2     -10.225   8.853  65.779  1.00  0.00    -0.351 OA 
HETATM   16  H   UNL     2     -10.036   7.934  65.624  1.00  0.00     0.000 HD 
BRANCH  14  17
HETATM   17  C   UNL     2      -7.865   9.216  65.051  1.00  0.00    -0.112 C  
HETATM   18  H   UNL     2      -6.162  10.026  64.540  1.00  0.00     0.000 HD 
HETATM   19  O   UNL     2      -7.071  10.303  64.525  1.00  0.00    -0.134 OA 
BRANCH  17  20
HETATM   20  C   UNL     2      -7.335   8.728  66.399  1.00  0.00    -0.084 C  
HETATM   21  O   UNL     2      -6.647   7.464  66.271  1.00  0.00    -0.047 OA 
HETATM   22  C   UNL     2      -6.349   9.805  66.932  1.00  0.00    -0.065 C  
HETATM   23  H   UNL     2      -6.319   7.161  67.109  1.00  0.00     0.000 HD 
HETATM   24  O   UNL     2      -6.722  10.991  66.731  1.00  0.00    -0.108 OA 
HETATM   25  O   UNL     2      -5.315   9.318  67.462  1.00  0.00    -0.037 OA 
ENDBRANCH  17  20
ENDBRANCH  14  17
ENDBRANCH  11  14
ENDBRANCH   8  11
ENDBRANCH   5   8
BRANCH   6  26
HETATM   26  C   UNL     3      -7.899   8.732  70.712  1.00  0.00    -0.109 C  
HETATM   27  H   UNL     3      -8.379   7.434  69.383  1.00  0.00     0.000 HD 
HETATM   28  O   UNL     3      -7.692   7.499  70.035  1.00  0.00    -0.090 OA 
BRANCH  26  29
HETATM   29  C   UNL     3      -9.314   8.861  71.333  1.00  0.00    -0.268 C  
HETATM   30  O   UNL     3     -10.010  10.034  70.720  1.00  0.00    -0.339 OA 
HETATM   31  H   UNL     3     -10.876  10.113  71.101  1.00  0.00     0.000 HD 
BRANCH  29  32
HETATM   32  C   UNL     3     -10.266   7.695  70.990  1.00  0.00    -0.194 C  
HETATM   33  H   UNL     3     -12.136   7.564  70.384  1.00  0.00     0.000 HD 
HETATM   34  O   UNL     3     -11.550   8.281  70.595  1.00  0.00    -0.271 OA 
BRANCH  32  35
HETATM   35  C   UNL     3     -10.376   6.382  71.780  1.00  0.00    -0.203 C  
HETATM   36  H   UNL     3     -11.439   5.780  73.280  1.00  0.00     0.000 HD 
HETATM   37  O   UNL     3     -11.370   6.592  72.792  1.00  0.00    -0.253 OA 
BRANCH  35  38
HETATM   38  C   UNL     3     -10.632   5.115  70.972  1.00  0.00    -0.131 C  
HETATM   39  C   UNL     3      -9.449   4.123  71.121  1.00  0.00    -0.163 C  
HETATM   40  O   UNL     3     -10.802   5.421  69.574  1.00  0.00    -0.269 OA 
HETATM   41  O   UNL     3      -8.529   4.469  71.927  1.00  0.00    -0.108 OA 
HETATM   42  O   UNL     3      -9.437   3.212  70.248  1.00  0.00    -0.160 OA 
HETATM   43  H   UNL     3     -10.961   4.631  69.070  1.00  0.00     0.000 HD 
ENDBRANCH  35  38
ENDBRANCH  32  35
ENDBRANCH  29  32
ENDBRANCH  26  29
ENDBRANCH   6  26
TORSDOF 10
ENDMDL
MODEL      472
REMARK 921   NORMALIZED FREE ENERGY PREDICTED BY IDOCK:   -3.12 KCAL/MOL
REMARK 922        TOTAL FREE ENERGY PREDICTED BY IDOCK:   -7.44 KCAL/MOL
REMARK 923 INTER-LIGAND FREE ENERGY PREDICTED BY IDOCK:   -7.03 KCAL/MOL
REMARK 924 INTRA-LIGAND FREE ENERGY PREDICTED BY IDOCK:   -0.41 KCAL/MOL
REMARK 927      BINDING AFFINITY PREDICTED BY RF-SCORE:    0.00 PKD
ROOT
HETATM    1 CA   UNL     1     -12.294  11.979  67.582  1.00  0.00    -0.315 Ca 
HETATM    2  O   UNL     2     -11.370  16.230  63.840  1.00  0.00    -1.415 OA 
HETATM    3  O   UNL     3      -9.592   6.617  69.453  1.00  0.00    -0.146 OA 
HETATM    4  H   UNL     2     -11.981  16.010  63.146  1.00  0.00     0.000 HD 
HETATM    5  C   UNL     2     -11.426  15.215  64.842  1.00  0.00    -0.374 C  
HETATM    6  C   UNL     3     -10.595   7.110  68.569  1.00  0.00    -0.187 C  
HETATM    7  H   UNL     3      -9.950   5.932  70.005  1.00  0.00     0.000 HD 
ENDROOT
BRANCH   5   8
HETATM    8  C   UNL     2     -10.434  15.571  65.969  1.00  0.00    -0.323 C  
HETATM    9  O   UNL     2     -11.186  15.875  67.139  1.00  0.00    -0.213 OA 
HETATM   10  H   UNL     2     -10.575  16.094  67.834  1.00  0.00     0.000 HD 
BRANCH   8  11
HETATM   11  C   UNL     2      -9.507  14.389  66.292  1.00  0.00    -0.271 C  
HETATM   12  H   UNL     2      -8.302  13.781  67.781  1.00  0.00     0.000 HD 
HETATM   13  O   UNL     2      -8.876  14.512  67.582  1.00  0.00    -0.173 OA 
BRANCH  11  14
HETATM   14  C   UNL     2     -10.030  12.940  66.129  1.00  0.00    -0.272 C  
HETATM   15  O   UNL     2      -9.873  12.227  67.345  1.00  0.00    -0.195 OA 
HETATM   16  H   UNL     2     -10.194  11.338  67.244  1.00  0.00     0.000 HD 
BRANCH  14  17
HETATM   17  C   UNL     2      -9.625  12.164  64.861  1.00  0.00     0.022 C  
HETATM   18  H   UNL     2      -9.253  10.293  64.443  1.00  0.00     0.000 HD 
HETATM   19  O   UNL     2      -9.503  10.771  65.225  1.00  0.00    -0.193 OA 
BRANCH  17  20
HETATM   20  C   UNL     2     -10.528  12.354  63.643  1.00  0.00    -0.426 C  
HETATM   21  O   UNL     2     -10.061  11.584  62.513  1.00  0.00    -0.533 OA 
HETATM   22  C   UNL     2     -11.955  11.883  64.040  1.00  0.00    -0.356 C  
HETATM   23  H   UNL     2     -10.622  11.702  61.756  1.00  0.00     0.000 HD 
HETATM   24  O   UNL     2     -12.301  12.209  65.207  1.00  0.00    -0.513 OA 
HETATM   25  O   UNL     2     -12.534  11.223  63.136  1.00  0.00     0.036 OA 
ENDBRANCH  17  20
ENDBRANCH  14  17
ENDBRANCH  11  14
ENDBRANCH   8  11
ENDBRANCH   5   8
BRANCH   6  26
HETATM   26  C   UNL     3     -10.017   8.217  67.676  1.00  0.00    -0.185 C  
HETATM   27  H   UNL     3     -10.726   9.348  66.298  1.00  0.00     0.000 HD 
HETATM   28  O   UNL     3     -11.084   8.663  66.850  1.00  0.00     0.114 OA 
BRANCH  26  29
HETATM   29  C   UNL     3      -9.362   9.356  68.501  1.00  0.00    -0.138 C  
HETATM   30  O   UNL     3      -9.787   9.229  69.929  1.00  0.00    -0.178 OA 
HETATM   31  H   UNL     3      -9.386   9.927  70.434  1.00  0.00     0.000 HD 
BRANCH  29  32
HETATM   32  C   UNL     3      -7.824   9.261  68.604  1.00  0.00    -0.089 C  
HETATM   33  H   UNL     3      -6.467   7.988  67.960  1.00  0.00     0.000 HD 
HETATM   34  O   UNL     3      -7.413   8.046  67.897  1.00  0.00    -0.090 OA 
BRANCH  32  35
HETATM   35  C   UNL     3      -7.002   9.582  69.862  1.00  0.00    -0.078 C  
HETATM   36  H   UNL     3      -6.718  11.165  70.936  1.00  0.00     0.000 HD 
HETATM   37  O   UNL     3      -7.226  10.967  70.158  1.00  0.00    -0.121 OA 
BRANCH  35  38
HETATM   38  C   UNL     3      -7.228   8.687  71.075  1.00  0.00    -0.079 C  
HETATM   39  C   UNL     3      -6.227   9.037  72.207  1.00  0.00     0.019 C  
HETATM   40  O   UNL     3      -7.062   7.297  70.728  1.00  0.00    -0.062 OA 
HETATM   41  O   UNL     3      -5.463  10.030  71.990  1.00  0.00    -0.230 OA 
HETATM   42  O   UNL     3      -6.138   8.148  73.099  1.00  0.00    -0.065 OA 
HETATM   43  H   UNL     3      -7.203   6.739  71.484  1.00  0.00     0.000 HD 
ENDBRANCH  35  38
ENDBRANCH  32  35
ENDBRANCH  29  32
ENDBRANCH  26  29
ENDBRANCH   6  26
TORSDOF 10
ENDMDL
MODEL      473
REMARK 921   NORMALIZED FREE ENERGY PREDICTED BY IDOCK:   -3.09 KCAL/MOL
REMARK 922        TOTAL FREE ENERGY PREDICTED BY IDOCK:   -7.40 KCAL/MOL
REMARK 923 INTER-LIGAND FREE ENERGY PREDICTED BY IDOCK:   -7.47 KCAL/MOL
REMARK 924 INTRA-LIGAND FREE ENERGY PREDICTED BY IDOCK:    0.06 KCAL/MOL
REMARK 927      BINDING AFFINITY PREDICTED BY RF-SCORE:    0.00 PKD
ROOT
HETATM    1 CA   UNL     1      -9.118   8.049  64.544  1.00  0.00    -0.367 Ca 
HETATM    2  O   UNL     2     -11.281   2.764  63.985  1.00  0.00    -0.605 OA 
HETATM    3  O   UNL     3      -9.972  13.192  68.061  1.00  0.00    -0.220 OA 
HETATM    4  H   UNL     2     -11.823   2.860  63.210  1.00  0.00     0.000 HD 
HETATM    5  C   UNL     2     -10.710   4.031  64.308  1.00  0.00    -0.169 C  
HETATM    6  C   UNL     3     -10.337  12.627  66.805  1.00  0.00    -0.235 C  
HETATM    7  H   UNL     3      -9.614  14.063  67.937  1.00  0.00     0.000 HD 
ENDROOT
BRANCH   5   8
HETATM    8  C   UNL     2      -9.830   3.876  65.566  1.00  0.00    -0.156 C  
HETATM    9  O   UNL     2      -8.971   2.758  65.370  1.00  0.00    -0.130 OA 
HETATM   10  H   UNL     2      -8.429   2.663  66.145  1.00  0.00     0.000 HD 
BRANCH   8  11
HETATM   11  C   UNL     2      -8.953   5.118  65.791  1.00  0.00    -0.152 C  
HETATM   12  H   UNL     2      -8.028   6.527  64.696  1.00  0.00     0.000 HD 
HETATM   13  O   UNL     2      -8.570   5.759  64.558  1.00  0.00    -0.090 OA 
BRANCH  11  14
HETATM   14  C   UNL     2      -9.407   6.203  66.798  1.00  0.00    -0.140 C  
HETATM   15  O   UNL     2     -10.425   7.006  66.221  1.00  0.00    -0.447 OA 
HETATM   16  H   UNL     2     -10.703   7.672  66.840  1.00  0.00     0.000 HD 
BRANCH  14  17
HETATM   17  C   UNL     2      -8.319   6.981  67.562  1.00  0.00    -0.119 C  
HETATM   18  H   UNL     2      -7.338   8.644  67.265  1.00  0.00     0.000 HD 
HETATM   19  O   UNL     2      -8.010   8.164  66.793  1.00  0.00    -0.100 OA 
BRANCH  17  20
HETATM   20  C   UNL     2      -8.635   7.318  69.019  1.00  0.00    -0.129 C  
HETATM   21  O   UNL     2      -9.941   6.834  69.402  1.00  0.00    -0.155 OA 
HETATM   22  C   UNL     2      -7.549   6.641  69.902  1.00  0.00    -0.100 C  
HETATM   23  H   UNL     2     -10.137   7.043  70.308  1.00  0.00     0.000 HD 
HETATM   24  O   UNL     2      -6.385   6.697  69.423  1.00  0.00    -0.035 OA 
HETATM   25  O   UNL     2      -8.011   6.119  70.951  1.00  0.00    -0.111 OA 
ENDBRANCH  17  20
ENDBRANCH  14  17
ENDBRANCH  11  14
ENDBRANCH   8  11
ENDBRANCH   5   8
BRANCH   6  26
HETATM   26  C   UNL     3     -10.916  11.220  67.005  1.00  0.00    -0.294 C  
HETATM   27  H   UNL     3     -10.673   9.524  66.139  1.00  0.00     0.000 HD 
HETATM   28  O   UNL     3     -10.315  10.395  66.015  1.00  0.00    -0.241 OA 
BRANCH  26  29
HETATM   29  C   UNL     3     -10.703  10.696  68.450  1.00  0.00    -0.222 C  
HETATM   30  O   UNL     3      -9.602  11.477  69.093  1.00  0.00    -0.414 OA 
HETATM   31  H   UNL     3      -9.471  11.156  69.977  1.00  0.00     0.000 HD 
BRANCH  29  32
HETATM   32  C   UNL     3     -11.892  10.957  69.401  1.00  0.00    -0.328 C  
HETATM   33  H   UNL     3     -12.865  12.562  69.996  1.00  0.00     0.000 HD 
HETATM   34  O   UNL     3     -12.134  12.402  69.412  1.00  0.00    -0.265 OA 
BRANCH  32  35
HETATM   35  C   UNL     3     -12.112  10.259  70.752  1.00  0.00    -0.353 C  
HETATM   36  H   UNL     3     -13.667   9.749  71.783  1.00  0.00     0.000 HD 
HETATM   37  O   UNL     3     -13.530  10.181  70.948  1.00  0.00    -0.345 OA 
BRANCH  35  38
HETATM   38  C   UNL     3     -11.426   8.911  70.946  1.00  0.00    -0.288 C  
HETATM   39  C   UNL     3     -12.343   7.940  71.735  1.00  0.00    -0.320 C  
HETATM   40  O   UNL     3     -10.188   9.062  71.669  1.00  0.00    -0.317 OA 
HETATM   41  O   UNL     3     -13.507   8.370  72.009  1.00  0.00    -0.342 OA 
HETATM   42  O   UNL     3     -11.737   6.938  72.206  1.00  0.00    -0.278 OA 
HETATM   43  H   UNL     3      -9.761   8.222  71.790  1.00  0.00     0.000 HD 
ENDBRANCH  35  38
ENDBRANCH  32  35
ENDBRANCH  29  32
ENDBRANCH  26  29
ENDBRANCH   6  26
TORSDOF 10
ENDMDL
MODEL      474
REMARK 921   NORMALIZED FREE ENERGY PREDICTED BY IDOCK:   -3.09 KCAL/MOL
REMARK 922        TOTAL FREE ENERGY PREDICTED BY IDOCK:   -7.39 KCAL/MOL
REMARK 923 INTER-LIGAND FREE ENERGY PREDICTED BY IDOCK:   -8.24 KCAL/MOL
REMARK 924 INTRA-LIGAND FREE ENERGY PREDICTED BY IDOCK:    0.85 KCAL/MOL
REMARK 927      BINDING AFFINITY PREDICTED BY RF-SCORE:    0.00 PKD
ROOT
HETATM    1 CA   UNL     1      -9.069  14.297  65.611  1.00  0.00    -0.400 Ca 
HETATM    2  O   UNL     2      -8.822  18.552  69.452  1.00  0.00     0.149 OA 
HETATM    3  O   UNL     3      -9.409   8.018  65.482  1.00  0.00    -0.411 OA 
HETATM    4  H   UNL     2      -7.901  18.785  69.421  1.00  0.00     0.000 HD 
HETATM    5  C   UNL     2      -9.046  17.441  68.586  1.00  0.00    -0.261 C  
HETATM    6  C   UNL     3      -8.468   9.085  65.405  1.00  0.00    -0.160 C  
HETATM    7  H   UNL     3      -9.302   7.432  64.742  1.00  0.00     0.000 HD 
ENDROOT
BRANCH   5   8
HETATM    8  C   UNL     2     -10.542  17.063  68.636  1.00  0.00    -0.362 C  
HETATM    9  O   UNL     2     -11.027  17.002  67.299  1.00  0.00    -0.181 OA 
HETATM   10  H   UNL     2     -11.948  16.769  67.329  1.00  0.00     0.000 HD 
BRANCH   8  11
HETATM   11  C   UNL     2     -10.747  15.683  69.281  1.00  0.00    -0.239 C  
HETATM   12  H   UNL     2      -9.655  14.279  70.216  1.00  0.00     0.000 HD 
HETATM   13  O   UNL     2      -9.528  15.132  69.817  1.00  0.00    -0.168 OA 
BRANCH  11  14
HETATM   14  C   UNL     2     -11.882  15.484  70.315  1.00  0.00    -0.357 C  
HETATM   15  O   UNL     2     -13.068  16.117  69.864  1.00  0.00    -0.471 OA 
HETATM   16  H   UNL     2     -13.765  15.995  70.499  1.00  0.00     0.000 HD 
BRANCH  14  17
HETATM   17  C   UNL     2     -11.551  15.706  71.803  1.00  0.00    -0.450 C  
HETATM   18  H   UNL     2     -11.251  17.268  72.937  1.00  0.00     0.000 HD 
HETATM   19  O   UNL     2     -11.456  17.132  72.018  1.00  0.00     0.208 OA 
BRANCH  17  20
HETATM   20  C   UNL     2     -12.496  15.043  72.806  1.00  0.00    -0.377 C  
HETATM   21  O   UNL     2     -13.500  15.968  73.277  1.00  0.00    -0.621 OA 
HETATM   22  C   UNL     2     -13.184  13.852  72.082  1.00  0.00    -0.444 C  
HETATM   23  H   UNL     2     -14.087  15.556  73.901  1.00  0.00     0.000 HD 
HETATM   24  O   UNL     2     -12.421  13.197  71.324  1.00  0.00    -0.332 OA 
HETATM   25  O   UNL     2     -14.411  13.744  72.351  1.00  0.00    -0.664 OA 
ENDBRANCH  17  20
ENDBRANCH  14  17
ENDBRANCH  11  14
ENDBRANCH   8  11
ENDBRANCH   5   8
BRANCH   6  26
HETATM   26  C   UNL     3      -8.642  10.032  66.601  1.00  0.00    -0.125 C  
HETATM   27  H   UNL     3      -9.939  11.357  67.096  1.00  0.00     0.000 HD 
HETATM   28  O   UNL     3      -9.832  10.771  66.356  1.00  0.00    -0.195 OA 
BRANCH  26  29
HETATM   29  C   UNL     3      -8.659   9.274  67.954  1.00  0.00    -0.120 C  
HETATM   30  O   UNL     3      -8.534  10.264  69.068  1.00  0.00    -0.130 OA 
HETATM   31  H   UNL     3      -8.545   9.799  69.896  1.00  0.00     0.000 HD 
BRANCH  29  32
HETATM   32  C   UNL     3     -10.000   8.580  68.276  1.00  0.00    -0.184 C  
HETATM   33  H   UNL     3     -11.850   8.766  67.623  1.00  0.00     0.000 HD 
HETATM   34  O   UNL     3     -11.024   9.193  67.425  1.00  0.00    -0.170 OA 
BRANCH  32  35
HETATM   35  C   UNL     3     -10.481   8.197  69.684  1.00  0.00    -0.224 C  
HETATM   36  H   UNL     3     -11.625   9.027  71.005  1.00  0.00     0.000 HD 
HETATM   37  O   UNL     3     -11.328   9.264  70.134  1.00  0.00    -0.240 OA 
BRANCH  35  38
HETATM   38  C   UNL     3     -11.142   6.832  69.835  1.00  0.00    -0.323 C  
HETATM   39  C   UNL     3     -10.176   5.830  70.522  1.00  0.00    -0.221 C  
HETATM   40  O   UNL     3     -11.520   6.298  68.551  1.00  0.00    -0.481 OA 
HETATM   41  O   UNL     3      -9.065   6.306  70.914  1.00  0.00    -0.149 OA 
HETATM   42  O   UNL     3     -10.522   4.623  70.394  1.00  0.00    -0.136 OA 
HETATM   43  H   UNL     3     -11.932   5.446  68.645  1.00  0.00     0.000 HD 
ENDBRANCH  35  38
ENDBRANCH  32  35
ENDBRANCH  29  32
ENDBRANCH  26  29
ENDBRANCH   6  26
TORSDOF 10
ENDMDL
MODEL      475
REMARK 921   NORMALIZED FREE ENERGY PREDICTED BY IDOCK:   -3.06 KCAL/MOL
REMARK 922        TOTAL FREE ENERGY PREDICTED BY IDOCK:   -7.36 KCAL/MOL
REMARK 923 INTER-LIGAND FREE ENERGY PREDICTED BY IDOCK:   -7.00 KCAL/MOL
REMARK 924 INTRA-LIGAND FREE ENERGY PREDICTED BY IDOCK:   -0.35 KCAL/MOL
REMARK 927      BINDING AFFINITY PREDICTED BY RF-SCORE:    0.00 PKD
ROOT
HETATM    1 CA   UNL     1      -8.995  13.075  66.146  1.00  0.00    -0.238 Ca 
HETATM    2  O   UNL     2      -8.729   7.520  64.734  1.00  0.00    -0.365 OA 
HETATM    3  O   UNL     3     -11.251  16.710  70.756  1.00  0.00    -0.464 OA 
HETATM    4  H   UNL     2      -9.404   7.459  64.068  1.00  0.00     0.000 HD 
HETATM    5  C   UNL     2      -8.708   8.850  65.249  1.00  0.00    -0.186 C  
HETATM    6  C   UNL     3     -11.584  16.217  69.461  1.00  0.00    -0.254 C  
HETATM    7  H   UNL     3     -11.337  17.655  70.779  1.00  0.00     0.000 HD 
ENDROOT
BRANCH   5   8
HETATM    8  C   UNL     2      -7.613   8.949  66.332  1.00  0.00    -0.092 C  
HETATM    9  O   UNL     2      -7.731  10.218  66.965  1.00  0.00    -0.098 OA 
HETATM   10  H   UNL     2      -7.056  10.280  67.632  1.00  0.00     0.000 HD 
BRANCH   8  11
HETATM   11  C   UNL     2      -7.788   7.863  67.405  1.00  0.00    -0.121 C  
HETATM   12  H   UNL     2      -6.979   7.344  69.170  1.00  0.00     0.000 HD 
HETATM   13  O   UNL     2      -6.871   8.016  68.507  1.00  0.00    -0.064 OA 
BRANCH  11  14
HETATM   14  C   UNL     2      -9.200   7.565  67.969  1.00  0.00    -0.137 C  
HETATM   15  O   UNL     2      -9.687   8.693  68.678  1.00  0.00    -0.157 OA 
HETATM   16  H   UNL     2     -10.553   8.510  69.024  1.00  0.00     0.000 HD 
BRANCH  14  17
HETATM   17  C   UNL     2      -9.430   6.210  68.663  1.00  0.00    -0.124 C  
HETATM   18  H   UNL     2     -10.995   5.128  69.105  1.00  0.00     0.000 HD 
HETATM   19  O   UNL     2     -10.854   5.965  68.677  1.00  0.00    -0.273 OA 
BRANCH  17  20
HETATM   20  C   UNL     2      -8.656   5.023  68.088  1.00  0.00    -0.102 C  
HETATM   21  O   UNL     2      -8.439   4.000  69.084  1.00  0.00    -0.075 OA 
HETATM   22  C   UNL     2      -9.497   4.440  66.917  1.00  0.00    -0.178 C  
HETATM   23  H   UNL     2      -7.958   3.263  68.726  1.00  0.00     0.000 HD 
HETATM   24  O   UNL     2     -10.053   5.311  66.196  1.00  0.00    -0.183 OA 
HETATM   25  O   UNL     2      -9.511   3.180  66.891  1.00  0.00    -0.168 OA 
ENDBRANCH  17  20
ENDBRANCH  14  17
ENDBRANCH  11  14
ENDBRANCH   8  11
ENDBRANCH   5   8
BRANCH   6  26
HETATM   26  C   UNL     3     -11.444  14.688  69.424  1.00  0.00    -0.296 C  
HETATM   27  H   UNL     3     -12.679  13.221  69.342  1.00  0.00     0.000 HD 
HETATM   28  O   UNL     3     -12.765  14.167  69.365  1.00  0.00    -0.065 OA 
BRANCH  26  29
HETATM   29  C   UNL     3     -10.543  14.208  68.255  1.00  0.00    -0.251 C  
HETATM   30  O   UNL     3      -9.149  14.698  68.484  1.00  0.00    -0.179 OA 
HETATM   31  H   UNL     3      -8.597  14.404  67.768  1.00  0.00     0.000 HD 
BRANCH  29  32
HETATM   32  C   UNL     3     -10.350  12.678  68.191  1.00  0.00    -0.234 C  
HETATM   33  H   UNL     3      -8.792  11.481  68.045  1.00  0.00     0.000 HD 
HETATM   34  O   UNL     3      -8.911  12.423  68.084  1.00  0.00    -0.182 OA 
BRANCH  32  35
HETATM   35  C   UNL     3     -11.234  11.709  67.391  1.00  0.00    -0.298 C  
HETATM   36  H   UNL     3     -12.659  10.479  67.839  1.00  0.00     0.000 HD 
HETATM   37  O   UNL     3     -12.111  11.079  68.334  1.00  0.00    -0.594 OA 
BRANCH  35  38
HETATM   38  C   UNL     3     -11.987  12.292  66.200  1.00  0.00    -0.249 C  
HETATM   39  C   UNL     3     -11.173  12.105  64.893  1.00  0.00    -0.323 C  
HETATM   40  O   UNL     3     -12.238  13.699  66.389  1.00  0.00    -0.425 OA 
HETATM   41  O   UNL     3     -10.091  11.447  64.999  1.00  0.00    -0.246 OA 
HETATM   42  O   UNL     3     -11.571  12.830  63.940  1.00  0.00    -0.384 OA 
HETATM   43  H   UNL     3     -12.707  14.063  65.647  1.00  0.00     0.000 HD 
ENDBRANCH  35  38
ENDBRANCH  32  35
ENDBRANCH  29  32
ENDBRANCH  26  29
ENDBRANCH   6  26
TORSDOF 10
ENDMDL
MODEL      476
REMARK 921   NORMALIZED FREE ENERGY PREDICTED BY IDOCK:   -3.06 KCAL/MOL
REMARK 922        TOTAL FREE ENERGY PREDICTED BY IDOCK:   -7.35 KCAL/MOL
REMARK 923 INTER-LIGAND FREE ENERGY PREDICTED BY IDOCK:   -7.32 KCAL/MOL
REMARK 924 INTRA-LIGAND FREE ENERGY PREDICTED BY IDOCK:   -0.02 KCAL/MOL
REMARK 927      BINDING AFFINITY PREDICTED BY RF-SCORE:    0.00 PKD
ROOT
HETATM    1 CA   UNL     1     -11.980  10.016  67.389  1.00  0.00    -0.372 Ca 
HETATM    2  O   UNL     2      -9.626   8.788  72.475  1.00  0.00    -0.248 OA 
HETATM    3  O   UNL     3     -12.311  14.811  63.333  1.00  0.00    -0.963 OA 
HETATM    4  H   UNL     2     -10.376   8.857  73.055  1.00  0.00     0.000 HD 
HETATM    5  C   UNL     2     -10.032   9.135  71.153  1.00  0.00    -0.307 C  
HETATM    6  C   UNL     3     -13.032  14.202  64.400  1.00  0.00     0.464 C  
HETATM    7  H   UNL     3     -12.871  14.909  62.572  1.00  0.00     0.000 HD 
ENDROOT
BRANCH   5   8
HETATM    8  C   UNL     2      -8.815   9.023  70.211  1.00  0.00    -0.189 C  
HETATM    9  O   UNL     2      -7.676   8.690  70.998  1.00  0.00    -0.085 OA 
HETATM   10  H   UNL     2      -6.927   8.621  70.418  1.00  0.00     0.000 HD 
BRANCH   8  11
HETATM   11  C   UNL     2      -9.016   7.910  69.169  1.00  0.00    -0.145 C  
HETATM   12  H   UNL     2      -8.081   7.178  67.547  1.00  0.00     0.000 HD 
HETATM   13  O   UNL     2      -7.957   7.866  68.191  1.00  0.00    -0.121 OA 
BRANCH  11  14
HETATM   14  C   UNL     2      -9.320   6.467  69.641  1.00  0.00    -0.145 C  
HETATM   15  O   UNL     2     -10.423   6.470  70.533  1.00  0.00    -0.197 OA 
HETATM   16  H   UNL     2     -10.609   5.584  70.822  1.00  0.00     0.000 HD 
BRANCH  14  17
HETATM   17  C   UNL     2      -8.135   5.583  70.072  1.00  0.00    -0.090 C  
HETATM   18  H   UNL     2      -6.189   5.740  69.995  1.00  0.00     0.000 HD 
HETATM   19  O   UNL     2      -6.921   6.286  69.729  1.00  0.00    -0.065 OA 
BRANCH  17  20
HETATM   20  C   UNL     2      -8.134   5.130  71.532  1.00  0.00    -0.115 C  
HETATM   21  O   UNL     2      -8.497   6.209  72.421  1.00  0.00    -0.116 OA 
HETATM   22  C   UNL     2      -9.169   3.977  71.665  1.00  0.00    -0.126 C  
HETATM   23  H   UNL     2      -8.496   5.928  73.328  1.00  0.00     0.000 HD 
HETATM   24  O   UNL     2      -9.171   3.171  70.697  1.00  0.00    -0.110 OA 
HETATM   25  O   UNL     2      -9.864   4.047  72.714  1.00  0.00    -0.135 OA 
ENDBRANCH  17  20
ENDBRANCH  14  17
ENDBRANCH  11  14
ENDBRANCH   8  11
ENDBRANCH   5   8
BRANCH   6  26
HETATM   26  C   UNL     3     -12.127  14.045  65.630  1.00  0.00    -0.417 C  
HETATM   27  H   UNL     3     -11.780  12.630  66.879  1.00  0.00     0.000 HD 
HETATM   28  O   UNL     3     -12.341  12.727  66.118  1.00  0.00    -0.542 OA 
BRANCH  26  29
HETATM   29  C   UNL     3     -10.640  14.346  65.308  1.00  0.00    -0.382 C  
HETATM   30  O   UNL     3     -10.561  15.605  64.505  1.00  0.00    -0.684 OA 
HETATM   31  H   UNL     3      -9.650  15.789  64.307  1.00  0.00     0.000 HD 
BRANCH  29  32
HETATM   32  C   UNL     3      -9.779  14.688  66.544  1.00  0.00    -0.280 C  
HETATM   33  H   UNL     3      -8.865  13.631  67.932  1.00  0.00     0.000 HD 
HETATM   34  O   UNL     3      -9.395  13.421  67.172  1.00  0.00    -0.222 OA 
BRANCH  32  35
HETATM   35  C   UNL     3     -10.063  15.833  67.528  1.00  0.00    -0.245 C  
HETATM   36  H   UNL     3     -10.533  15.932  69.402  1.00  0.00     0.000 HD 
HETATM   37  O   UNL     3     -10.358  15.224  68.792  1.00  0.00    -0.219 OA 
BRANCH  35  38
HETATM   38  C   UNL     3      -8.998  16.917  67.643  1.00  0.00    -0.219 C  
HETATM   39  C   UNL     3      -9.559  18.287  67.179  1.00  0.00    -0.281 C  
HETATM   40  O   UNL     3      -7.846  16.596  66.838  1.00  0.00    -0.179 OA 
HETATM   41  O   UNL     3     -10.792  18.308  66.869  1.00  0.00    -0.306 OA 
HETATM   42  O   UNL     3      -8.667  19.148  66.943  1.00  0.00    -0.282 OA 
HETATM   43  H   UNL     3      -7.182  17.272  66.909  1.00  0.00     0.000 HD 
ENDBRANCH  35  38
ENDBRANCH  32  35
ENDBRANCH  29  32
ENDBRANCH  26  29
ENDBRANCH   6  26
TORSDOF 10
ENDMDL
MODEL      477
REMARK 921   NORMALIZED FREE ENERGY PREDICTED BY IDOCK:   -2.97 KCAL/MOL
REMARK 922        TOTAL FREE ENERGY PREDICTED BY IDOCK:   -7.20 KCAL/MOL
REMARK 923 INTER-LIGAND FREE ENERGY PREDICTED BY IDOCK:   -6.37 KCAL/MOL
REMARK 924 INTRA-LIGAND FREE ENERGY PREDICTED BY IDOCK:   -0.83 KCAL/MOL
REMARK 927      BINDING AFFINITY PREDICTED BY RF-SCORE:    0.00 PKD
ROOT
HETATM    1 CA   UNL     1      -7.168  11.925  68.956  1.00  0.00    -0.081 Ca 
HETATM    2  O   UNL     2      -5.153   6.807  70.590  1.00  0.00    -0.018 OA 
HETATM    3  O   UNL     3     -12.475  14.458  66.727  1.00  0.00    -0.563 OA 
HETATM    4  H   UNL     2      -4.622   6.562  69.841  1.00  0.00     0.000 HD 
HETATM    5  C   UNL     2      -5.793   8.052  70.314  1.00  0.00    -0.026 C  
HETATM    6  C   UNL     3     -11.220  13.939  66.294  1.00  0.00    -0.309 C  
HETATM    7  H   UNL     3     -12.614  15.325  66.364  1.00  0.00     0.000 HD 
ENDROOT
BRANCH   5   8
HETATM    8  C   UNL     2      -6.656   8.449  71.530  1.00  0.00    -0.064 C  
HETATM    9  O   UNL     2      -7.183   9.750  71.292  1.00  0.00    -0.309 OA 
HETATM   10  H   UNL     2      -7.714   9.995  72.041  1.00  0.00     0.000 HD 
BRANCH   8  11
HETATM   11  C   UNL     2      -7.838   7.484  71.716  1.00  0.00    -0.086 C  
HETATM   12  H   UNL     2      -8.145   5.536  72.106  1.00  0.00     0.000 HD 
HETATM   13  O   UNL     2      -7.415   6.133  71.991  1.00  0.00    -0.092 OA 
BRANCH  11  14
HETATM   14  C   UNL     2      -8.984   7.856  72.689  1.00  0.00    -0.192 C  
HETATM   15  O   UNL     2      -8.797   7.201  73.933  1.00  0.00    -0.155 OA 
HETATM   16  H   UNL     2      -9.501   7.429  74.530  1.00  0.00     0.000 HD 
BRANCH  14  17
HETATM   17  C   UNL     2     -10.426   7.831  72.149  1.00  0.00    -0.231 C  
HETATM   18  H   UNL     2     -11.529   9.044  71.087  1.00  0.00     0.000 HD 
HETATM   19  O   UNL     2     -10.639   9.060  71.419  1.00  0.00    -0.267 OA 
BRANCH  17  20
HETATM   20  C   UNL     2     -10.809   6.606  71.319  1.00  0.00    -0.238 C  
HETATM   21  O   UNL     2      -9.850   6.359  70.267  1.00  0.00    -0.166 OA 
HETATM   22  C   UNL     2     -10.853   5.384  72.280  1.00  0.00    -0.227 C  
HETATM   23  H   UNL     2     -10.089   5.597  69.751  1.00  0.00     0.000 HD 
HETATM   24  O   UNL     2     -11.357   5.633  73.408  1.00  0.00    -0.197 OA 
HETATM   25  O   UNL     2     -10.352   4.340  71.785  1.00  0.00    -0.145 OA 
ENDBRANCH  17  20
ENDBRANCH  14  17
ENDBRANCH  11  14
ENDBRANCH   8  11
ENDBRANCH   5   8
BRANCH   6  26
HETATM   26  C   UNL     3     -10.997  12.537  66.880  1.00  0.00    -0.257 C  
HETATM   27  H   UNL     3     -12.136  11.197  67.647  1.00  0.00     0.000 HD 
HETATM   28  O   UNL     3     -12.275  12.064  67.285  1.00  0.00    -0.496 OA 
BRANCH  26  29
HETATM   29  C   UNL     3     -10.281  11.590  65.881  1.00  0.00    -0.244 C  
HETATM   30  O   UNL     3      -9.570  12.413  64.855  1.00  0.00    -0.461 OA 
HETATM   31  H   UNL     3      -9.132  11.833  64.243  1.00  0.00     0.000 HD 
BRANCH  29  32
HETATM   32  C   UNL     3      -9.130  10.767  66.500  1.00  0.00    -0.165 C  
HETATM   33  H   UNL     3      -7.331  11.192  67.181  1.00  0.00     0.000 HD 
HETATM   34  O   UNL     3      -8.039  11.698  66.799  1.00  0.00    -0.162 OA 
BRANCH  32  35
HETATM   35  C   UNL     3      -8.677   9.380  66.019  1.00  0.00    -0.150 C  
HETATM   36  H   UNL     3      -9.103   7.560  66.516  1.00  0.00     0.000 HD 
HETATM   37  O   UNL     3      -9.383   8.418  66.814  1.00  0.00    -0.160 OA 
BRANCH  35  38
HETATM   38  C   UNL     3      -8.801   9.099  64.526  1.00  0.00    -0.125 C  
HETATM   39  C   UNL     3      -7.529   9.571  63.773  1.00  0.00    -0.116 C  
HETATM   40  O   UNL     3      -9.944   9.777  63.967  1.00  0.00    -0.439 OA 
HETATM   41  O   UNL     3      -6.587  10.021  64.498  1.00  0.00    -0.119 OA 
HETATM   42  O   UNL     3      -7.684   9.667  62.524  1.00  0.00    -0.114 OA 
HETATM   43  H   UNL     3     -10.021   9.601  63.036  1.00  0.00     0.000 HD 
ENDBRANCH  35  38
ENDBRANCH  32  35
ENDBRANCH  29  32
ENDBRANCH  26  29
ENDBRANCH   6  26
TORSDOF 10
ENDMDL
MODEL      478
REMARK 921   NORMALIZED FREE ENERGY PREDICTED BY IDOCK:   -2.92 KCAL/MOL
REMARK 922        TOTAL FREE ENERGY PREDICTED BY IDOCK:   -7.13 KCAL/MOL
REMARK 923 INTER-LIGAND FREE ENERGY PREDICTED BY IDOCK:   -5.84 KCAL/MOL
REMARK 924 INTRA-LIGAND FREE ENERGY PREDICTED BY IDOCK:   -1.29 KCAL/MOL
REMARK 927      BINDING AFFINITY PREDICTED BY RF-SCORE:    0.00 PKD
ROOT
HETATM    1 CA   UNL     1      -8.588   7.809  72.006  1.00  0.00    -0.097 Ca 
HETATM    2  O   UNL     2     -12.480  11.634  70.233  1.00  0.00    -0.255 OA 
HETATM    3  O   UNL     3      -7.419   1.647  71.543  1.00  0.00    -0.035 OA 
HETATM    4  H   UNL     2     -12.993  11.765  71.022  1.00  0.00     0.000 HD 
HETATM    5  C   UNL     2     -11.488  10.641  70.488  1.00  0.00    -0.317 C  
HETATM    6  C   UNL     3      -8.022   2.605  72.408  1.00  0.00    -0.055 C  
HETATM    7  H   UNL     3      -6.787   1.124  72.022  1.00  0.00     0.000 HD 
ENDROOT
BRANCH   5   8
HETATM    8  C   UNL     2     -10.653  10.428  69.207  1.00  0.00    -0.232 C  
HETATM    9  O   UNL     2     -11.062   9.201  68.612  1.00  0.00    -0.449 OA 
HETATM   10  H   UNL     2     -10.548   9.070  67.823  1.00  0.00     0.000 HD 
BRANCH   8  11
HETATM   11  C   UNL     2     -10.896  11.555  68.189  1.00  0.00    -0.215 C  
HETATM   12  H   UNL     2     -12.399  12.273  67.066  1.00  0.00     0.000 HD 
HETATM   13  O   UNL     2     -12.250  11.577  67.695  1.00  0.00    -0.513 OA 
BRANCH  11  14
HETATM   14  C   UNL     2     -10.467  13.003  68.535  1.00  0.00    -0.249 C  
HETATM   15  O   UNL     2     -11.612  13.812  68.744  1.00  0.00    -0.280 OA 
HETATM   16  H   UNL     2     -11.349  14.700  68.956  1.00  0.00     0.000 HD 
BRANCH  14  17
HETATM   17  C   UNL     2      -9.358  13.650  67.683  1.00  0.00    -0.215 C  
HETATM   18  H   UNL     2      -7.462  13.297  67.379  1.00  0.00     0.000 HD 
HETATM   19  O   UNL     2      -8.145  12.897  67.904  1.00  0.00    -0.135 OA 
BRANCH  17  20
HETATM   20  C   UNL     2      -9.664  13.808  66.194  1.00  0.00    -0.264 C  
HETATM   21  O   UNL     2     -10.757  12.956  65.785  1.00  0.00    -0.267 OA 
HETATM   22  C   UNL     2     -10.045  15.296  65.950  1.00  0.00    -0.334 C  
HETATM   23  H   UNL     2     -10.947  13.055  64.860  1.00  0.00     0.000 HD 
HETATM   24  O   UNL     2      -9.347  16.121  66.598  1.00  0.00    -0.213 OA 
HETATM   25  O   UNL     2     -11.014  15.441  65.158  1.00  0.00    -0.374 OA 
ENDBRANCH  17  20
ENDBRANCH  14  17
ENDBRANCH  11  14
ENDBRANCH   8  11
ENDBRANCH   5   8
BRANCH   6  26
HETATM   26  C   UNL     3      -9.043   3.450  71.633  1.00  0.00    -0.110 C  
HETATM   27  H   UNL     3     -10.887   3.911  71.892  1.00  0.00     0.000 HD 
HETATM   28  O   UNL     3     -10.256   3.388  72.371  1.00  0.00    -0.162 OA 
BRANCH  26  29
HETATM   29  C   UNL     3      -8.544   4.900  71.392  1.00  0.00    -0.124 C  
HETATM   30  O   UNL     3      -7.963   5.431  72.663  1.00  0.00    -0.101 OA 
HETATM   31  H   UNL     3      -7.658   6.319  72.515  1.00  0.00     0.000 HD 
BRANCH  29  32
HETATM   32  C   UNL     3      -7.355   5.008  70.413  1.00  0.00    -0.055 C  
HETATM   33  H   UNL     3      -5.478   5.583  70.570  1.00  0.00     0.000 HD 
HETATM   34  O   UNL     3      -6.210   5.517  71.172  1.00  0.00    -0.031 OA 
BRANCH  32  35
HETATM   35  C   UNL     3      -7.445   5.517  68.967  1.00  0.00    -0.082 C  
HETATM   36  H   UNL     3      -7.429   4.679  67.224  1.00  0.00     0.000 HD 
HETATM   37  O   UNL     3      -7.373   4.364  68.119  1.00  0.00    -0.063 OA 
BRANCH  35  38
HETATM   38  C   UNL     3      -8.633   6.411  68.628  1.00  0.00    -0.123 C  
HETATM   39  C   UNL     3      -8.571   6.863  67.145  1.00  0.00    -0.121 C  
HETATM   40  O   UNL     3      -8.651   7.584  69.465  1.00  0.00    -0.132 OA 
HETATM   41  O   UNL     3      -7.628   6.370  66.450  1.00  0.00    -0.087 OA 
HETATM   42  O   UNL     3      -9.324   7.842  66.881  1.00  0.00    -0.150 OA 
HETATM   43  H   UNL     3      -9.392   8.141  69.254  1.00  0.00     0.000 HD 
ENDBRANCH  35  38
ENDBRANCH  32  35
ENDBRANCH  29  32
ENDBRANCH  26  29
ENDBRANCH   6  26
TORSDOF 10
ENDMDL
MODEL      479
REMARK 921   NORMALIZED FREE ENERGY PREDICTED BY IDOCK:   -2.87 KCAL/MOL
REMARK 922        TOTAL FREE ENERGY PREDICTED BY IDOCK:   -7.04 KCAL/MOL
REMARK 923 INTER-LIGAND FREE ENERGY PREDICTED BY IDOCK:   -7.01 KCAL/MOL
REMARK 924 INTRA-LIGAND FREE ENERGY PREDICTED BY IDOCK:   -0.03 KCAL/MOL
REMARK 927      BINDING AFFINITY PREDICTED BY RF-SCORE:    0.00 PKD
ROOT
HETATM    1 CA   UNL     1     -11.029  12.099  66.889  1.00  0.00    -0.216 Ca 
HETATM    2  O   UNL     2     -10.658   6.384  66.535  1.00  0.00    -0.450 OA 
HETATM    3  O   UNL     3     -11.818  16.553  71.258  1.00  0.00    -0.626 OA 
HETATM    4  H   UNL     2     -11.520   6.156  66.206  1.00  0.00     0.000 HD 
HETATM    5  C   UNL     2     -10.603   7.794  66.747  1.00  0.00    -0.177 C  
HETATM    6  C   UNL     3     -12.548  15.781  70.309  1.00  0.00    -0.187 C  
HETATM    7  H   UNL     3     -12.000  17.478  71.139  1.00  0.00     0.000 HD 
ENDROOT
BRANCH   5   8
HETATM    8  C   UNL     2      -9.203   8.164  67.281  1.00  0.00    -0.138 C  
HETATM    9  O   UNL     2      -8.791   9.367  66.642  1.00  0.00    -0.131 OA 
HETATM   10  H   UNL     2      -7.929   9.596  66.971  1.00  0.00     0.000 HD 
BRANCH   8  11
HETATM   11  C   UNL     2      -9.232   8.415  68.797  1.00  0.00    -0.143 C  
HETATM   12  H   UNL     2     -10.176   9.611  70.108  1.00  0.00     0.000 HD 
HETATM   13  O   UNL     2     -10.158   9.456  69.171  1.00  0.00    -0.181 OA 
BRANCH  11  14
HETATM   14  C   UNL     2      -9.406   7.221  69.767  1.00  0.00    -0.150 C  
HETATM   15  O   UNL     2      -8.775   6.067  69.235  1.00  0.00    -0.116 OA 
HETATM   16  H   UNL     2      -8.881   5.334  69.831  1.00  0.00     0.000 HD 
BRANCH  14  17
HETATM   17  C   UNL     2     -10.801   6.979  70.374  1.00  0.00    -0.254 C  
HETATM   18  H   UNL     2     -12.392   5.984  69.833  1.00  0.00     0.000 HD 
HETATM   19  O   UNL     2     -11.531   6.133  69.459  1.00  0.00    -0.429 OA 
BRANCH  17  20
HETATM   20  C   UNL     2     -10.825   6.427  71.799  1.00  0.00    -0.241 C  
HETATM   21  O   UNL     2      -9.758   5.477  72.016  1.00  0.00    -0.157 OA 
HETATM   22  C   UNL     2     -10.657   7.629  72.770  1.00  0.00    -0.325 C  
HETATM   23  H   UNL     2      -9.773   5.134  72.902  1.00  0.00     0.000 HD 
HETATM   24  O   UNL     2     -11.288   8.664  72.425  1.00  0.00    -0.359 OA 
HETATM   25  O   UNL     2      -9.891   7.386  73.740  1.00  0.00    -0.288 OA 
ENDBRANCH  17  20
ENDBRANCH  14  17
ENDBRANCH  11  14
ENDBRANCH   8  11
ENDBRANCH   5   8
BRANCH   6  26
HETATM   26  C   UNL     3     -12.254  14.287  70.503  1.00  0.00    -0.356 C  
HETATM   27  H   UNL     3     -13.331  12.728  70.808  1.00  0.00     0.000 HD 
HETATM   28  O   UNL     3     -13.513  13.652  70.688  1.00  0.00     0.089 OA 
BRANCH  26  29
HETATM   29  C   UNL     3     -11.434  13.692  69.328  1.00  0.00    -0.291 C  
HETATM   30  O   UNL     3     -12.378  13.144  68.305  1.00  0.00    -0.130 OA 
HETATM   31  H   UNL     3     -11.876  12.779  67.586  1.00  0.00     0.000 HD 
BRANCH  29  32
HETATM   32  C   UNL     3     -10.637  14.736  68.517  1.00  0.00    -0.248 C  
HETATM   33  H   UNL     3      -9.447  14.661  66.949  1.00  0.00     0.000 HD 
HETATM   34  O   UNL     3      -9.938  14.018  67.448  1.00  0.00    -0.238 OA 
BRANCH  32  35
HETATM   35  C   UNL     3      -9.852  15.911  69.121  1.00  0.00    -0.247 C  
HETATM   36  H   UNL     3      -8.435  16.074  70.427  1.00  0.00     0.000 HD 
HETATM   37  O   UNL     3      -8.921  15.348  70.054  1.00  0.00    -0.066 OA 
BRANCH  35  38
HETATM   38  C   UNL     3      -9.181  16.864  68.138  1.00  0.00    -0.234 C  
HETATM   39  C   UNL     3      -7.731  16.405  67.835  1.00  0.00    -0.152 C  
HETATM   40  O   UNL     3      -9.138  18.204  68.667  1.00  0.00    -0.308 OA 
HETATM   41  O   UNL     3      -7.371  15.306  68.363  1.00  0.00    -0.109 OA 
HETATM   42  O   UNL     3      -7.018  17.297  67.296  1.00  0.00    -0.152 OA 
HETATM   43  H   UNL     3      -8.720  18.798  68.055  1.00  0.00     0.000 HD 
ENDBRANCH  35  38
ENDBRANCH  32  35
ENDBRANCH  29  32
ENDBRANCH  26  29
ENDBRANCH   6  26
TORSDOF 10
ENDMDL
MODEL      480
REMARK 921   NORMALIZED FREE ENERGY PREDICTED BY IDOCK:   -2.83 KCAL/MOL
REMARK 922        TOTAL FREE ENERGY PREDICTED BY IDOCK:   -6.99 KCAL/MOL
REMARK 923 INTER-LIGAND FREE ENERGY PREDICTED BY IDOCK:   -5.48 KCAL/MOL
REMARK 924 INTRA-LIGAND FREE ENERGY PREDICTED BY IDOCK:   -1.51 KCAL/MOL
REMARK 927      BINDING AFFINITY PREDICTED BY RF-SCORE:    0.00 PKD
ROOT
HETATM    1 CA   UNL     1      -9.451  12.205  66.512  1.00  0.00    -0.186 Ca 
HETATM    2  O   UNL     2      -7.991   8.426  62.449  1.00  0.00    -0.137 OA 
HETATM    3  O   UNL     3     -12.412  12.320  72.060  1.00  0.00     0.081 OA 
HETATM    4  H   UNL     2      -8.641   8.604  61.779  1.00  0.00     0.000 HD 
HETATM    5  C   UNL     2      -8.257   9.252  63.581  1.00  0.00    -0.166 C  
HETATM    6  C   UNL     3     -12.638  12.541  70.670  1.00  0.00    -0.155 C  
HETATM    7  H   UNL     3     -12.702  13.071  72.563  1.00  0.00     0.000 HD 
ENDROOT
BRANCH   5   8
HETATM    8  C   UNL     2      -7.201   8.963  64.670  1.00  0.00    -0.096 C  
HETATM    9  O   UNL     2      -6.158   9.922  64.540  1.00  0.00    -0.096 OA 
HETATM   10  H   UNL     2      -5.508   9.744  65.210  1.00  0.00     0.000 HD 
BRANCH   8  11
HETATM   11  C   UNL     2      -7.801   9.098  66.079  1.00  0.00    -0.102 C  
HETATM   12  H   UNL     2      -9.141  10.244  67.042  1.00  0.00     0.000 HD 
HETATM   13  O   UNL     2      -8.770  10.160  66.171  1.00  0.00    -0.138 OA 
BRANCH  11  14
HETATM   14  C   UNL     2      -8.363   7.845  66.794  1.00  0.00    -0.120 C  
HETATM   15  O   UNL     2      -9.145   7.080  65.892  1.00  0.00    -0.315 OA 
HETATM   16  H   UNL     2      -9.490   6.311  66.331  1.00  0.00     0.000 HD 
BRANCH  14  17
HETATM   17  C   UNL     2      -8.977   8.027  68.195  1.00  0.00    -0.135 C  
HETATM   18  H   UNL     2     -10.611   7.426  69.080  1.00  0.00     0.000 HD 
HETATM   19  O   UNL     2     -10.233   7.313  68.215  1.00  0.00    -0.168 OA 
BRANCH  17  20
HETATM   20  C   UNL     2      -8.084   7.637  69.373  1.00  0.00    -0.127 C  
HETATM   21  O   UNL     2      -7.005   6.772  68.955  1.00  0.00    -0.076 OA 
HETATM   22  C   UNL     2      -7.499   8.947  69.971  1.00  0.00    -0.057 C  
HETATM   23  H   UNL     2      -6.450   6.529  69.687  1.00  0.00     0.000 HD 
HETATM   24  O   UNL     2      -8.318   9.903  70.019  1.00  0.00    -0.186 OA 
HETATM   25  O   UNL     2      -6.284   8.852  70.292  1.00  0.00    -0.036 OA 
ENDBRANCH  17  20
ENDBRANCH  14  17
ENDBRANCH  11  14
ENDBRANCH   8  11
ENDBRANCH   5   8
BRANCH   6  26
HETATM   26  C   UNL     3     -12.169  11.327  69.857  1.00  0.00    -0.288 C  
HETATM   27  H   UNL     3     -13.053   9.864  68.983  1.00  0.00     0.000 HD 
HETATM   28  O   UNL     3     -13.343  10.616  69.486  1.00  0.00     0.251 OA 
BRANCH  26  29
HETATM   29  C   UNL     3     -11.291  11.735  68.645  1.00  0.00    -0.270 C  
HETATM   30  O   UNL     3     -11.110  10.547  67.754  1.00  0.00    -0.290 OA 
HETATM   31  H   UNL     3     -10.572  10.797  67.012  1.00  0.00     0.000 HD 
BRANCH  29  32
HETATM   32  C   UNL     3     -11.952  12.760  67.698  1.00  0.00    -0.273 C  
HETATM   33  H   UNL     3     -12.244  12.865  65.753  1.00  0.00     0.000 HD 
HETATM   34  O   UNL     3     -11.837  12.234  66.336  1.00  0.00    -0.529 OA 
BRANCH  32  35
HETATM   35  C   UNL     3     -11.811  14.286  67.812  1.00  0.00    -0.379 C  
HETATM   36  H   UNL     3     -12.328  15.607  69.127  1.00  0.00     0.000 HD 
HETATM   37  O   UNL     3     -12.416  14.663  69.056  1.00  0.00    -0.120 OA 
BRANCH  35  38
HETATM   38  C   UNL     3     -10.406  14.858  67.655  1.00  0.00    -0.242 C  
HETATM   39  C   UNL     3     -10.183  15.368  66.207  1.00  0.00    -0.290 C  
HETATM   40  O   UNL     3      -9.408  13.861  67.950  1.00  0.00    -0.194 OA 
HETATM   41  O   UNL     3     -11.190  15.311  65.433  1.00  0.00    -0.341 OA 
HETATM   42  O   UNL     3      -8.969  15.554  65.916  1.00  0.00    -0.303 OA 
HETATM   43  H   UNL     3      -8.533  14.217  67.852  1.00  0.00     0.000 HD 
ENDBRANCH  35  38
ENDBRANCH  32  35
ENDBRANCH  29  32
ENDBRANCH  26  29
ENDBRANCH   6  26
TORSDOF 10
ENDMDL
MODEL      481
REMARK 921   NORMALIZED FREE ENERGY PREDICTED BY IDOCK:   -2.77 KCAL/MOL
REMARK 922        TOTAL FREE ENERGY PREDICTED BY IDOCK:   -6.88 KCAL/MOL
REMARK 923 INTER-LIGAND FREE ENERGY PREDICTED BY IDOCK:   -6.17 KCAL/MOL
REMARK 924 INTRA-LIGAND FREE ENERGY PREDICTED BY IDOCK:   -0.71 KCAL/MOL
REMARK 927      BINDING AFFINITY PREDICTED BY RF-SCORE:    0.00 PKD
ROOT
HETATM    1 CA   UNL     1     -11.830   6.834  68.173  1.00  0.00    -0.510 Ca 
HETATM    2  O   UNL     2      -9.404   2.891  71.562  1.00  0.00    -0.106 OA 
HETATM    3  O   UNL     3     -10.832  12.749  66.284  1.00  0.00    -0.269 OA 
HETATM    4  H   UNL     2      -9.960   2.931  72.332  1.00  0.00     0.000 HD 
HETATM    5  C   UNL     2      -9.838   3.877  70.627  1.00  0.00    -0.122 C  
HETATM    6  C   UNL     3     -11.560  11.995  67.249  1.00  0.00    -0.313 C  
HETATM    7  H   UNL     3     -11.417  13.329  65.812  1.00  0.00     0.000 HD 
ENDROOT
BRANCH   5   8
HETATM    8  C   UNL     2      -8.935   3.812  69.377  1.00  0.00    -0.115 C  
HETATM    9  O   UNL     2      -9.762   3.559  68.247  1.00  0.00    -0.130 OA 
HETATM   10  H   UNL     2      -9.206   3.518  67.477  1.00  0.00     0.000 HD 
BRANCH   8  11
HETATM   11  C   UNL     2      -8.206   5.145  69.145  1.00  0.00    -0.084 C  
HETATM   12  H   UNL     2      -7.388   6.624  70.232  1.00  0.00     0.000 HD 
HETATM   13  O   UNL     2      -7.838   5.800  70.376  1.00  0.00    -0.098 OA 
BRANCH  11  14
HETATM   14  C   UNL     2      -7.003   5.200  68.172  1.00  0.00    -0.061 C  
HETATM   15  O   UNL     2      -5.795   5.353  68.900  1.00  0.00    -0.017 OA 
HETATM   16  H   UNL     2      -5.057   5.387  68.303  1.00  0.00     0.000 HD 
BRANCH  14  17
HETATM   17  C   UNL     2      -7.126   6.088  66.919  1.00  0.00    -0.070 C  
HETATM   18  H   UNL     2      -5.943   6.570  65.442  1.00  0.00     0.000 HD 
HETATM   19  O   UNL     2      -5.866   6.022  66.215  1.00  0.00    -0.022 OA 
BRANCH  17  20
HETATM   20  C   UNL     2      -8.307   5.786  65.998  1.00  0.00    -0.126 C  
HETATM   21  O   UNL     2      -8.617   4.375  65.981  1.00  0.00    -0.113 OA 
HETATM   22  C   UNL     2      -9.532   6.581  66.532  1.00  0.00    -0.154 C  
HETATM   23  H   UNL     2      -9.352   4.187  65.408  1.00  0.00     0.000 HD 
HETATM   24  O   UNL     2      -9.258   7.742  66.937  1.00  0.00    -0.138 OA 
HETATM   25  O   UNL     2     -10.608   5.925  66.499  1.00  0.00    -0.243 OA 
ENDBRANCH  17  20
ENDBRANCH  14  17
ENDBRANCH  11  14
ENDBRANCH   8  11
ENDBRANCH   5   8
BRANCH   6  26
HETATM   26  C   UNL     3     -10.614  11.058  68.013  1.00  0.00    -0.204 C  
HETATM   27  H   UNL     3      -9.187  11.312  69.271  1.00  0.00     0.000 HD 
HETATM   28  O   UNL     3      -9.772  11.892  68.798  1.00  0.00    -0.153 OA 
BRANCH  26  29
HETATM   29  C   UNL     3     -11.382  10.000  68.849  1.00  0.00    -0.068 C  
HETATM   30  O   UNL     3     -11.387   8.703  68.106  1.00  0.00    -0.165 OA 
HETATM   31  H   UNL     3     -11.858   8.055  68.618  1.00  0.00     0.000 HD 
BRANCH  29  32
HETATM   32  C   UNL     3     -10.692   9.618  70.177  1.00  0.00    -0.275 C  
HETATM   33  H   UNL     3      -9.277   8.347  70.689  1.00  0.00     0.000 HD 
HETATM   34  O   UNL     3      -9.702   8.581  69.872  1.00  0.00    -0.176 OA 
BRANCH  32  35
HETATM   35  C   UNL     3     -11.407   9.447  71.526  1.00  0.00    -0.394 C  
HETATM   36  H   UNL     3     -12.820  10.393  72.448  1.00  0.00     0.000 HD 
HETATM   37  O   UNL     3     -12.377  10.499  71.614  1.00  0.00    -0.362 OA 
BRANCH  35  38
HETATM   38  C   UNL     3     -12.011   8.077  71.813  1.00  0.00    -0.301 C  
HETATM   39  C   UNL     3     -13.526   8.067  71.481  1.00  0.00    -0.289 C  
HETATM   40  O   UNL     3     -11.841   7.719  73.199  1.00  0.00    -0.645 OA 
HETATM   41  O   UNL     3     -13.991   9.131  70.963  1.00  0.00    -0.181 OA 
HETATM   42  O   UNL     3     -14.149   7.091  71.984  1.00  0.00    -0.264 OA 
HETATM   43  H   UNL     3     -12.218   6.865  73.378  1.00  0.00     0.000 HD 
ENDBRANCH  35  38
ENDBRANCH  32  35
ENDBRANCH  29  32
ENDBRANCH  26  29
ENDBRANCH   6  26
TORSDOF 10
ENDMDL
MODEL      482
REMARK 921   NORMALIZED FREE ENERGY PREDICTED BY IDOCK:   -2.71 KCAL/MOL
REMARK 922        TOTAL FREE ENERGY PREDICTED BY IDOCK:   -6.79 KCAL/MOL
REMARK 923 INTER-LIGAND FREE ENERGY PREDICTED BY IDOCK:   -5.37 KCAL/MOL
REMARK 924 INTRA-LIGAND FREE ENERGY PREDICTED BY IDOCK:   -1.42 KCAL/MOL
REMARK 927      BINDING AFFINITY PREDICTED BY RF-SCORE:    0.00 PKD
ROOT
HETATM    1 CA   UNL     1     -11.512  12.491  64.864  1.00  0.00    -0.285 Ca 
HETATM    2  O   UNL     2     -10.639  17.597  67.332  1.00  0.00    -0.356 OA 
HETATM    3  O   UNL     3      -8.456   7.075  63.927  1.00  0.00    -0.347 OA 
HETATM    4  H   UNL     2     -10.472  18.149  66.576  1.00  0.00     0.000 HD 
HETATM    5  C   UNL     2     -10.814  16.252  66.890  1.00  0.00    -0.151 C  
HETATM    6  C   UNL     3      -8.753   8.312  63.286  1.00  0.00     0.316 C  
HETATM    7  H   UNL     3      -8.693   6.348  63.363  1.00  0.00     0.000 HD 
ENDROOT
BRANCH   5   8
HETATM    8  C   UNL     2     -11.085  15.355  68.117  1.00  0.00    -0.309 C  
HETATM    9  O   UNL     2     -10.890  14.000  67.726  1.00  0.00    -0.244 OA 
HETATM   10  H   UNL     2     -11.057  13.448  68.481  1.00  0.00     0.000 HD 
BRANCH   8  11
HETATM   11  C   UNL     2     -10.108  15.666  69.263  1.00  0.00    -0.258 C  
HETATM   12  H   UNL     2     -10.060  15.568  71.269  1.00  0.00     0.000 HD 
HETATM   13  O   UNL     2     -10.663  15.376  70.561  1.00  0.00    -0.311 OA 
BRANCH  11  14
HETATM   14  C   UNL     2      -8.661  15.117  69.204  1.00  0.00    -0.216 C  
HETATM   15  O   UNL     2      -8.112  15.054  70.510  1.00  0.00     0.077 OA 
HETATM   16  H   UNL     2      -7.224  14.718  70.474  1.00  0.00     0.000 HD 
BRANCH  14  17
HETATM   17  C   UNL     2      -7.717  15.684  68.127  1.00  0.00    -0.124 C  
HETATM   18  H   UNL     2      -6.626  17.294  67.950  1.00  0.00     0.000 HD 
HETATM   19  O   UNL     2      -7.209  16.945  68.615  1.00  0.00    -0.191 OA 
BRANCH  17  20
HETATM   20  C   UNL     2      -6.590  14.757  67.671  1.00  0.00    -0.158 C  
HETATM   21  O   UNL     2      -5.553  14.653  68.671  1.00  0.00    -0.085 OA 
HETATM   22  C   UNL     2      -7.212  13.355  67.417  1.00  0.00    -0.103 C  
HETATM   23  H   UNL     2      -4.853  14.077  68.387  1.00  0.00     0.000 HD 
HETATM   24  O   UNL     2      -8.342  13.384  66.862  1.00  0.00    -0.125 OA 
HETATM   25  O   UNL     2      -6.493  12.407  67.831  1.00  0.00    -0.072 OA 
ENDBRANCH  17  20
ENDBRANCH  14  17
ENDBRANCH  11  14
ENDBRANCH   8  11
ENDBRANCH   5   8
BRANCH   6  26
HETATM   26  C   UNL     3      -8.370   9.487  64.198  1.00  0.00    -0.172 C  
HETATM   27  H   UNL     3      -9.267  11.068  64.812  1.00  0.00     0.000 HD 
HETATM   28  O   UNL     3      -9.504  10.342  64.247  1.00  0.00    -0.262 OA 
BRANCH  26  29
HETATM   29  C   UNL     3      -7.896   9.014  65.597  1.00  0.00    -0.102 C  
HETATM   30  O   UNL     3      -6.935  10.018  66.150  1.00  0.00    -0.096 OA 
HETATM   31  H   UNL     3      -6.644   9.729  67.007  1.00  0.00     0.000 HD 
BRANCH  29  32
HETATM   32  C   UNL     3      -9.006   8.994  66.670  1.00  0.00    -0.135 C  
HETATM   33  H   UNL     3     -10.645   7.937  66.950  1.00  0.00     0.000 HD 
HETATM   34  O   UNL     3      -9.962   7.950  66.290  1.00  0.00    -0.166 OA 
BRANCH  32  35
HETATM   35  C   UNL     3      -9.637  10.240  67.311  1.00  0.00    -0.159 C  
HETATM   36  H   UNL     3     -11.440  10.922  67.473  1.00  0.00     0.000 HD 
HETATM   37  O   UNL     3     -11.049  10.152  67.077  1.00  0.00    -0.167 OA 
BRANCH  35  38
HETATM   38  C   UNL     3      -9.310  10.496  68.778  1.00  0.00    -0.180 C  
HETATM   39  C   UNL     3     -10.150   9.570  69.696  1.00  0.00    -0.212 C  
HETATM   40  O   UNL     3      -9.582  11.866  69.135  1.00  0.00    -0.397 OA 
HETATM   41  O   UNL     3     -10.886   8.718  69.106  1.00  0.00    -0.173 OA 
HETATM   42  O   UNL     3     -10.173   9.936  70.903  1.00  0.00    -0.210 OA 
HETATM   43  H   UNL     3      -9.377  12.025  70.049  1.00  0.00     0.000 HD 
ENDBRANCH  35  38
ENDBRANCH  32  35
ENDBRANCH  29  32
ENDBRANCH  26  29
ENDBRANCH   6  26
TORSDOF 10
ENDMDL
MODEL      483
REMARK 921   NORMALIZED FREE ENERGY PREDICTED BY IDOCK:   -2.45 KCAL/MOL
REMARK 922        TOTAL FREE ENERGY PREDICTED BY IDOCK:   -6.39 KCAL/MOL
REMARK 923 INTER-LIGAND FREE ENERGY PREDICTED BY IDOCK:   -7.63 KCAL/MOL
REMARK 924 INTRA-LIGAND FREE ENERGY PREDICTED BY IDOCK:    1.24 KCAL/MOL
REMARK 927      BINDING AFFINITY PREDICTED BY RF-SCORE:    0.00 PKD
ROOT
HETATM    1 CA   UNL     1      -9.795  11.621  66.228  1.00  0.00    -0.191 Ca 
HETATM    2  O   UNL     2     -13.278  15.731  64.255  1.00  0.00     0.097 OA 
HETATM    3  O   UNL     3      -5.441   7.631  64.066  1.00  0.00    -0.039 OA 
HETATM    4  H   UNL     2     -14.113  15.278  64.228  1.00  0.00     0.000 HD 
HETATM    5  C   UNL     2     -12.269  14.813  64.670  1.00  0.00    -0.393 C  
HETATM    6  C   UNL     3      -6.827   7.701  64.388  1.00  0.00    -0.058 C  
HETATM    7  H   UNL     3      -5.038   6.894  64.509  1.00  0.00     0.000 HD 
ENDROOT
BRANCH   5   8
HETATM    8  C   UNL     2     -10.912  15.548  64.713  1.00  0.00    -0.399 C  
HETATM    9  O   UNL     2     -11.048  16.768  63.992  1.00  0.00    -1.283 OA 
HETATM   10  H   UNL     2     -10.212  17.221  64.019  1.00  0.00     0.000 HD 
BRANCH   8  11
HETATM   11  C   UNL     2     -10.509  15.890  66.157  1.00  0.00    -0.326 C  
HETATM   12  H   UNL     2      -9.359  15.132  67.619  1.00  0.00     0.000 HD 
HETATM   13  O   UNL     2      -9.608  14.921  66.727  1.00  0.00    -0.230 OA 
BRANCH  11  14
HETATM   14  C   UNL     2      -9.989  17.311  66.489  1.00  0.00    -0.305 C  
HETATM   15  O   UNL     2      -8.829  17.595  65.724  1.00  0.00    -0.508 OA 
HETATM   16  H   UNL     2      -8.510  18.467  65.928  1.00  0.00     0.000 HD 
BRANCH  14  17
HETATM   17  C   UNL     2      -9.909  17.722  67.971  1.00  0.00    -0.317 C  
HETATM   18  H   UNL     2      -9.377  16.835  69.628  1.00  0.00     0.000 HD 
HETATM   19  O   UNL     2      -9.426  16.581  68.713  1.00  0.00    -0.229 OA 
BRANCH  17  20
HETATM   20  C   UNL     2      -9.096  18.981  68.274  1.00  0.00    -0.327 C  
HETATM   21  O   UNL     2      -9.591  19.661  69.448  1.00  0.00    -0.296 OA 
HETATM   22  C   UNL     2      -7.624  18.540  68.510  1.00  0.00    -0.306 C  
HETATM   23  H   UNL     2      -9.085  20.443  69.636  1.00  0.00     0.000 HD 
HETATM   24  O   UNL     2      -7.223  17.637  67.728  1.00  0.00    -0.184 OA 
HETATM   25  O   UNL     2      -7.068  19.143  69.467  1.00  0.00    -0.255 OA 
ENDBRANCH  17  20
ENDBRANCH  14  17
ENDBRANCH  11  14
ENDBRANCH   8  11
ENDBRANCH   5   8
BRANCH   6  26
HETATM   26  C   UNL     3      -7.478   8.892  63.672  1.00  0.00    -0.105 C  
HETATM   27  H   UNL     3      -8.594   9.091  62.123  1.00  0.00     0.000 HD 
HETATM   28  O   UNL     3      -8.191   8.354  62.566  1.00  0.00    -0.171 OA 
BRANCH  26  29
HETATM   29  C   UNL     3      -8.368   9.735  64.623  1.00  0.00    -0.162 C  
HETATM   30  O   UNL     3      -9.799   9.351  64.418  1.00  0.00    -0.309 OA 
HETATM   31  H   UNL     3     -10.344   9.868  65.000  1.00  0.00     0.000 HD 
BRANCH  29  32
HETATM   32  C   UNL     3      -8.156   9.435  66.123  1.00  0.00    -0.111 C  
HETATM   33  H   UNL     3      -7.062  10.228  67.555  1.00  0.00     0.000 HD 
HETATM   34  O   UNL     3      -7.192  10.413  66.632  1.00  0.00    -0.102 OA 
BRANCH  32  35
HETATM   35  C   UNL     3      -8.030   8.030  66.733  1.00  0.00    -0.103 C  
HETATM   36  H   UNL     3      -6.804   7.189  67.970  1.00  0.00     0.000 HD 
HETATM   37  O   UNL     3      -6.883   8.057  67.592  1.00  0.00    -0.067 OA 
BRANCH  35  38
HETATM   38  C   UNL     3      -9.265   7.474  67.433  1.00  0.00    -0.132 C  
HETATM   39  C   UNL     3      -9.579   6.041  66.930  1.00  0.00    -0.140 C  
HETATM   40  O   UNL     3     -10.415   8.308  67.191  1.00  0.00    -0.293 OA 
HETATM   41  O   UNL     3      -8.745   5.541  66.111  1.00  0.00    -0.124 OA 
HETATM   42  O   UNL     3     -10.743   5.646  67.216  1.00  0.00    -0.256 OA 
HETATM   43  H   UNL     3     -11.184   7.962  67.627  1.00  0.00     0.000 HD 
ENDBRANCH  35  38
ENDBRANCH  32  35
ENDBRANCH  29  32
ENDBRANCH  26  29
ENDBRANCH   6  26
TORSDOF 10
ENDMDL
MODEL      484
REMARK 921   NORMALIZED FREE ENERGY PREDICTED BY IDOCK:   -2.45 KCAL/MOL
REMARK 922        TOTAL FREE ENERGY PREDICTED BY IDOCK:   -6.38 KCAL/MOL
REMARK 923 INTER-LIGAND FREE ENERGY PREDICTED BY IDOCK:   -5.10 KCAL/MOL
REMARK 924 INTRA-LIGAND FREE ENERGY PREDICTED BY IDOCK:   -1.28 KCAL/MOL
REMARK 927      BINDING AFFINITY PREDICTED BY RF-SCORE:    0.00 PKD
ROOT
HETATM    1 CA   UNL     1      -8.689  11.183  67.807  1.00  0.00    -0.119 Ca 
HETATM    2  O   UNL     2      -5.836   6.217  67.455  1.00  0.00    -0.015 OA 
HETATM    3  O   UNL     3      -7.511  17.291  68.729  1.00  0.00    -0.244 OA 
HETATM    4  H   UNL     2      -6.014   5.832  68.306  1.00  0.00     0.000 HD 
HETATM    5  C   UNL     2      -6.431   7.512  67.400  1.00  0.00    -0.058 C  
HETATM    6  C   UNL     3      -7.904  16.114  69.429  1.00  0.00    -0.126 C  
HETATM    7  H   UNL     3      -8.124  17.996  68.901  1.00  0.00     0.000 HD 
ENDROOT
BRANCH   5   8
HETATM    8  C   UNL     2      -6.141   8.136  66.018  1.00  0.00    -0.041 C  
HETATM    9  O   UNL     2      -5.213   7.297  65.340  1.00  0.00    -0.027 OA 
HETATM   10  H   UNL     2      -5.035   7.681  64.489  1.00  0.00     0.000 HD 
BRANCH   8  11
HETATM   11  C   UNL     2      -7.418   8.221  65.166  1.00  0.00    -0.085 C  
HETATM   12  H   UNL     2      -7.928   8.352  63.227  1.00  0.00     0.000 HD 
HETATM   13  O   UNL     2      -7.139   8.299  63.754  1.00  0.00    -0.078 OA 
BRANCH  11  14
HETATM   14  C   UNL     2      -8.560   7.201  65.395  1.00  0.00    -0.032 C  
HETATM   15  O   UNL     2      -9.267   7.520  66.582  1.00  0.00    -0.148 OA 
HETATM   16  H   UNL     2      -9.967   6.893  66.722  1.00  0.00     0.000 HD 
BRANCH  14  17
HETATM   17  C   UNL     2      -8.240   5.705  65.209  1.00  0.00    -0.134 C  
HETATM   18  H   UNL     2      -8.468   4.096  66.292  1.00  0.00     0.000 HD 
HETATM   19  O   UNL     2      -8.665   5.018  66.407  1.00  0.00    -0.114 OA 
BRANCH  17  20
HETATM   20  C   UNL     2      -8.806   5.051  63.949  1.00  0.00    -0.034 C  
HETATM   21  O   UNL     2      -8.864   5.985  62.848  1.00  0.00    -0.341 OA 
HETATM   22  C   UNL     2      -7.872   3.866  63.577  1.00  0.00    -0.078 C  
HETATM   23  H   UNL     2      -9.216   5.578  62.065  1.00  0.00     0.000 HD 
HETATM   24  O   UNL     2      -7.458   3.204  64.566  1.00  0.00    -0.072 OA 
HETATM   25  O   UNL     2      -7.654   3.769  62.339  1.00  0.00    -0.054 OA 
ENDBRANCH  17  20
ENDBRANCH  14  17
ENDBRANCH  11  14
ENDBRANCH   8  11
ENDBRANCH   5   8
BRANCH   6  26
HETATM   26  C   UNL     3      -6.913  14.976  69.150  1.00  0.00    -0.139 C  
HETATM   27  H   UNL     3      -5.887  13.780  70.247  1.00  0.00     0.000 HD 
HETATM   28  O   UNL     3      -6.500  14.485  70.419  1.00  0.00    -0.183 OA 
BRANCH  26  29
HETATM   29  C   UNL     3      -7.518  13.879  68.235  1.00  0.00    -0.118 C  
HETATM   30  O   UNL     3      -8.665  13.232  68.945  1.00  0.00    -0.373 OA 
HETATM   31  H   UNL     3      -9.035  12.560  68.384  1.00  0.00     0.000 HD 
BRANCH  29  32
HETATM   32  C   UNL     3      -8.185  14.419  66.952  1.00  0.00    -0.016 C  
HETATM   33  H   UNL     3      -7.770  15.861  65.675  1.00  0.00     0.000 HD 
HETATM   34  O   UNL     3      -7.360  15.528  66.465  1.00  0.00    -0.021 OA 
BRANCH  32  35
HETATM   35  C   UNL     3      -9.697  14.609  66.754  1.00  0.00    -0.257 C  
HETATM   36  H   UNL     3     -10.812  16.028  66.060  1.00  0.00     0.000 HD 
HETATM   37  O   UNL     3      -9.877  15.911  66.183  1.00  0.00    -0.271 OA 
BRANCH  35  38
HETATM   38  C   UNL     3     -10.426  13.526  65.967  1.00  0.00    -0.299 C  
HETATM   39  C   UNL     3     -11.587  12.928  66.804  1.00  0.00    -0.360 C  
HETATM   40  O   UNL     3      -9.526  12.460  65.602  1.00  0.00    -0.410 OA 
HETATM   41  O   UNL     3     -11.796  13.470  67.935  1.00  0.00    -0.339 OA 
HETATM   42  O   UNL     3     -12.023  11.831  66.358  1.00  0.00    -0.515 OA 
HETATM   43  H   UNL     3      -9.981  11.785  65.111  1.00  0.00     0.000 HD 
ENDBRANCH  35  38
ENDBRANCH  32  35
ENDBRANCH  29  32
ENDBRANCH  26  29
ENDBRANCH   6  26
TORSDOF 10
ENDMDL
MODEL      485
REMARK 921   NORMALIZED FREE ENERGY PREDICTED BY IDOCK:   -2.34 KCAL/MOL
REMARK 922        TOTAL FREE ENERGY PREDICTED BY IDOCK:   -6.20 KCAL/MOL
REMARK 923 INTER-LIGAND FREE ENERGY PREDICTED BY IDOCK:   -6.76 KCAL/MOL
REMARK 924 INTRA-LIGAND FREE ENERGY PREDICTED BY IDOCK:    0.56 KCAL/MOL
REMARK 927      BINDING AFFINITY PREDICTED BY RF-SCORE:    0.00 PKD
ROOT
HETATM    1 CA   UNL     1      -6.580   5.574  64.851  1.00  0.00    -0.031 Ca 
HETATM    2  O   UNL     2      -5.472  11.200  64.639  1.00  0.00    -0.480 OA 
HETATM    3  O   UNL     3      -9.807   1.490  68.381  1.00  0.00    -0.255 OA 
HETATM    4  H   UNL     2      -4.588  11.235  64.986  1.00  0.00     0.000 HD 
HETATM    5  C   UNL     2      -5.934   9.851  64.686  1.00  0.00    -0.101 C  
HETATM    6  C   UNL     3      -8.497   2.022  68.208  1.00  0.00    -0.062 C  
HETATM    7  H   UNL     3      -9.781   0.541  68.366  1.00  0.00     0.000 HD 
ENDROOT
BRANCH   5   8
HETATM    8  C   UNL     2      -7.370   9.795  64.123  1.00  0.00    -0.128 C  
HETATM    9  O   UNL     2      -7.527   8.558  63.436  1.00  0.00    -0.102 OA 
HETATM   10  H   UNL     2      -8.411   8.524  63.089  1.00  0.00     0.000 HD 
BRANCH   8  11
HETATM   11  C   UNL     2      -8.414   9.849  65.250  1.00  0.00    -0.150 C  
HETATM   12  H   UNL     2      -8.479   9.691  67.253  1.00  0.00     0.000 HD 
HETATM   13  O   UNL     2      -7.834   9.657  66.556  1.00  0.00    -0.106 OA 
BRANCH  11  14
HETATM   14  C   UNL     2      -9.408  11.035  65.315  1.00  0.00    -0.216 C  
HETATM   15  O   UNL     2      -9.404  11.741  64.085  1.00  0.00    -0.440 OA 
HETATM   16  H   UNL     2     -10.014  12.468  64.125  1.00  0.00     0.000 HD 
BRANCH  14  17
HETATM   17  C   UNL     2      -9.393  11.922  66.575  1.00  0.00    -0.216 C  
HETATM   18  H   UNL     2      -8.003  12.678  67.720  1.00  0.00     0.000 HD 
HETATM   19  O   UNL     2      -8.012  12.131  66.943  1.00  0.00    -0.157 OA 
BRANCH  17  20
HETATM   20  C   UNL     2     -10.158  13.241  66.473  1.00  0.00    -0.275 C  
HETATM   21  O   UNL     2      -9.453  14.200  65.654  1.00  0.00    -0.518 OA 
HETATM   22  C   UNL     2     -11.542  12.932  65.837  1.00  0.00    -0.377 C  
HETATM   23  H   UNL     2      -9.929  15.020  65.592  1.00  0.00     0.000 HD 
HETATM   24  O   UNL     2     -12.071  11.863  66.244  1.00  0.00    -0.535 OA 
HETATM   25  O   UNL     2     -11.908  13.791  64.991  1.00  0.00    -0.337 OA 
ENDBRANCH  17  20
ENDBRANCH  14  17
ENDBRANCH  11  14
ENDBRANCH   8  11
ENDBRANCH   5   8
BRANCH   6  26
HETATM   26  C   UNL     3      -8.539   3.556  68.233  1.00  0.00    -0.093 C  
HETATM   27  H   UNL     3      -9.691   4.887  67.468  1.00  0.00     0.000 HD 
HETATM   28  O   UNL     3      -9.665   3.937  67.453  1.00  0.00    -0.198 OA 
BRANCH  26  29
HETATM   29  C   UNL     3      -8.575   4.121  69.678  1.00  0.00    -0.072 C  
HETATM   30  O   UNL     3      -7.443   5.082  69.852  1.00  0.00    -0.058 OA 
HETATM   31  H   UNL     3      -7.464   5.427  70.737  1.00  0.00     0.000 HD 
BRANCH  29  32
HETATM   32  C   UNL     3      -9.806   5.000  69.985  1.00  0.00    -0.228 C  
HETATM   33  H   UNL     3     -11.068   6.049  68.896  1.00  0.00     0.000 HD 
HETATM   34  O   UNL     3     -10.310   5.509  68.707  1.00  0.00    -0.195 OA 
BRANCH  32  35
HETATM   35  C   UNL     3      -9.916   5.987  71.158  1.00  0.00    -0.186 C  
HETATM   36  H   UNL     3      -9.052   6.158  72.879  1.00  0.00     0.000 HD 
HETATM   37  O   UNL     3      -8.984   5.547  72.154  1.00  0.00    -0.136 OA 
BRANCH  35  38
HETATM   38  C   UNL     3      -9.753   7.466  70.826  1.00  0.00    -0.171 C  
HETATM   39  C   UNL     3     -11.136   8.137  70.624  1.00  0.00    -0.254 C  
HETATM   40  O   UNL     3      -8.977   7.642  69.623  1.00  0.00    -0.140 OA 
HETATM   41  O   UNL     3     -12.150   7.402  70.842  1.00  0.00    -0.307 OA 
HETATM   42  O   UNL     3     -11.078   9.256  70.043  1.00  0.00    -0.235 OA 
HETATM   43  H   UNL     3      -8.875   8.563  69.416  1.00  0.00     0.000 HD 
ENDBRANCH  35  38
ENDBRANCH  32  35
ENDBRANCH  29  32
ENDBRANCH  26  29
ENDBRANCH   6  26
TORSDOF 10
ENDMDL
MODEL      486
REMARK 921   NORMALIZED FREE ENERGY PREDICTED BY IDOCK:   -2.18 KCAL/MOL
REMARK 922        TOTAL FREE ENERGY PREDICTED BY IDOCK:   -5.95 KCAL/MOL
REMARK 923 INTER-LIGAND FREE ENERGY PREDICTED BY IDOCK:   -6.29 KCAL/MOL
REMARK 924 INTRA-LIGAND FREE ENERGY PREDICTED BY IDOCK:    0.34 KCAL/MOL
REMARK 927      BINDING AFFINITY PREDICTED BY RF-SCORE:    0.00 PKD
ROOT
HETATM    1 CA   UNL     1      -9.434  13.162  64.111  1.00  0.00    -0.540 Ca 
HETATM    2  O   UNL     2      -7.372  17.560  67.165  1.00  0.00    -0.176 OA 
HETATM    3  O   UNL     3      -8.228   7.067  63.135  1.00  0.00    -0.303 OA 
HETATM    4  H   UNL     2      -6.901  18.050  66.502  1.00  0.00     0.000 HD 
HETATM    5  C   UNL     2      -7.902  16.374  66.574  1.00  0.00    -0.288 C  
HETATM    6  C   UNL     3      -7.980   8.355  62.579  1.00  0.00    -0.153 C  
HETATM    7  H   UNL     3      -8.588   6.488  62.474  1.00  0.00     0.000 HD 
ENDROOT
BRANCH   5   8
HETATM    8  C   UNL     2      -8.667  15.578  67.652  1.00  0.00    -0.175 C  
HETATM    9  O   UNL     2      -8.488  16.239  68.900  1.00  0.00    -0.229 OA 
HETATM   10  H   UNL     2      -8.960  15.749  69.564  1.00  0.00     0.000 HD 
BRANCH   8  11
HETATM   11  C   UNL     2     -10.174  15.533  67.349  1.00  0.00    -0.255 C  
HETATM   12  H   UNL     2     -11.540  14.212  66.697  1.00  0.00     0.000 HD 
HETATM   13  O   UNL     2     -10.609  14.240  66.885  1.00  0.00    -0.271 OA 
BRANCH  11  14
HETATM   14  C   UNL     2     -11.182  16.051  68.404  1.00  0.00    -0.364 C  
HETATM   15  O   UNL     2     -11.079  17.460  68.524  1.00  0.00    -0.207 OA 
HETATM   16  H   UNL     2     -11.698  17.778  69.172  1.00  0.00     0.000 HD 
BRANCH  14  17
HETATM   17  C   UNL     2     -11.287  15.289  69.738  1.00  0.00    -0.289 C  
HETATM   18  H   UNL     2     -11.302  15.795  71.625  1.00  0.00     0.000 HD 
HETATM   19  O   UNL     2     -11.238  16.266  70.801  1.00  0.00    -0.366 OA 
BRANCH  17  20
HETATM   20  C   UNL     2     -12.487  14.353  69.883  1.00  0.00    -0.261 C  
HETATM   21  O   UNL     2     -12.079  12.968  69.903  1.00  0.00    -0.313 OA 
HETATM   22  C   UNL     2     -13.197  14.706  71.220  1.00  0.00    -0.369 C  
HETATM   23  H   UNL     2     -12.825  12.387  69.993  1.00  0.00     0.000 HD 
HETATM   24  O   UNL     2     -13.257  15.941  71.463  1.00  0.00    -0.448 OA 
HETATM   25  O   UNL     2     -13.580  13.694  71.866  1.00  0.00    -0.392 OA 
ENDBRANCH  17  20
ENDBRANCH  14  17
ENDBRANCH  11  14
ENDBRANCH   8  11
ENDBRANCH   5   8
BRANCH   6  26
HETATM   26  C   UNL     3      -7.397   9.291  63.648  1.00  0.00    -0.101 C  
HETATM   27  H   UNL     3      -6.720  11.087  63.646  1.00  0.00     0.000 HD 
HETATM   28  O   UNL     3      -7.080  10.508  62.985  1.00  0.00    -0.112 OA 
BRANCH  26  29
HETATM   29  C   UNL     3      -8.359   9.480  64.851  1.00  0.00    -0.146 C  
HETATM   30  O   UNL     3      -9.449   8.460  64.767  1.00  0.00     0.024 OA 
HETATM   31  H   UNL     3     -10.037   8.576  65.504  1.00  0.00     0.000 HD 
BRANCH  29  32
HETATM   32  C   UNL     3      -7.724   9.175  66.225  1.00  0.00    -0.096 C  
HETATM   33  H   UNL     3      -7.167  10.265  67.768  1.00  0.00     0.000 HD 
HETATM   34  O   UNL     3      -7.558  10.453  66.923  1.00  0.00    -0.102 OA 
BRANCH  32  35
HETATM   35  C   UNL     3      -6.599   8.158  66.472  1.00  0.00    -0.055 C  
HETATM   36  H   UNL     3      -4.686   8.148  66.190  1.00  0.00     0.000 HD 
HETATM   37  O   UNL     3      -5.381   8.777  66.037  1.00  0.00    -0.036 OA 
BRANCH  35  38
HETATM   38  C   UNL     3      -6.487   7.588  67.882  1.00  0.00    -0.054 C  
HETATM   39  C   UNL     3      -6.364   6.043  67.839  1.00  0.00    -0.037 C  
HETATM   40  O   UNL     3      -7.643   7.936  68.670  1.00  0.00    -0.097 OA 
HETATM   41  O   UNL     3      -6.292   5.520  66.682  1.00  0.00    -0.033 OA 
HETATM   42  O   UNL     3      -6.588   5.485  68.949  1.00  0.00    -0.047 OA 
HETATM   43  H   UNL     3      -7.573   7.581  69.549  1.00  0.00     0.000 HD 
ENDBRANCH  35  38
ENDBRANCH  32  35
ENDBRANCH  29  32
ENDBRANCH  26  29
ENDBRANCH   6  26
TORSDOF 10
ENDMDL
MODEL      487
REMARK 921   NORMALIZED FREE ENERGY PREDICTED BY IDOCK:   -2.18 KCAL/MOL
REMARK 922        TOTAL FREE ENERGY PREDICTED BY IDOCK:   -5.95 KCAL/MOL
REMARK 923 INTER-LIGAND FREE ENERGY PREDICTED BY IDOCK:   -5.22 KCAL/MOL
REMARK 924 INTRA-LIGAND FREE ENERGY PREDICTED BY IDOCK:   -0.73 KCAL/MOL
REMARK 927      BINDING AFFINITY PREDICTED BY RF-SCORE:    0.00 PKD
ROOT
HETATM    1 CA   UNL     1     -10.170   8.330  68.221  1.00  0.00    -0.163 Ca 
HETATM    2  O   UNL     2      -8.123  10.308  63.239  1.00  0.00    -0.155 OA 
HETATM    3  O   UNL     3      -9.188   3.572  72.214  1.00  0.00    -0.102 OA 
HETATM    4  H   UNL     2      -8.798  10.031  62.631  1.00  0.00     0.000 HD 
HETATM    5  C   UNL     2      -8.451   9.829  64.542  1.00  0.00    -0.176 C  
HETATM    6  C   UNL     3     -10.022   3.960  71.127  1.00  0.00    -0.099 C  
HETATM    7  H   UNL     3      -9.718   3.296  72.953  1.00  0.00     0.000 HD 
ENDROOT
BRANCH   5   8
HETATM    8  C   UNL     2      -7.355  10.280  65.531  1.00  0.00    -0.149 C  
HETATM    9  O   UNL     2      -7.961  11.113  66.513  1.00  0.00    -0.153 OA 
HETATM   10  H   UNL     2      -7.286  11.391  67.121  1.00  0.00     0.000 HD 
BRANCH   8  11
HETATM   11  C   UNL     2      -6.722   9.078  66.251  1.00  0.00    -0.070 C  
HETATM   12  H   UNL     2      -5.826   8.672  68.003  1.00  0.00     0.000 HD 
HETATM   13  O   UNL     2      -6.217   9.415  67.558  1.00  0.00    -0.056 OA 
BRANCH  11  14
HETATM   14  C   UNL     2      -7.506   7.746  66.347  1.00  0.00    -0.084 C  
HETATM   15  O   UNL     2      -7.249   7.119  67.593  1.00  0.00    -0.085 OA 
HETATM   16  H   UNL     2      -7.730   6.302  67.652  1.00  0.00     0.000 HD 
BRANCH  14  17
HETATM   17  C   UNL     2      -7.484   6.804  65.128  1.00  0.00    -0.087 C  
HETATM   18  H   UNL     2      -6.093   5.857  64.135  1.00  0.00     0.000 HD 
HETATM   19  O   UNL     2      -6.107   6.438  64.888  1.00  0.00    -0.029 OA 
BRANCH  17  20
HETATM   20  C   UNL     2      -8.390   5.577  65.213  1.00  0.00    -0.144 C  
HETATM   21  O   UNL     2      -9.074   5.336  63.963  1.00  0.00    -0.351 OA 
HETATM   22  C   UNL     2      -7.493   4.355  65.558  1.00  0.00    -0.081 C  
HETATM   23  H   UNL     2      -9.637   4.574  64.016  1.00  0.00     0.000 HD 
HETATM   24  O   UNL     2      -6.590   4.600  66.402  1.00  0.00    -0.043 OA 
HETATM   25  O   UNL     2      -7.797   3.314  64.917  1.00  0.00    -0.080 OA 
ENDBRANCH  17  20
ENDBRANCH  14  17
ENDBRANCH  11  14
ENDBRANCH   8  11
ENDBRANCH   5   8
BRANCH   6  26
HETATM   26  C   UNL     3      -9.165   4.405  69.934  1.00  0.00    -0.133 C  
HETATM   27  H   UNL     3      -8.969   3.817  68.117  1.00  0.00     0.000 HD 
HETATM   28  O   UNL     3      -9.499   3.541  68.856  1.00  0.00    -0.164 OA 
BRANCH  26  29
HETATM   29  C   UNL     3      -9.359   5.907  69.598  1.00  0.00    -0.140 C  
HETATM   30  O   UNL     3      -9.849   6.032  68.191  1.00  0.00    -0.123 OA 
HETATM   31  H   UNL     3      -9.967   6.952  67.986  1.00  0.00     0.000 HD 
BRANCH  29  32
HETATM   32  C   UNL     3     -10.482   6.597  70.402  1.00  0.00    -0.211 C  
HETATM   33  H   UNL     3     -12.420   6.844  70.147  1.00  0.00     0.000 HD 
HETATM   34  O   UNL     3     -11.728   6.420  69.652  1.00  0.00    -0.389 OA 
BRANCH  32  35
HETATM   35  C   UNL     3     -10.352   7.949  71.121  1.00  0.00    -0.200 C  
HETATM   36  H   UNL     3     -11.125   9.704  70.870  1.00  0.00     0.000 HD 
HETATM   37  O   UNL     3     -11.205   8.868  70.425  1.00  0.00    -0.252 OA 
BRANCH  35  38
HETATM   38  C   UNL     3     -10.602   7.953  72.625  1.00  0.00    -0.329 C  
HETATM   39  C   UNL     3      -9.566   7.058  73.353  1.00  0.00    -0.191 C  
HETATM   40  O   UNL     3     -11.924   7.465  72.928  1.00  0.00    -0.557 OA 
HETATM   41  O   UNL     3      -8.656   6.551  72.624  1.00  0.00    -0.125 OA 
HETATM   42  O   UNL     3      -9.895   6.758  74.534  1.00  0.00    -0.297 OA 
HETATM   43  H   UNL     3     -12.080   7.467  73.866  1.00  0.00     0.000 HD 
ENDBRANCH  35  38
ENDBRANCH  32  35
ENDBRANCH  29  32
ENDBRANCH  26  29
ENDBRANCH   6  26
TORSDOF 10
ENDMDL
MODEL      488
REMARK 921   NORMALIZED FREE ENERGY PREDICTED BY IDOCK:   -2.05 KCAL/MOL
REMARK 922        TOTAL FREE ENERGY PREDICTED BY IDOCK:   -5.74 KCAL/MOL
REMARK 923 INTER-LIGAND FREE ENERGY PREDICTED BY IDOCK:   -5.40 KCAL/MOL
REMARK 924 INTRA-LIGAND FREE ENERGY PREDICTED BY IDOCK:   -0.35 KCAL/MOL
REMARK 927      BINDING AFFINITY PREDICTED BY RF-SCORE:    0.00 PKD
ROOT
HETATM    1 CA   UNL     1      -7.131  11.894  68.908  1.00  0.00    -0.072 Ca 
HETATM    2  O   UNL     2      -5.136   6.673  70.206  1.00  0.00    -0.014 OA 
HETATM    3  O   UNL     3     -12.412  14.582  66.801  1.00  0.00    -0.519 OA 
HETATM    4  H   UNL     2      -4.596   6.480  69.448  1.00  0.00     0.000 HD 
HETATM    5  C   UNL     2      -5.772   7.935  70.010  1.00  0.00    -0.023 C  
HETATM    6  C   UNL     3     -11.153  14.092  66.348  1.00  0.00    -0.320 C  
HETATM    7  H   UNL     3     -12.546  15.472  66.499  1.00  0.00     0.000 HD 
ENDROOT
BRANCH   5   8
HETATM    8  C   UNL     2      -6.649   8.248  71.241  1.00  0.00    -0.048 C  
HETATM    9  O   UNL     2      -6.870   9.654  71.280  1.00  0.00    -0.311 OA 
HETATM   10  H   UNL     2      -7.409   9.847  72.038  1.00  0.00     0.000 HD 
BRANCH   8  11
HETATM   11  C   UNL     2      -8.017   7.553  71.144  1.00  0.00    -0.095 C  
HETATM   12  H   UNL     2      -9.842   7.920  70.389  1.00  0.00     0.000 HD 
HETATM   13  O   UNL     2      -8.997   8.349  70.448  1.00  0.00    -0.141 OA 
BRANCH  11  14
HETATM   14  C   UNL     2      -8.099   6.096  70.628  1.00  0.00    -0.116 C  
HETATM   15  O   UNL     2      -8.235   6.087  69.216  1.00  0.00    -0.111 OA 
HETATM   16  H   UNL     2      -8.285   5.192  68.900  1.00  0.00     0.000 HD 
BRANCH  14  17
HETATM   17  C   UNL     2      -9.021   5.115  71.377  1.00  0.00    -0.137 C  
HETATM   18  H   UNL     2     -10.587   5.294  72.532  1.00  0.00     0.000 HD 
HETATM   19  O   UNL     2     -10.018   5.899  72.069  1.00  0.00    -0.173 OA 
BRANCH  17  20
HETATM   20  C   UNL     2      -9.655   4.013  70.530  1.00  0.00    -0.191 C  
HETATM   21  O   UNL     2     -10.184   4.535  69.291  1.00  0.00    -0.122 OA 
HETATM   22  C   UNL     2      -8.549   2.964  70.222  1.00  0.00    -0.060 C  
HETATM   23  H   UNL     2     -10.578   3.850  68.764  1.00  0.00     0.000 HD 
HETATM   24  O   UNL     2      -7.779   2.727  71.191  1.00  0.00    -0.043 OA 
HETATM   25  O   UNL     2      -8.583   2.534  69.038  1.00  0.00    -0.063 OA 
ENDBRANCH  17  20
ENDBRANCH  14  17
ENDBRANCH  11  14
ENDBRANCH   8  11
ENDBRANCH   5   8
BRANCH   6  26
HETATM   26  C   UNL     3     -10.936  12.653  66.837  1.00  0.00    -0.262 C  
HETATM   27  H   UNL     3     -12.090  11.248  67.452  1.00  0.00     0.000 HD 
HETATM   28  O   UNL     3     -12.224  12.139  67.150  1.00  0.00    -0.507 OA 
BRANCH  26  29
HETATM   29  C   UNL     3     -10.165  11.790  65.804  1.00  0.00    -0.239 C  
HETATM   30  O   UNL     3      -9.352  12.690  64.929  1.00  0.00    -0.339 OA 
HETATM   31  H   UNL     3      -8.880  12.161  64.296  1.00  0.00     0.000 HD 
BRANCH  29  32
HETATM   32  C   UNL     3      -9.091  10.869  66.422  1.00  0.00    -0.172 C  
HETATM   33  H   UNL     3      -7.303  11.151  67.199  1.00  0.00     0.000 HD 
HETATM   34  O   UNL     3      -7.964  11.718  66.818  1.00  0.00    -0.161 OA 
BRANCH  32  35
HETATM   35  C   UNL     3      -8.695   9.487  65.880  1.00  0.00    -0.147 C  
HETATM   36  H   UNL     3      -9.444   7.709  66.009  1.00  0.00     0.000 HD 
HETATM   37  O   UNL     3      -9.689   8.564  66.344  1.00  0.00    -0.235 OA 
BRANCH  35  38
HETATM   38  C   UNL     3      -8.463   9.381  64.377  1.00  0.00    -0.184 C  
HETATM   39  C   UNL     3      -6.995   9.738  64.024  1.00  0.00    -0.120 C  
HETATM   40  O   UNL     3      -9.338  10.271  63.656  1.00  0.00    -0.257 OA 
HETATM   41  O   UNL     3      -6.224   9.969  65.008  1.00  0.00    -0.098 OA 
HETATM   42  O   UNL     3      -6.812   9.981  62.799  1.00  0.00    -0.117 OA 
HETATM   43  H   UNL     3      -9.193  10.205  62.719  1.00  0.00     0.000 HD 
ENDBRANCH  35  38
ENDBRANCH  32  35
ENDBRANCH  29  32
ENDBRANCH  26  29
ENDBRANCH   6  26
TORSDOF 10
ENDMDL
MODEL      489
REMARK 921   NORMALIZED FREE ENERGY PREDICTED BY IDOCK:   -1.72 KCAL/MOL
REMARK 922        TOTAL FREE ENERGY PREDICTED BY IDOCK:   -5.23 KCAL/MOL
REMARK 923 INTER-LIGAND FREE ENERGY PREDICTED BY IDOCK:   -6.81 KCAL/MOL
REMARK 924 INTRA-LIGAND FREE ENERGY PREDICTED BY IDOCK:    1.58 KCAL/MOL
REMARK 927      BINDING AFFINITY PREDICTED BY RF-SCORE:    0.00 PKD
ROOT
HETATM    1 CA   UNL     1      -8.906  11.430  67.460  1.00  0.00    -0.131 Ca 
HETATM    2  O   UNL     2      -5.126   7.183  66.688  1.00  0.00    -0.020 OA 
HETATM    3  O   UNL     3      -9.003  17.709  67.804  1.00  0.00    -0.241 OA 
HETATM    4  H   UNL     2      -5.024   6.854  67.574  1.00  0.00     0.000 HD 
HETATM    5  C   UNL     2      -6.002   8.310  66.712  1.00  0.00    -0.053 C  
HETATM    6  C   UNL     3      -8.954  16.549  68.629  1.00  0.00    -0.236 C  
HETATM    7  H   UNL     3      -9.711  18.279  68.080  1.00  0.00     0.000 HD 
ENDROOT
BRANCH   5   8
HETATM    8  C   UNL     2      -6.168   8.844  65.274  1.00  0.00    -0.060 C  
HETATM    9  O   UNL     2      -5.296   8.105  64.425  1.00  0.00    -0.036 OA 
HETATM   10  H   UNL     2      -5.398   8.435  63.539  1.00  0.00     0.000 HD 
BRANCH   8  11
HETATM   11  C   UNL     2      -7.606   8.648  64.768  1.00  0.00    -0.102 C  
HETATM   12  H   UNL     2      -8.592   7.511  63.436  1.00  0.00     0.000 HD 
HETATM   13  O   UNL     2      -7.703   7.633  63.749  1.00  0.00    -0.115 OA 
BRANCH  11  14
HETATM   14  C   UNL     2      -8.754   8.445  65.787  1.00  0.00    -0.169 C  
HETATM   15  O   UNL     2      -9.419   9.675  66.021  1.00  0.00    -0.187 OA 
HETATM   16  H   UNL     2     -10.124   9.550  66.647  1.00  0.00     0.000 HD 
BRANCH  14  17
HETATM   17  C   UNL     2      -8.461   7.611  67.049  1.00  0.00    -0.125 C  
HETATM   18  H   UNL     2      -8.613   7.912  68.973  1.00  0.00     0.000 HD 
HETATM   19  O   UNL     2      -8.794   8.426  68.194  1.00  0.00    -0.141 OA 
BRANCH  17  20
HETATM   20  C   UNL     2      -9.132   6.239  67.115  1.00  0.00    -0.119 C  
HETATM   21  O   UNL     2      -8.467   5.370  68.058  1.00  0.00    -0.099 OA 
HETATM   22  C   UNL     2     -10.605   6.460  67.562  1.00  0.00    -0.283 C  
HETATM   23  H   UNL     2      -8.883   4.518  68.099  1.00  0.00     0.000 HD 
HETATM   24  O   UNL     2     -11.156   7.468  67.044  1.00  0.00    -0.224 OA 
HETATM   25  O   UNL     2     -11.009   5.605  68.395  1.00  0.00    -0.176 OA 
ENDBRANCH  17  20
ENDBRANCH  14  17
ENDBRANCH  11  14
ENDBRANCH   8  11
ENDBRANCH   5   8
BRANCH   6  26
HETATM   26  C   UNL     3      -7.810  15.629  68.182  1.00  0.00    -0.128 C  
HETATM   27  H   UNL     3      -6.285  14.851  69.050  1.00  0.00     0.000 HD 
HETATM   28  O   UNL     3      -6.993  15.420  69.327  1.00  0.00    -0.141 OA 
BRANCH  26  29
HETATM   29  C   UNL     3      -8.328  14.309  67.550  1.00  0.00    -0.188 C  
HETATM   30  O   UNL     3      -8.896  13.444  68.629  1.00  0.00    -0.339 OA 
HETATM   31  H   UNL     3      -9.213  12.636  68.242  1.00  0.00     0.000 HD 
BRANCH  29  32
HETATM   32  C   UNL     3      -9.533  14.490  66.602  1.00  0.00    -0.283 C  
HETATM   33  H   UNL     3     -10.120  15.902  65.359  1.00  0.00     0.000 HD 
HETATM   34  O   UNL     3      -9.379  15.791  65.943  1.00  0.00    -0.333 OA 
BRANCH  32  35
HETATM   35  C   UNL     3     -10.983  14.106  66.933  1.00  0.00    -0.300 C  
HETATM   36  H   UNL     3     -12.689  15.011  66.828  1.00  0.00     0.000 HD 
HETATM   37  O   UNL     3     -11.792  15.248  66.624  1.00  0.00    -0.067 OA 
BRANCH  35  38
HETATM   38  C   UNL     3     -11.516  12.829  66.293  1.00  0.00    -0.354 C  
HETATM   39  C   UNL     3     -12.421  13.163  65.077  1.00  0.00    -0.460 C  
HETATM   40  O   UNL     3     -12.285  12.060  67.239  1.00  0.00    -0.496 OA 
HETATM   41  O   UNL     3     -12.503  14.392  64.765  1.00  0.00    -0.532 OA 
HETATM   42  O   UNL     3     -13.142  12.199  64.701  1.00  0.00    -0.673 OA 
HETATM   43  H   UNL     3     -12.617  11.264  66.840  1.00  0.00     0.000 HD 
ENDBRANCH  35  38
ENDBRANCH  32  35
ENDBRANCH  29  32
ENDBRANCH  26  29
ENDBRANCH   6  26
TORSDOF 10
ENDMDL
MODEL      490
REMARK 921   NORMALIZED FREE ENERGY PREDICTED BY IDOCK:   -1.69 KCAL/MOL
REMARK 922        TOTAL FREE ENERGY PREDICTED BY IDOCK:   -5.17 KCAL/MOL
REMARK 923 INTER-LIGAND FREE ENERGY PREDICTED BY IDOCK:   -5.00 KCAL/MOL
REMARK 924 INTRA-LIGAND FREE ENERGY PREDICTED BY IDOCK:   -0.17 KCAL/MOL
REMARK 927      BINDING AFFINITY PREDICTED BY RF-SCORE:    0.00 PKD
ROOT
HETATM    1 CA   UNL     1     -10.857   7.436  67.834  1.00  0.00    -0.191 Ca 
HETATM    2  O   UNL     2      -8.047   7.321  62.832  1.00  0.00    -0.231 OA 
HETATM    3  O   UNL     3     -10.161   5.363  73.731  1.00  0.00    -0.172 OA 
HETATM    4  H   UNL     2      -8.531   6.656  62.356  1.00  0.00     0.000 HD 
HETATM    5  C   UNL     2      -8.586   7.429  64.149  1.00  0.00     0.428 C  
HETATM    6  C   UNL     3     -10.781   5.020  72.495  1.00  0.00    -0.212 C  
HETATM    7  H   UNL     3     -10.799   5.346  74.434  1.00  0.00     0.000 HD 
ENDROOT
BRANCH   5   8
HETATM    8  C   UNL     2      -7.799   8.508  64.923  1.00  0.00    -0.119 C  
HETATM    9  O   UNL     2      -6.628   8.822  64.177  1.00  0.00    -0.075 OA 
HETATM   10  H   UNL     2      -6.144   9.486  64.654  1.00  0.00     0.000 HD 
BRANCH   8  11
HETATM   11  C   UNL     2      -8.624   9.795  65.080  1.00  0.00    -0.158 C  
HETATM   12  H   UNL     2     -10.291  10.411  66.018  1.00  0.00     0.000 HD 
HETATM   13  O   UNL     2      -9.781   9.616  65.921  1.00  0.00    -0.235 OA 
BRANCH  11  14
HETATM   14  C   UNL     2      -7.916  11.113  65.481  1.00  0.00     0.186 C  
HETATM   15  O   UNL     2      -6.509  10.942  65.436  1.00  0.00    -0.349 OA 
HETATM   16  H   UNL     2      -6.075  11.751  65.681  1.00  0.00     0.000 HD 
BRANCH  14  17
HETATM   17  C   UNL     2      -8.441  11.869  66.716  1.00  0.00    -0.167 C  
HETATM   18  H   UNL     2      -9.786  11.515  68.088  1.00  0.00     0.000 HD 
HETATM   19  O   UNL     2      -9.462  11.048  67.326  1.00  0.00    -0.163 OA 
BRANCH  17  20
HETATM   20  C   UNL     2      -7.386  12.309  67.730  1.00  0.00    -0.118 C  
HETATM   21  O   UNL     2      -7.820  13.468  68.476  1.00  0.00    -0.136 OA 
HETATM   22  C   UNL     2      -7.151  11.121  68.705  1.00  0.00    -0.093 C  
HETATM   23  H   UNL     2      -7.163  13.741  69.106  1.00  0.00     0.000 HD 
HETATM   24  O   UNL     2      -7.138   9.991  68.149  1.00  0.00    -0.078 OA 
HETATM   25  O   UNL     2      -7.036  11.477  69.909  1.00  0.00    -0.021 OA 
ENDBRANCH  17  20
ENDBRANCH  14  17
ENDBRANCH  11  14
ENDBRANCH   8  11
ENDBRANCH   5   8
BRANCH   6  26
HETATM   26  C   UNL     3      -9.750   5.048  71.358  1.00  0.00    -0.171 C  
HETATM   27  H   UNL     3      -9.573   4.148  69.672  1.00  0.00     0.000 HD 
HETATM   28  O   UNL     3     -10.212   4.131  70.376  1.00  0.00    -0.085 OA 
BRANCH  26  29
HETATM   29  C   UNL     3      -9.525   6.480  70.803  1.00  0.00    -0.172 C  
HETATM   30  O   UNL     3      -9.445   6.415  69.311  1.00  0.00    -0.136 OA 
HETATM   31  H   UNL     3      -9.307   7.292  68.971  1.00  0.00     0.000 HD 
BRANCH  29  32
HETATM   32  C   UNL     3     -10.711   7.442  71.030  1.00  0.00    -0.231 C  
HETATM   33  H   UNL     3     -12.411   7.791  70.099  1.00  0.00     0.000 HD 
HETATM   34  O   UNL     3     -11.681   7.199  69.959  1.00  0.00    -0.178 OA 
BRANCH  32  35
HETATM   35  C   UNL     3     -10.586   8.911  71.463  1.00  0.00    -0.329 C  
HETATM   36  H   UNL     3      -9.125  10.043  72.033  1.00  0.00     0.000 HD 
HETATM   37  O   UNL     3      -9.202   9.134  71.766  1.00  0.00    -0.338 OA 
BRANCH  35  38
HETATM   38  C   UNL     3     -11.144   9.957  70.505  1.00  0.00    -0.332 C  
HETATM   39  C   UNL     3     -12.631  10.259  70.831  1.00  0.00    -0.371 C  
HETATM   40  O   UNL     3     -11.056   9.505  69.139  1.00  0.00    -0.393 OA 
HETATM   41  O   UNL     3     -13.107   9.676  71.855  1.00  0.00    -0.374 OA 
HETATM   42  O   UNL     3     -13.242  10.859  69.904  1.00  0.00     0.018 OA 
HETATM   43  H   UNL     3     -11.404  10.157  68.542  1.00  0.00     0.000 HD 
ENDBRANCH  35  38
ENDBRANCH  32  35
ENDBRANCH  29  32
ENDBRANCH  26  29
ENDBRANCH   6  26
TORSDOF 10
ENDMDL
MODEL      491
REMARK 921   NORMALIZED FREE ENERGY PREDICTED BY IDOCK:   -1.52 KCAL/MOL
REMARK 922        TOTAL FREE ENERGY PREDICTED BY IDOCK:   -4.91 KCAL/MOL
REMARK 923 INTER-LIGAND FREE ENERGY PREDICTED BY IDOCK:   -5.66 KCAL/MOL
REMARK 924 INTRA-LIGAND FREE ENERGY PREDICTED BY IDOCK:    0.76 KCAL/MOL
REMARK 927      BINDING AFFINITY PREDICTED BY RF-SCORE:    0.00 PKD
ROOT
HETATM    1 CA   UNL     1     -10.952  12.143  64.572  1.00  0.00    -0.264 Ca 
HETATM    2  O   UNL     2     -10.286  17.728  65.709  1.00  0.00    -0.570 OA 
HETATM    3  O   UNL     3      -7.902   6.713  65.448  1.00  0.00    -0.097 OA 
HETATM    4  H   UNL     2     -10.022  18.066  64.861  1.00  0.00     0.000 HD 
HETATM    5  C   UNL     2     -10.432  16.312  65.616  1.00  0.00    -0.368 C  
HETATM    6  C   UNL     3      -8.100   7.736  64.476  1.00  0.00    -0.108 C  
HETATM    7  H   UNL     3      -8.084   5.861  65.069  1.00  0.00     0.000 HD 
ENDROOT
BRANCH   5   8
HETATM    8  C   UNL     2     -10.862  15.763  66.993  1.00  0.00    -0.273 C  
HETATM    9  O   UNL     2     -10.393  14.422  67.099  1.00  0.00    -0.259 OA 
HETATM   10  H   UNL     2     -10.658  14.084  67.947  1.00  0.00     0.000 HD 
BRANCH   8  11
HETATM   11  C   UNL     2     -10.239  16.578  68.138  1.00  0.00    -0.271 C  
HETATM   12  H   UNL     2      -9.694  18.475  68.514  1.00  0.00     0.000 HD 
HETATM   13  O   UNL     2     -10.079  17.971  67.806  1.00  0.00    -0.319 OA 
BRANCH  11  14
HETATM   14  C   UNL     2     -10.832  16.469  69.564  1.00  0.00    -0.315 C  
HETATM   15  O   UNL     2     -10.678  17.701  70.250  1.00  0.00     0.049 OA 
HETATM   16  H   UNL     2     -11.042  17.634  71.125  1.00  0.00     0.000 HD 
BRANCH  14  17
HETATM   17  C   UNL     2     -10.495  15.215  70.393  1.00  0.00    -0.075 C  
HETATM   18  H   UNL     2      -8.915  14.565  71.340  1.00  0.00     0.000 HD 
HETATM   19  O   UNL     2      -9.122  15.339  70.829  1.00  0.00     1.058 OA 
BRANCH  17  20
HETATM   20  C   UNL     2     -11.434  14.911  71.560  1.00  0.00    -0.247 C  
HETATM   21  O   UNL     2     -11.279  15.870  72.628  1.00  0.00    -0.052 OA 
HETATM   22  C   UNL     2     -12.889  14.970  71.016  1.00  0.00    -0.387 C  
HETATM   23  H   UNL     2     -11.863  15.681  73.353  1.00  0.00     0.000 HD 
HETATM   24  O   UNL     2     -13.033  14.466  69.870  1.00  0.00    -0.077 OA 
HETATM   25  O   UNL     2     -13.695  15.539  71.801  1.00  0.00    -0.476 OA 
ENDBRANCH  17  20
ENDBRANCH  14  17
ENDBRANCH  11  14
ENDBRANCH   8  11
ENDBRANCH   5   8
BRANCH   6  26
HETATM   26  C   UNL     3      -7.806   9.113  65.089  1.00  0.00    -0.106 C  
HETATM   27  H   UNL     3      -8.490  10.885  64.817  1.00  0.00     0.000 HD 
HETATM   28  O   UNL     3      -8.672  10.034  64.438  1.00  0.00    -0.167 OA 
BRANCH  26  29
HETATM   29  C   UNL     3      -7.958   9.114  66.633  1.00  0.00    -0.104 C  
HETATM   30  O   UNL     3      -7.128  10.220  67.202  1.00  0.00    -0.086 OA 
HETATM   31  H   UNL     3      -7.222  10.221  68.148  1.00  0.00     0.000 HD 
BRANCH  29  32
HETATM   32  C   UNL     3      -9.375   9.474  67.130  1.00  0.00    -0.143 C  
HETATM   33  H   UNL     3     -11.202   8.956  66.606  1.00  0.00     0.000 HD 
HETATM   34  O   UNL     3     -10.330   8.735  66.300  1.00  0.00    -0.231 OA 
BRANCH  32  35
HETATM   35  C   UNL     3      -9.836  10.880  67.543  1.00  0.00    -0.168 C  
HETATM   36  H   UNL     3     -11.344  12.005  67.093  1.00  0.00     0.000 HD 
HETATM   37  O   UNL     3     -11.058  11.135  66.838  1.00  0.00    -0.289 OA 
BRANCH  35  38
HETATM   38  C   UNL     3      -9.964  11.149  69.038  1.00  0.00    -0.137 C  
HETATM   39  C   UNL     3     -10.458   9.880  69.781  1.00  0.00    -0.261 C  
HETATM   40  O   UNL     3     -10.894  12.220  69.292  1.00  0.00    -0.406 OA 
HETATM   41  O   UNL     3     -10.591   8.833  69.071  1.00  0.00    -0.222 OA 
HETATM   42  O   UNL     3     -10.887  10.108  70.946  1.00  0.00    -0.290 OA 
HETATM   43  H   UNL     3     -10.973  12.388  70.224  1.00  0.00     0.000 HD 
ENDBRANCH  35  38
ENDBRANCH  32  35
ENDBRANCH  29  32
ENDBRANCH  26  29
ENDBRANCH   6  26
TORSDOF 10
ENDMDL
MODEL      492
REMARK 921   NORMALIZED FREE ENERGY PREDICTED BY IDOCK:   -1.42 KCAL/MOL
REMARK 922        TOTAL FREE ENERGY PREDICTED BY IDOCK:   -4.75 KCAL/MOL
REMARK 923 INTER-LIGAND FREE ENERGY PREDICTED BY IDOCK:   -7.03 KCAL/MOL
REMARK 924 INTRA-LIGAND FREE ENERGY PREDICTED BY IDOCK:    2.29 KCAL/MOL
REMARK 927      BINDING AFFINITY PREDICTED BY RF-SCORE:    0.00 PKD
ROOT
HETATM    1 CA   UNL     1     -10.686   7.426  66.148  1.00  0.00    -0.456 Ca 
HETATM    2  O   UNL     2      -7.547  10.349  62.336  1.00  0.00    -0.132 OA 
HETATM    3  O   UNL     3     -11.151   6.712  72.379  1.00  0.00    -0.241 OA 
HETATM    4  H   UNL     2      -6.955   9.676  62.019  1.00  0.00     0.000 HD 
HETATM    5  C   UNL     2      -8.370   9.794  63.361  1.00  0.00    -0.167 C  
HETATM    6  C   UNL     3     -10.561   6.111  71.229  1.00  0.00    -0.243 C  
HETATM    7  H   UNL     3     -11.647   6.067  72.868  1.00  0.00     0.000 HD 
ENDROOT
BRANCH   5   8
HETATM    8  C   UNL     2      -9.330  10.886  63.876  1.00  0.00    -0.240 C  
HETATM    9  O   UNL     2     -10.330  11.099  62.885  1.00  0.00    -0.649 OA 
HETATM   10  H   UNL     2     -10.921  11.772  63.203  1.00  0.00     0.000 HD 
BRANCH   8  11
HETATM   11  C   UNL     2     -10.030  10.448  65.173  1.00  0.00    -0.322 C  
HETATM   12  H   UNL     2      -9.648   9.301  66.778  1.00  0.00     0.000 HD 
HETATM   13  O   UNL     2      -9.215   9.572  65.977  1.00  0.00    -0.168 OA 
BRANCH  11  14
HETATM   14  C   UNL     2     -10.675  11.514  66.092  1.00  0.00    -0.274 C  
HETATM   15  O   UNL     2     -11.592  10.899  66.982  1.00  0.00    -0.383 OA 
HETATM   16  H   UNL     2     -11.987  11.553  67.546  1.00  0.00     0.000 HD 
BRANCH  14  17
HETATM   17  C   UNL     2     -11.172  12.821  65.445  1.00  0.00    -0.292 C  
HETATM   18  H   UNL     2     -12.608  13.294  64.208  1.00  0.00     0.000 HD 
HETATM   19  O   UNL     2     -12.301  12.488  64.607  1.00  0.00    -0.449 OA 
BRANCH  17  20
HETATM   20  C   UNL     2     -11.498  13.963  66.407  1.00  0.00    -0.344 C  
HETATM   21  O   UNL     2     -12.151  13.478  67.602  1.00  0.00    -0.347 OA 
HETATM   22  C   UNL     2     -10.156  14.649  66.790  1.00  0.00    -0.265 C  
HETATM   23  H   UNL     2     -12.353  14.188  68.200  1.00  0.00     0.000 HD 
HETATM   24  O   UNL     2      -9.347  14.770  65.832  1.00  0.00    -0.271 OA 
HETATM   25  O   UNL     2     -10.081  14.956  68.010  1.00  0.00    -0.218 OA 
ENDBRANCH  17  20
ENDBRANCH  14  17
ENDBRANCH  11  14
ENDBRANCH   8  11
ENDBRANCH   5   8
BRANCH   6  26
HETATM   26  C   UNL     3      -9.759   7.154  70.439  1.00  0.00    -0.176 C  
HETATM   27  H   UNL     3      -7.899   7.408  70.041  1.00  0.00     0.000 HD 
HETATM   28  O   UNL     3      -8.395   6.763  70.530  1.00  0.00    -0.126 OA 
BRANCH  26  29
HETATM   29  C   UNL     3     -10.260   7.299  68.978  1.00  0.00    -0.197 C  
HETATM   30  O   UNL     3     -11.414   8.248  68.951  1.00  0.00    -0.064 OA 
HETATM   31  H   UNL     3     -11.721   8.336  68.056  1.00  0.00     0.000 HD 
BRANCH  29  32
HETATM   32  C   UNL     3      -9.251   7.977  68.025  1.00  0.00    -0.135 C  
HETATM   33  H   UNL     3      -7.539   7.443  67.210  1.00  0.00     0.000 HD 
HETATM   34  O   UNL     3      -8.159   7.026  67.797  1.00  0.00    -0.112 OA 
BRANCH  32  35
HETATM   35  C   UNL     3      -8.816   9.448  68.102  1.00  0.00    -0.124 C  
HETATM   36  H   UNL     3      -9.009  10.859  69.411  1.00  0.00     0.000 HD 
HETATM   37  O   UNL     3      -9.278   9.949  69.363  1.00  0.00    -0.186 OA 
BRANCH  35  38
HETATM   38  C   UNL     3      -7.337   9.738  67.871  1.00  0.00    -0.085 C  
HETATM   39  C   UNL     3      -7.083  11.267  67.806  1.00  0.00    -0.087 C  
HETATM   40  O   UNL     3      -6.882   9.144  66.639  1.00  0.00    -0.078 OA 
HETATM   41  O   UNL     3      -8.090  12.010  68.032  1.00  0.00    -0.135 OA 
HETATM   42  O   UNL     3      -5.966  11.576  67.307  1.00  0.00    -0.073 OA 
HETATM   43  H   UNL     3      -5.960   9.325  66.495  1.00  0.00     0.000 HD 
ENDBRANCH  35  38
ENDBRANCH  32  35
ENDBRANCH  29  32
ENDBRANCH  26  29
ENDBRANCH   6  26
TORSDOF 10
ENDMDL
MODEL      493
REMARK 921   NORMALIZED FREE ENERGY PREDICTED BY IDOCK:   -0.21 KCAL/MOL
REMARK 922        TOTAL FREE ENERGY PREDICTED BY IDOCK:   -2.83 KCAL/MOL
REMARK 923 INTER-LIGAND FREE ENERGY PREDICTED BY IDOCK:   -2.76 KCAL/MOL
REMARK 924 INTRA-LIGAND FREE ENERGY PREDICTED BY IDOCK:   -0.08 KCAL/MOL
REMARK 927      BINDING AFFINITY PREDICTED BY RF-SCORE:    0.00 PKD
ROOT
HETATM    1 CA   UNL     1     -10.370  11.730  67.987  1.00  0.00    -0.171 Ca 
HETATM    2  O   UNL     2     -14.270   9.103  71.275  1.00  0.00    -0.392 OA 
HETATM    3  O   UNL     3      -6.525  16.701  68.218  1.00  0.00    -0.128 OA 
HETATM    4  H   UNL     2     -15.083   9.394  70.878  1.00  0.00     0.000 HD 
HETATM    5  C   UNL     2     -13.179   9.730  70.605  1.00  0.00    -0.014 C  
HETATM    6  C   UNL     3      -7.808  16.306  67.742  1.00  0.00    -0.142 C  
HETATM    7  H   UNL     3      -6.022  17.096  67.516  1.00  0.00     0.000 HD 
ENDROOT
BRANCH   5   8
HETATM    8  C   UNL     2     -11.858   9.258  71.249  1.00  0.00    -0.343 C  
HETATM    9  O   UNL     2     -11.983   9.392  72.661  1.00  0.00     0.123 OA 
HETATM   10  H   UNL     2     -11.170   9.101  73.058  1.00  0.00     0.000 HD 
BRANCH   8  11
HETATM   11  C   UNL     2     -11.581   7.779  70.934  1.00  0.00    -0.274 C  
HETATM   12  H   UNL     2     -12.550   6.020  70.988  1.00  0.00     0.000 HD 
HETATM   13  O   UNL     2     -12.721   6.934  71.183  1.00  0.00    -0.369 OA 
BRANCH  11  14
HETATM   14  C   UNL     2     -10.961   7.392  69.569  1.00  0.00    -0.139 C  
HETATM   15  O   UNL     2     -10.859   5.981  69.464  1.00  0.00    -0.297 OA 
HETATM   16  H   UNL     2     -10.479   5.743  68.626  1.00  0.00     0.000 HD 
BRANCH  14  17
HETATM   17  C   UNL     2      -9.721   8.171  69.091  1.00  0.00    -0.163 C  
HETATM   18  H   UNL     2      -8.024   8.705  69.899  1.00  0.00     0.000 HD 
HETATM   19  O   UNL     2      -8.789   8.224  70.194  1.00  0.00    -0.137 OA 
BRANCH  17  20
HETATM   20  C   UNL     2      -9.058   7.657  67.813  1.00  0.00    -0.130 C  
HETATM   21  O   UNL     2      -8.783   6.241  67.893  1.00  0.00    -0.115 OA 
HETATM   22  C   UNL     2     -10.036   7.932  66.636  1.00  0.00    -0.246 C  
HETATM   23  H   UNL     2      -8.371   5.922  67.099  1.00  0.00     0.000 HD 
HETATM   24  O   UNL     2     -10.626   9.043  66.703  1.00  0.00    -0.211 OA 
HETATM   25  O   UNL     2     -10.103   6.983  65.810  1.00  0.00     0.567 OA 
ENDBRANCH  17  20
ENDBRANCH  14  17
ENDBRANCH  11  14
ENDBRANCH   8  11
ENDBRANCH   5   8
BRANCH   6  26
HETATM   26  C   UNL     3      -8.620  15.666  68.876  1.00  0.00    -0.211 C  
HETATM   27  H   UNL     3     -10.099  16.230  69.962  1.00  0.00     0.000 HD 
HETATM   28  O   UNL     3      -9.597  16.626  69.260  1.00  0.00    -0.238 OA 
BRANCH  26  29
HETATM   29  C   UNL     3      -9.231  14.300  68.465  1.00  0.00    -0.197 C  
HETATM   30  O   UNL     3      -9.662  14.371  67.035  1.00  0.00    -0.241 OA 
HETATM   31  H   UNL     3     -10.036  13.535  66.784  1.00  0.00     0.000 HD 
BRANCH  29  32
HETATM   32  C   UNL     3      -8.221  13.132  68.449  1.00  0.00    -0.130 C  
HETATM   33  H   UNL     3      -7.157  12.201  69.820  1.00  0.00     0.000 HD 
HETATM   34  O   UNL     3      -7.778  12.920  69.830  1.00  0.00     0.874 OA 
BRANCH  32  35
HETATM   35  C   UNL     3      -7.133  12.920  67.385  1.00  0.00    -0.125 C  
HETATM   36  H   UNL     3      -6.210  14.069  66.133  1.00  0.00     0.000 HD 
HETATM   37  O   UNL     3      -6.883  14.200  66.791  1.00  0.00     0.411 OA 
BRANCH  35  38
HETATM   38  C   UNL     3      -5.851  12.234  67.844  1.00  0.00    -0.079 C  
HETATM   39  C   UNL     3      -6.081  10.712  68.030  1.00  0.00    -0.046 C  
HETATM   40  O   UNL     3      -5.391  12.785  69.094  1.00  0.00    -0.068 OA 
HETATM   41  O   UNL     3      -7.230  10.277  67.702  1.00  0.00    -0.085 OA 
HETATM   42  O   UNL     3      -5.178  10.140  68.702  1.00  0.00    -0.039 OA 
HETATM   43  H   UNL     3      -4.592  12.358  69.380  1.00  0.00     0.000 HD 
ENDBRANCH  35  38
ENDBRANCH  32  35
ENDBRANCH  29  32
ENDBRANCH  26  29
ENDBRANCH   6  26
TORSDOF 10
ENDMDL
MODEL      494
REMARK 921   NORMALIZED FREE ENERGY PREDICTED BY IDOCK:    0.06 KCAL/MOL
REMARK 922        TOTAL FREE ENERGY PREDICTED BY IDOCK:   -2.40 KCAL/MOL
REMARK 923 INTER-LIGAND FREE ENERGY PREDICTED BY IDOCK:   -6.12 KCAL/MOL
REMARK 924 INTRA-LIGAND FREE ENERGY PREDICTED BY IDOCK:    3.72 KCAL/MOL
REMARK 927      BINDING AFFINITY PREDICTED BY RF-SCORE:    0.00 PKD
ROOT
HETATM    1 CA   UNL     1      -8.803  12.236  67.102  1.00  0.00    -0.148 Ca 
HETATM    2  O   UNL     2      -6.354   7.172  65.974  1.00  0.00    -0.042 OA 
HETATM    3  O   UNL     3      -7.171  17.970  69.106  1.00  0.00    -0.241 OA 
HETATM    4  H   UNL     2      -6.600   6.665  66.740  1.00  0.00     0.000 HD 
HETATM    5  C   UNL     2      -6.838   8.505  66.129  1.00  0.00    -0.072 C  
HETATM    6  C   UNL     3      -7.689  16.730  69.579  1.00  0.00     0.232 C  
HETATM    7  H   UNL     3      -7.731  18.686  69.380  1.00  0.00     0.000 HD 
ENDROOT
BRANCH   5   8
HETATM    8  C   UNL     2      -6.439   9.328  64.885  1.00  0.00    -0.075 C  
HETATM    9  O   UNL     2      -5.977   8.424  63.887  1.00  0.00    -0.065 OA 
HETATM   10  H   UNL     2      -5.731   8.931  63.121  1.00  0.00     0.000 HD 
BRANCH   8  11
HETATM   11  C   UNL     2      -7.642  10.095  64.314  1.00  0.00    -0.124 C  
HETATM   12  H   UNL     2      -8.827  10.047  62.692  1.00  0.00     0.000 HD 
HETATM   13  O   UNL     2      -8.083   9.573  63.045  1.00  0.00    -0.131 OA 
BRANCH  11  14
HETATM   14  C   UNL     2      -8.881  10.350  65.207  1.00  0.00    -0.186 C  
HETATM   15  O   UNL     2      -9.176  11.737  65.245  1.00  0.00    -0.403 OA 
HETATM   16  H   UNL     2      -9.936  11.893  65.793  1.00  0.00     0.000 HD 
BRANCH  14  17
HETATM   17  C   UNL     2      -8.950   9.632  66.568  1.00  0.00    -0.147 C  
HETATM   18  H   UNL     2      -8.190   9.947  68.340  1.00  0.00     0.000 HD 
HETATM   19  O   UNL     2      -8.147  10.391  67.500  1.00  0.00    -0.107 OA 
BRANCH  17  20
HETATM   20  C   UNL     2     -10.352   9.366  67.114  1.00  0.00    -0.258 C  
HETATM   21  O   UNL     2     -10.436   8.070  67.748  1.00  0.00    -0.240 OA 
HETATM   22  C   UNL     2     -10.668  10.476  68.156  1.00  0.00    -0.233 C  
HETATM   23  H   UNL     2     -11.308   7.905  68.087  1.00  0.00     0.000 HD 
HETATM   24  O   UNL     2     -10.268  11.624  67.825  1.00  0.00    -0.181 OA 
HETATM   25  O   UNL     2     -11.254  10.045  69.185  1.00  0.00    -0.216 OA 
ENDBRANCH  17  20
ENDBRANCH  14  17
ENDBRANCH  11  14
ENDBRANCH   8  11
ENDBRANCH   5   8
BRANCH   6  26
HETATM   26  C   UNL     3      -6.783  15.573  69.135  1.00  0.00    -0.145 C  
HETATM   27  H   UNL     3      -5.477  14.470  70.007  1.00  0.00     0.000 HD 
HETATM   28  O   UNL     3      -6.037  15.186  70.282  1.00  0.00    -0.146 OA 
BRANCH  26  29
HETATM   29  C   UNL     3      -7.586  14.405  68.503  1.00  0.00    -0.125 C  
HETATM   30  O   UNL     3      -8.751  14.084  69.384  1.00  0.00    -0.259 OA 
HETATM   31  H   UNL     3      -9.242  13.368  68.997  1.00  0.00     0.000 HD 
BRANCH  29  32
HETATM   32  C   UNL     3      -8.270  14.757  67.165  1.00  0.00    -0.211 C  
HETATM   33  H   UNL     3      -7.894  16.026  65.706  1.00  0.00     0.000 HD 
HETATM   34  O   UNL     3      -7.473  15.809  66.530  1.00  0.00    -0.105 OA 
BRANCH  32  35
HETATM   35  C   UNL     3      -9.787  14.885  66.955  1.00  0.00    -0.240 C  
HETATM   36  H   UNL     3     -11.105  16.246  67.345  1.00  0.00     0.000 HD 
HETATM   37  O   UNL     3     -10.167  16.166  67.475  1.00  0.00    -0.255 OA 
BRANCH  35  38
HETATM   38  C   UNL     3     -10.304  14.660  65.539  1.00  0.00    -0.362 C  
HETATM   39  C   UNL     3     -10.703  16.007  64.881  1.00  0.00    -0.316 C  
HETATM   40  O   UNL     3     -11.456  13.792  65.543  1.00  0.00    -0.305 OA 
HETATM   41  O   UNL     3     -10.465  17.053  65.563  1.00  0.00    -0.572 OA 
HETATM   42  O   UNL     3     -11.425  15.876  63.854  1.00  0.00    -0.444 OA 
HETATM   43  H   UNL     3     -11.779  13.652  64.660  1.00  0.00     0.000 HD 
ENDBRANCH  35  38
ENDBRANCH  32  35
ENDBRANCH  29  32
ENDBRANCH  26  29
ENDBRANCH   6  26
TORSDOF 10
ENDMDL
MODEL      495
REMARK 921   NORMALIZED FREE ENERGY PREDICTED BY IDOCK:    0.25 KCAL/MOL
REMARK 922        TOTAL FREE ENERGY PREDICTED BY IDOCK:   -2.11 KCAL/MOL
REMARK 923 INTER-LIGAND FREE ENERGY PREDICTED BY IDOCK:   -2.44 KCAL/MOL
REMARK 924 INTRA-LIGAND FREE ENERGY PREDICTED BY IDOCK:    0.33 KCAL/MOL
REMARK 927      BINDING AFFINITY PREDICTED BY RF-SCORE:    0.00 PKD
ROOT
HETATM    1 CA   UNL     1      -8.743  15.397  64.774  1.00  0.00     0.177 Ca 
HETATM    2  O   UNL     2      -5.159  18.259  68.223  1.00  0.00    -0.163 OA 
HETATM    3  O   UNL     3     -10.486   9.472  63.587  1.00  0.00     0.996 OA 
HETATM    4  H   UNL     2      -4.447  18.467  67.629  1.00  0.00     0.000 HD 
HETATM    5  C   UNL     2      -6.126  17.473  67.527  1.00  0.00    -0.142 C  
HETATM    6  C   UNL     3      -9.601  10.488  63.122  1.00  0.00    -0.336 C  
HETATM    7  H   UNL     3     -11.009   9.139  62.867  1.00  0.00     0.000 HD 
ENDROOT
BRANCH   5   8
HETATM    8  C   UNL     2      -7.282  17.134  68.491  1.00  0.00    -0.220 C  
HETATM    9  O   UNL     2      -6.731  16.934  69.788  1.00  0.00    -0.165 OA 
HETATM   10  H   UNL     2      -7.443  16.726  70.382  1.00  0.00     0.000 HD 
BRANCH   8  11
HETATM   11  C   UNL     2      -8.295  18.288  68.576  1.00  0.00    -0.310 C  
HETATM   12  H   UNL     2      -8.379  20.170  69.276  1.00  0.00     0.000 HD 
HETATM   13  O   UNL     2      -7.754  19.457  69.223  1.00  0.00    -0.310 OA 
BRANCH  11  14
HETATM   14  C   UNL     2      -9.058  18.730  67.303  1.00  0.00    -0.277 C  
HETATM   15  O   UNL     2      -8.175  19.391  66.412  1.00  0.00    -0.297 OA 
HETATM   16  H   UNL     2      -8.644  19.663  65.631  1.00  0.00     0.000 HD 
BRANCH  14  17
HETATM   17  C   UNL     2     -10.430  19.407  67.483  1.00  0.00    -0.462 C  
HETATM   18  H   UNL     2     -11.051  21.250  67.671  1.00  0.00     0.000 HD 
HETATM   19  O   UNL     2     -10.204  20.832  67.560  1.00  0.00    -0.258 OA 
BRANCH  17  20
HETATM   20  C   UNL     2     -11.491  19.058  66.439  1.00  0.00     1.106 C  
HETATM   21  O   UNL     2     -11.403  19.922  65.285  1.00  0.00    -0.180 OA 
HETATM   22  C   UNL     2     -11.251  17.584  66.005  1.00  0.00     0.778 C  
HETATM   23  H   UNL     2     -12.062  19.705  64.637  1.00  0.00     0.000 HD 
HETATM   24  O   UNL     2     -10.938  16.812  66.949  1.00  0.00    -0.107 OA 
HETATM   25  O   UNL     2     -11.385  17.400  64.765  1.00  0.00    -0.742 OA 
ENDBRANCH  17  20
ENDBRANCH  14  17
ENDBRANCH  11  14
ENDBRANCH   8  11
ENDBRANCH   5   8
BRANCH   6  26
HETATM   26  C   UNL     3      -8.755  11.025  64.285  1.00  0.00     0.088 C  
HETATM   27  H   UNL     3      -6.873  11.206  64.615  1.00  0.00     0.000 HD 
HETATM   28  O   UNL     3      -7.397  10.873  63.896  1.00  0.00     0.283 OA 
BRANCH  26  29
HETATM   29  C   UNL     3      -9.127  12.486  64.657  1.00  0.00     1.002 C  
HETATM   30  O   UNL     3      -9.875  13.101  63.518  1.00  0.00    -0.511 OA 
HETATM   31  H   UNL     3     -10.102  13.995  63.746  1.00  0.00     0.000 HD 
BRANCH  29  32
HETATM   32  C   UNL     3     -10.134  12.608  65.820  1.00  0.00    -0.271 C  
HETATM   33  H   UNL     3     -10.961  14.112  66.787  1.00  0.00     0.000 HD 
HETATM   34  O   UNL     3     -10.341  14.037  66.071  1.00  0.00    -0.289 OA 
BRANCH  32  35
HETATM   35  C   UNL     3     -10.140  11.728  67.080  1.00  0.00    -0.209 C  
HETATM   36  H   UNL     3      -9.106  11.682  68.714  1.00  0.00     0.000 HD 
HETATM   37  O   UNL     3      -9.102  12.226  67.934  1.00  0.00    -0.175 OA 
BRANCH  35  38
HETATM   38  C   UNL     3     -11.471  11.584  67.809  1.00  0.00    -0.286 C  
HETATM   39  C   UNL     3     -11.484  12.446  69.099  1.00  0.00    -0.302 C  
HETATM   40  O   UNL     3     -11.714  10.210  68.172  1.00  0.00    -0.694 OA 
HETATM   41  O   UNL     3     -10.460  13.173  69.294  1.00  0.00     0.016 OA 
HETATM   42  O   UNL     3     -12.403  12.137  69.906  1.00  0.00    -0.179 OA 
HETATM   43  H   UNL     3     -12.544  10.121  68.627  1.00  0.00     0.000 HD 
ENDBRANCH  35  38
ENDBRANCH  32  35
ENDBRANCH  29  32
ENDBRANCH  26  29
ENDBRANCH   6  26
TORSDOF 10
ENDMDL
MODEL      496
REMARK 921   NORMALIZED FREE ENERGY PREDICTED BY IDOCK:    1.39 KCAL/MOL
REMARK 922        TOTAL FREE ENERGY PREDICTED BY IDOCK:   -0.29 KCAL/MOL
REMARK 923 INTER-LIGAND FREE ENERGY PREDICTED BY IDOCK:    0.66 KCAL/MOL
REMARK 924 INTRA-LIGAND FREE ENERGY PREDICTED BY IDOCK:   -0.95 KCAL/MOL
REMARK 927      BINDING AFFINITY PREDICTED BY RF-SCORE:    0.00 PKD
ROOT
HETATM    1 CA   UNL     1      -8.404  15.320  64.138  1.00  0.00     2.925 Ca 
HETATM    2  O   UNL     2      -5.125  18.318  67.770  1.00  0.00    -0.149 OA 
HETATM    3  O   UNL     3      -9.979   9.343  62.976  1.00  0.00     0.009 OA 
HETATM    4  H   UNL     2      -4.374  18.522  67.225  1.00  0.00     0.000 HD 
HETATM    5  C   UNL     2      -6.027  17.502  67.024  1.00  0.00    -0.146 C  
HETATM    6  C   UNL     3      -9.074  10.360  62.553  1.00  0.00    -0.292 C  
HETATM    7  H   UNL     3     -10.442   8.985  62.228  1.00  0.00     0.000 HD 
ENDROOT
BRANCH   5   8
HETATM    8  C   UNL     2      -7.248  17.170  67.908  1.00  0.00    -0.170 C  
HETATM    9  O   UNL     2      -6.786  16.950  69.236  1.00  0.00    -0.225 OA 
HETATM   10  H   UNL     2      -7.537  16.746  69.780  1.00  0.00     0.000 HD 
BRANCH   8  11
HETATM   11  C   UNL     2      -8.249  18.336  67.938  1.00  0.00    -0.253 C  
HETATM   12  H   UNL     2      -8.366  20.202  68.676  1.00  0.00     0.000 HD 
HETATM   13  O   UNL     2      -7.747  19.481  68.657  1.00  0.00    -0.344 OA 
BRANCH  11  14
HETATM   14  C   UNL     2      -8.899  18.821  66.619  1.00  0.00    -0.314 C  
HETATM   15  O   UNL     2      -7.915  19.398  65.776  1.00  0.00    -0.432 OA 
HETATM   16  H   UNL     2      -8.314  19.696  64.966  1.00  0.00     0.000 HD 
BRANCH  14  17
HETATM   17  C   UNL     2     -10.220  19.608  66.710  1.00  0.00    -0.449 C  
HETATM   18  H   UNL     2     -10.707  21.499  66.738  1.00  0.00     0.000 HD 
HETATM   19  O   UNL     2      -9.891  21.014  66.681  1.00  0.00    -0.004 OA 
BRANCH  17  20
HETATM   20  C   UNL     2     -11.284  19.253  65.672  1.00  0.00     0.506 C  
HETATM   21  O   UNL     2     -11.115  20.019  64.459  1.00  0.00     0.047 OA 
HETATM   22  C   UNL     2     -11.140  17.738  65.354  1.00  0.00     0.513 C  
HETATM   23  H   UNL     2     -11.776  19.799  63.813  1.00  0.00     0.000 HD 
HETATM   24  O   UNL     2     -10.899  17.020  66.361  1.00  0.00    -0.132 OA 
HETATM   25  O   UNL     2     -11.264  17.469  64.129  1.00  0.00    -0.254 OA 
ENDBRANCH  17  20
ENDBRANCH  14  17
ENDBRANCH  11  14
ENDBRANCH   8  11
ENDBRANCH   5   8
BRANCH   6  26
HETATM   26  C   UNL     3      -8.325  10.939  63.762  1.00  0.00     0.155 C  
HETATM   27  H   UNL     3      -6.683  11.904  63.996  1.00  0.00     0.000 HD 
HETATM   28  O   UNL     3      -7.146  11.546  63.248  1.00  0.00     1.234 OA 
BRANCH  26  29
HETATM   29  C   UNL     3      -9.206  11.911  64.589  1.00  0.00     0.306 C  
HETATM   30  O   UNL     3     -10.645  11.651  64.276  1.00  0.00    -0.290 OA 
HETATM   31  H   UNL     3     -11.184  12.247  64.783  1.00  0.00     0.000 HD 
BRANCH  29  32
HETATM   32  C   UNL     3      -9.151  11.675  66.114  1.00  0.00    -0.203 C  
HETATM   33  H   UNL     3     -10.133  10.524  67.376  1.00  0.00     0.000 HD 
HETATM   34  O   UNL     3     -10.167  10.670  66.438  1.00  0.00    -0.221 OA 
BRANCH  32  35
HETATM   35  C   UNL     3      -8.977  12.775  67.173  1.00  0.00    -0.214 C  
HETATM   36  H   UNL     3     -10.177  13.980  68.095  1.00  0.00     0.000 HD 
HETATM   37  O   UNL     3     -10.284  13.300  67.440  1.00  0.00    -0.227 OA 
BRANCH  35  38
HETATM   38  C   UNL     3      -8.237  12.388  68.448  1.00  0.00    -0.144 C  
HETATM   39  C   UNL     3      -6.729  12.733  68.332  1.00  0.00    -0.087 C  
HETATM   40  O   UNL     3      -8.367  10.977  68.711  1.00  0.00    -0.143 OA 
HETATM   41  O   UNL     3      -6.375  13.338  67.271  1.00  0.00    -0.284 OA 
HETATM   42  O   UNL     3      -6.010  12.162  69.198  1.00  0.00    -0.064 OA 
HETATM   43  H   UNL     3      -7.905  10.735  69.506  1.00  0.00     0.000 HD 
ENDBRANCH  35  38
ENDBRANCH  32  35
ENDBRANCH  29  32
ENDBRANCH  26  29
ENDBRANCH   6  26
TORSDOF 10
ENDMDL
MODEL      497
REMARK 921   NORMALIZED FREE ENERGY PREDICTED BY IDOCK:    1.47 KCAL/MOL
REMARK 922        TOTAL FREE ENERGY PREDICTED BY IDOCK:   -0.17 KCAL/MOL
REMARK 923 INTER-LIGAND FREE ENERGY PREDICTED BY IDOCK:   -1.30 KCAL/MOL
REMARK 924 INTRA-LIGAND FREE ENERGY PREDICTED BY IDOCK:    1.13 KCAL/MOL
REMARK 927      BINDING AFFINITY PREDICTED BY RF-SCORE:    0.00 PKD
ROOT
HETATM    1 CA   UNL     1     -12.004  12.630  65.135  1.00  0.00    -0.306 Ca 
HETATM    2  O   UNL     2     -11.122  17.838  67.377  1.00  0.00    -0.161 OA 
HETATM    3  O   UNL     3      -9.034   7.112  64.608  1.00  0.00    -0.126 OA 
HETATM    4  H   UNL     2     -10.910  18.347  66.603  1.00  0.00     0.000 HD 
HETATM    5  C   UNL     2     -11.309  16.476  66.997  1.00  0.00     0.400 C  
HETATM    6  C   UNL     3      -9.275   8.321  63.893  1.00  0.00     1.394 C  
HETATM    7  H   UNL     3      -9.263   6.362  64.072  1.00  0.00     0.000 HD 
ENDROOT
BRANCH   5   8
HETATM    8  C   UNL     2     -11.652  15.649  68.255  1.00  0.00    -0.319 C  
HETATM    9  O   UNL     2     -11.701  14.276  67.881  1.00  0.00    -0.322 OA 
HETATM   10  H   UNL     2     -11.913  13.767  68.656  1.00  0.00     0.000 HD 
BRANCH   8  11
HETATM   11  C   UNL     2     -10.575  15.810  69.340  1.00  0.00    -0.255 C  
HETATM   12  H   UNL     2     -10.179  15.114  71.183  1.00  0.00     0.000 HD 
HETATM   13  O   UNL     2     -10.844  15.015  70.512  1.00  0.00    -0.219 OA 
BRANCH  11  14
HETATM   14  C   UNL     2      -9.081  15.654  68.964  1.00  0.00    -0.241 C  
HETATM   15  O   UNL     2      -8.266  15.917  70.094  1.00  0.00     0.473 OA 
HETATM   16  H   UNL     2      -7.349  15.822  69.863  1.00  0.00     0.000 HD 
BRANCH  14  17
HETATM   17  C   UNL     2      -8.597  16.293  67.648  1.00  0.00    -0.173 C  
HETATM   18  H   UNL     2      -7.896  18.042  67.134  1.00  0.00     0.000 HD 
HETATM   19  O   UNL     2      -8.194  17.648  67.946  1.00  0.00    -0.224 OA 
BRANCH  17  20
HETATM   20  C   UNL     2      -7.508  15.531  66.895  1.00  0.00    -0.082 C  
HETATM   21  O   UNL     2      -6.264  15.521  67.629  1.00  0.00    -0.145 OA 
HETATM   22  C   UNL     2      -8.008  14.072  66.700  1.00  0.00     0.640 C  
HETATM   23  H   UNL     2      -5.587  15.047  67.161  1.00  0.00     0.000 HD 
HETATM   24  O   UNL     2      -9.232  13.979  66.415  1.00  0.00    -0.246 OA 
HETATM   25  O   UNL     2      -7.111  13.206  66.883  1.00  0.00     0.110 OA 
ENDBRANCH  17  20
ENDBRANCH  14  17
ENDBRANCH  11  14
ENDBRANCH   8  11
ENDBRANCH   5   8
BRANCH   6  26
HETATM   26  C   UNL     3      -8.905   9.532  64.760  1.00  0.00    -0.207 C  
HETATM   27  H   UNL     3      -9.780  10.508  66.162  1.00  0.00     0.000 HD 
HETATM   28  O   UNL     3     -10.010   9.758  65.626  1.00  0.00    -0.301 OA 
BRANCH  26  29
HETATM   29  C   UNL     3      -7.566   9.327  65.517  1.00  0.00    -0.091 C  
HETATM   30  O   UNL     3      -6.656  10.475  65.216  1.00  0.00    -0.213 OA 
HETATM   31  H   UNL     3      -5.837  10.349  65.679  1.00  0.00     0.000 HD 
BRANCH  29  32
HETATM   32  C   UNL     3      -7.688   9.395  67.054  1.00  0.00    -0.091 C  
HETATM   33  H   UNL     3      -8.553  10.629  68.323  1.00  0.00     0.000 HD 
HETATM   34  O   UNL     3      -8.477  10.587  67.377  1.00  0.00    -0.122 OA 
BRANCH  32  35
HETATM   35  C   UNL     3      -6.556   9.086  68.045  1.00  0.00    -0.061 C  
HETATM   36  H   UNL     3      -5.481  10.144  69.257  1.00  0.00     0.000 HD 
HETATM   37  O   UNL     3      -6.182  10.335  68.644  1.00  0.00    -0.047 OA 
BRANCH  35  38
HETATM   38  C   UNL     3      -6.830   8.006  69.085  1.00  0.00    -0.052 C  
HETATM   39  C   UNL     3      -7.363   8.634  70.399  1.00  0.00    -0.060 C  
HETATM   40  O   UNL     3      -5.632   7.263  69.385  1.00  0.00    -0.015 OA 
HETATM   41  O   UNL     3      -7.562   9.890  70.377  1.00  0.00    -0.175 OA 
HETATM   42  O   UNL     3      -7.309   7.857  71.392  1.00  0.00    -0.061 OA 
HETATM   43  H   UNL     3      -5.803   6.589  70.033  1.00  0.00     0.000 HD 
ENDBRANCH  35  38
ENDBRANCH  32  35
ENDBRANCH  29  32
ENDBRANCH  26  29
ENDBRANCH   6  26
TORSDOF 10
ENDMDL
MODEL      498
REMARK 921   NORMALIZED FREE ENERGY PREDICTED BY IDOCK:    2.91 KCAL/MOL
REMARK 922        TOTAL FREE ENERGY PREDICTED BY IDOCK:    2.11 KCAL/MOL
REMARK 923 INTER-LIGAND FREE ENERGY PREDICTED BY IDOCK:   -4.67 KCAL/MOL
REMARK 924 INTRA-LIGAND FREE ENERGY PREDICTED BY IDOCK:    6.78 KCAL/MOL
REMARK 927      BINDING AFFINITY PREDICTED BY RF-SCORE:    0.00 PKD
ROOT
HETATM    1 CA   UNL     1      -9.574  14.657  68.058  1.00  0.00    -0.185 Ca 
HETATM    2  O   UNL     2      -7.074  10.162  65.515  1.00  0.00    -0.125 OA 
HETATM    3  O   UNL     3     -10.130  20.871  67.263  1.00  0.00    -0.347 OA 
HETATM    4  H   UNL     2      -6.323  10.016  66.079  1.00  0.00     0.000 HD 
HETATM    5  C   UNL     2      -7.782  11.310  65.978  1.00  0.00     0.070 C  
HETATM    6  C   UNL     3      -9.361  19.902  67.970  1.00  0.00    -0.329 C  
HETATM    7  H   UNL     3     -10.476  21.519  67.865  1.00  0.00     0.000 HD 
ENDROOT
BRANCH   5   8
HETATM    8  C   UNL     2      -9.003  11.547  65.063  1.00  0.00     0.147 C  
HETATM    9  O   UNL     2      -9.957  10.525  65.327  1.00  0.00    -0.259 OA 
HETATM   10  H   UNL     2     -10.709  10.670  64.763  1.00  0.00     0.000 HD 
BRANCH   8  11
HETATM   11  C   UNL     2      -9.664  12.904  65.355  1.00  0.00    -0.027 C  
HETATM   12  H   UNL     2     -10.737  14.297  64.382  1.00  0.00     0.000 HD 
HETATM   13  O   UNL     2     -10.328  13.458  64.202  1.00  0.00    -0.380 OA 
BRANCH  11  14
HETATM   14  C   UNL     2     -10.593  13.053  66.585  1.00  0.00    -0.266 C  
HETATM   15  O   UNL     2     -10.219  14.194  67.341  1.00  0.00    -0.242 OA 
HETATM   16  H   UNL     2     -10.789  14.285  68.096  1.00  0.00     0.000 HD 
BRANCH  14  17
HETATM   17  C   UNL     2     -10.899  11.793  67.416  1.00  0.00    -0.251 C  
HETATM   18  H   UNL     2      -9.827  10.388  68.248  1.00  0.00     0.000 HD 
HETATM   19  O   UNL     2      -9.637  11.166  67.736  1.00  0.00    -0.167 OA 
BRANCH  17  20
HETATM   20  C   UNL     2     -11.758  12.005  68.663  1.00  0.00    -0.326 C  
HETATM   21  O   UNL     2     -10.951  12.055  69.859  1.00  0.00    -0.454 OA 
HETATM   22  C   UNL     2     -12.511  13.354  68.487  1.00  0.00     0.367 C  
HETATM   23  H   UNL     2     -11.485  12.187  70.634  1.00  0.00     0.000 HD 
HETATM   24  O   UNL     2     -12.936  13.560  67.319  1.00  0.00     0.627 OA 
HETATM   25  O   UNL     2     -12.557  14.042  69.541  1.00  0.00    -0.222 OA 
ENDBRANCH  17  20
ENDBRANCH  14  17
ENDBRANCH  11  14
ENDBRANCH   8  11
ENDBRANCH   5   8
BRANCH   6  26
HETATM   26  C   UNL     3      -8.802  18.855  66.996  1.00  0.00    -0.294 C  
HETATM   27  H   UNL     3      -7.668  18.919  65.450  1.00  0.00     0.000 HD 
HETATM   28  O   UNL     3      -8.013  19.567  66.052  1.00  0.00    -0.326 OA 
BRANCH  26  29
HETATM   29  C   UNL     3      -8.019  17.731  67.726  1.00  0.00    -0.225 C  
HETATM   30  O   UNL     3      -8.824  16.472  67.684  1.00  0.00    -0.190 OA 
HETATM   31  H   UNL     3      -8.345  15.784  68.131  1.00  0.00     0.000 HD 
BRANCH  29  32
HETATM   32  C   UNL     3      -6.710  17.311  67.024  1.00  0.00    -0.185 C  
HETATM   33  H   UNL     3      -6.186  16.968  65.156  1.00  0.00     0.000 HD 
HETATM   34  O   UNL     3      -6.992  17.226  65.588  1.00  0.00    -0.127 OA 
BRANCH  32  35
HETATM   35  C   UNL     3      -5.725  16.255  67.549  1.00  0.00    -0.152 C  
HETATM   36  H   UNL     3      -4.532  16.141  69.067  1.00  0.00     0.000 HD 
HETATM   37  O   UNL     3      -5.141  16.794  68.741  1.00  0.00    -0.117 OA 
BRANCH  35  38
HETATM   38  C   UNL     3      -6.277  14.849  67.759  1.00  0.00    -0.145 C  
HETATM   39  C   UNL     3      -6.930  14.722  69.160  1.00  0.00    -0.138 C  
HETATM   40  O   UNL     3      -5.231  13.864  67.649  1.00  0.00    -0.293 OA 
HETATM   41  O   UNL     3      -6.980  15.788  69.851  1.00  0.00    -0.140 OA 
HETATM   42  O   UNL     3      -7.117  13.529  69.527  1.00  0.00     0.030 OA 
HETATM   43  H   UNL     3      -5.574  12.987  67.780  1.00  0.00     0.000 HD 
ENDBRANCH  35  38
ENDBRANCH  32  35
ENDBRANCH  29  32
ENDBRANCH  26  29
ENDBRANCH   6  26
TORSDOF 10
ENDMDL
MODEL      499
REMARK 921   NORMALIZED FREE ENERGY PREDICTED BY IDOCK:   18.92 KCAL/MOL
REMARK 922        TOTAL FREE ENERGY PREDICTED BY IDOCK:   27.48 KCAL/MOL
REMARK 923 INTER-LIGAND FREE ENERGY PREDICTED BY IDOCK:   14.02 KCAL/MOL
REMARK 924 INTRA-LIGAND FREE ENERGY PREDICTED BY IDOCK:   13.46 KCAL/MOL
REMARK 927      BINDING AFFINITY PREDICTED BY RF-SCORE:    0.00 PKD
ROOT
HETATM    1 CA   UNL     1      -9.476  12.308  67.244  1.00  0.00    -0.167 Ca 
HETATM    2  O   UNL     2      -9.320   7.786  63.716  1.00  0.00     1.054 OA 
HETATM    3  O   UNL     3      -5.794  15.191  71.449  1.00  0.00     0.110 OA 
HETATM    4  H   UNL     2      -9.848   7.154  64.191  1.00  0.00     0.000 HD 
HETATM    5  C   UNL     2      -9.200   8.970  64.503  1.00  0.00     0.212 C  
HETATM    6  C   UNL     3      -6.846  14.235  71.360  1.00  0.00     1.478 C  
HETATM    7  H   UNL     3      -6.022  15.872  72.071  1.00  0.00     0.000 HD 
ENDROOT
BRANCH   5   8
HETATM    8  C   UNL     2      -8.342   9.996  63.732  1.00  0.00    -0.170 C  
HETATM    9  O   UNL     2      -8.070   9.463  62.440  1.00  0.00    -0.121 OA 
HETATM   10  H   UNL     2      -7.541  10.095  61.966  1.00  0.00     0.000 HD 
BRANCH   8  11
HETATM   11  C   UNL     2      -9.091  11.326  63.551  1.00  0.00    -0.070 C  
HETATM   12  H   UNL     2     -10.465  12.126  62.322  1.00  0.00     0.000 HD 
HETATM   13  O   UNL     2     -10.002  11.304  62.434  1.00  0.00     0.026 OA 
BRANCH  11  14
HETATM   14  C   UNL     2      -9.803  11.974  64.764  1.00  0.00    -0.163 C  
HETATM   15  O   UNL     2      -9.479  13.353  64.837  1.00  0.00    -0.366 OA 
HETATM   16  H   UNL     2      -9.916  13.751  65.582  1.00  0.00     0.000 HD 
BRANCH  14  17
HETATM   17  C   UNL     2      -9.766  11.224  66.109  1.00  0.00    -0.220 C  
HETATM   18  H   UNL     2      -8.379  10.786  67.413  1.00  0.00     0.000 HD 
HETATM   19  O   UNL     2      -8.402  11.249  66.583  1.00  0.00    -0.154 OA 
BRANCH  17  20
HETATM   20  C   UNL     2     -10.746  11.713  67.175  1.00  0.00    -0.247 C  
HETATM   21  O   UNL     2     -11.282  13.013  66.844  1.00  0.00    -0.276 OA 
HETATM   22  C   UNL     2     -11.903  10.679  67.257  1.00  0.00     1.065 C  
HETATM   23  H   UNL     2     -11.891  13.317  67.507  1.00  0.00     0.000 HD 
HETATM   24  O   UNL     2     -11.530   9.479  67.168  1.00  0.00     0.430 OA 
HETATM   25  O   UNL     2     -13.040  11.208  67.375  1.00  0.00     4.194 OA 
ENDBRANCH  17  20
ENDBRANCH  14  17
ENDBRANCH  11  14
ENDBRANCH   8  11
ENDBRANCH   5   8
BRANCH   6  26
HETATM   26  C   UNL     3      -6.478  13.134  70.355  1.00  0.00     0.323 C  
HETATM   27  H   UNL     3      -6.549  11.216  70.366  1.00  0.00     0.000 HD 
HETATM   28  O   UNL     3      -6.777  11.897  70.988  1.00  0.00     0.963 OA 
BRANCH  26  29
HETATM   29  C   UNL     3      -7.199  13.316  68.993  1.00  0.00    -0.007 C  
HETATM   30  O   UNL     3      -8.664  13.088  69.184  1.00  0.00    -0.195 OA 
HETATM   31  H   UNL     3      -9.106  13.199  68.350  1.00  0.00     0.000 HD 
BRANCH  29  32
HETATM   32  C   UNL     3      -7.157  14.757  68.440  1.00  0.00    -0.114 C  
HETATM   33  H   UNL     3      -6.027  16.336  68.769  1.00  0.00     0.000 HD 
HETATM   34  O   UNL     3      -6.053  15.450  69.110  1.00  0.00    -0.102 OA 
BRANCH  32  35
HETATM   35  C   UNL     3      -8.388  15.632  68.159  1.00  0.00    -0.146 C  
HETATM   36  H   UNL     3      -8.881  17.459  68.560  1.00  0.00     0.000 HD 
HETATM   37  O   UNL     3      -8.119  16.917  68.734  1.00  0.00    -0.243 OA 
BRANCH  35  38
HETATM   38  C   UNL     3      -8.842  15.731  66.707  1.00  0.00    -0.267 C  
HETATM   39  C   UNL     3      -8.347  14.505  65.895  1.00  0.00     1.690 C  
HETATM   40  O   UNL     3      -8.332  16.928  66.088  1.00  0.00    -0.366 OA 
HETATM   41  O   UNL     3      -7.741  13.605  66.556  1.00  0.00     0.661 OA 
HETATM   42  O   UNL     3      -8.404  14.668  64.645  1.00  0.00     5.212 OA 
HETATM   43  H   UNL     3      -8.615  16.990  65.183  1.00  0.00     0.000 HD 
ENDBRANCH  35  38
ENDBRANCH  32  35
ENDBRANCH  29  32
ENDBRANCH  26  29
ENDBRANCH   6  26
TORSDOF 10
ENDMDL
