MODEL        1
REMARK 921   NORMALIZED FREE ENERGY PREDICTED BY IDOCK:   -8.99 KCAL/MOL
REMARK 922        TOTAL FREE ENERGY PREDICTED BY IDOCK:  -12.22 KCAL/MOL
REMARK 923 INTER-LIGAND FREE ENERGY PREDICTED BY IDOCK:  -11.62 KCAL/MOL
REMARK 924 INTRA-LIGAND FREE ENERGY PREDICTED BY IDOCK:   -0.60 KCAL/MOL
REMARK 927      BINDING AFFINITY PREDICTED BY RF-SCORE:    0.00 PKD
ROOT
HETATM    1  C   UNL     1     -10.708  14.435  67.725  1.00  0.00    -0.248 C  
HETATM    2  O   UNL     1     -11.734  14.576  66.718  1.00  0.00    -0.373 OA 
HETATM    3  H   UNL     1      -8.350  12.252  68.373  1.00  0.00     0.000 HD 
HETATM    4  C   UNL     1     -11.213  14.565  65.386  1.00  0.00    -0.342 C  
HETATM    5  O   UNL     1      -8.824  13.069  68.474  1.00  0.00    -0.141 OA 
HETATM    6  C   UNL     1     -10.543  13.217  65.084  1.00  0.00    -0.330 C  
HETATM    7  H   UNL     1      -8.171  11.521  66.519  1.00  0.00     0.000 HD 
HETATM    8  O   UNL     1      -8.860  11.673  65.884  1.00  0.00    -0.164 OA 
HETATM    9  O   UNL     1      -9.935  13.173  63.784  1.00  0.00    -0.741 OA 
HETATM   10  C   UNL     1      -9.432  12.972  66.106  1.00  0.00    -0.150 C  
HETATM   11  H   UNL     1      -9.521  12.340  63.597  1.00  0.00     0.000 HD 
HETATM   12  C   UNL     1      -9.935  13.106  67.560  1.00  0.00    -0.223 C  
ENDROOT
BRANCH   1  13
HETATM   13  C   UNL     1     -11.346  14.590  69.102  1.00  0.00    -0.305 A  
HETATM   14  C   UNL     1     -12.398  14.782  71.735  1.00  0.00    -0.414 A  
HETATM   15  C   UNL     1     -12.845  14.897  73.169  1.00  0.00    -0.619 C  
HETATM   16  C   UNL     1     -12.610  13.610  70.982  1.00  0.00    -0.441 A  
HETATM   17  C   UNL     1     -11.171  15.752  69.861  1.00  0.00    -0.335 A  
HETATM   18  C   UNL     1     -11.689  15.845  71.156  1.00  0.00    -0.490 A  
HETATM   19  C   UNL     1     -12.103  13.544  69.664  1.00  0.00    -0.365 A  
BRANCH  16  20
HETATM   20  C   UNL     1     -13.253  12.375  71.588  1.00  0.00    -0.367 C  
BRANCH  20  21
HETATM   21  C   UNL     1     -12.604  11.044  71.322  1.00  0.00    -0.412 A  
HETATM   22  C   UNL     1     -11.564  10.690  70.487  1.00  0.00    -0.444 A  
HETATM   23  C   UNL     1     -11.083   9.366  70.756  1.00  0.00    -0.365 A  
HETATM   24  C   UNL     1     -11.758   8.744  71.794  1.00  0.00    -0.346 A  
HETATM   25  S   UNL     1     -13.113   9.698  72.256  1.00  0.00    -0.318 SA 
BRANCH  24  26
HETATM   26  C   UNL     1     -11.454   7.478  72.499  1.00  0.00    -0.376 A  
HETATM   27  C   UNL     1     -10.547   7.445  73.576  1.00  0.00    -0.388 A  
HETATM   28  C   UNL     1     -10.198   6.242  74.198  1.00  0.00    -0.338 A  
HETATM   29  C   UNL     1     -10.741   5.053  73.736  1.00  0.00    -0.301 A  
HETATM   30  F   UNL     1     -10.382   3.898  74.312  1.00  0.00    -0.173 F  
HETATM   31  C   UNL     1     -11.643   5.050  72.682  1.00  0.00    -0.118 A  
HETATM   32  C   UNL     1     -12.001   6.256  72.067  1.00  0.00    -0.353 A  
ENDBRANCH  24  26
ENDBRANCH  20  21
ENDBRANCH  16  20
ENDBRANCH   1  13
BRANCH   4  33
HETATM   33  C   UNL     1     -12.351  14.851  64.399  1.00  0.00    -0.323 C  
HETATM   34  O   UNL     1     -12.112  16.091  63.727  1.00  0.00    -1.318 OA 
HETATM   35  H   UNL     1     -12.817  16.269  63.115  1.00  0.00     0.000 HD 
ENDBRANCH   4  33
TORSDOF 5
ENDMDL
MODEL        2
REMARK 921   NORMALIZED FREE ENERGY PREDICTED BY IDOCK:   -8.45 KCAL/MOL
REMARK 922        TOTAL FREE ENERGY PREDICTED BY IDOCK:  -11.52 KCAL/MOL
REMARK 923 INTER-LIGAND FREE ENERGY PREDICTED BY IDOCK:  -10.29 KCAL/MOL
REMARK 924 INTRA-LIGAND FREE ENERGY PREDICTED BY IDOCK:   -1.23 KCAL/MOL
REMARK 927      BINDING AFFINITY PREDICTED BY RF-SCORE:    0.00 PKD
ROOT
HETATM    1  C   UNL     1     -10.471   8.225  69.674  1.00  0.00    -0.221 C  
HETATM    2  O   UNL     1     -11.784   8.404  70.248  1.00  0.00    -0.083 OA 
HETATM    3  H   UNL     1      -7.391   8.730  70.676  1.00  0.00     0.000 HD 
HETATM    4  C   UNL     1     -11.948   7.714  71.490  1.00  0.00    -0.303 C  
HETATM    5  O   UNL     1      -8.070   8.410  70.093  1.00  0.00    -0.102 OA 
HETATM    6  C   UNL     1     -10.977   8.266  72.542  1.00  0.00    -0.354 C  
HETATM    7  H   UNL     1      -7.748   8.628  72.642  1.00  0.00     0.000 HD 
HETATM    8  O   UNL     1      -8.637   8.717  72.964  1.00  0.00    -0.395 OA 
HETATM    9  O   UNL     1     -11.043   7.559  73.790  1.00  0.00    -0.522 OA 
HETATM   10  C   UNL     1      -9.545   8.122  72.023  1.00  0.00    -0.219 C  
HETATM   11  H   UNL     1     -10.443   7.901  74.442  1.00  0.00     0.000 HD 
HETATM   12  C   UNL     1      -9.366   8.745  70.622  1.00  0.00    -0.195 C  
ENDROOT
BRANCH   1  13
HETATM   13  C   UNL     1     -10.441   8.887  68.299  1.00  0.00    -0.243 A  
HETATM   14  C   UNL     1     -10.258  10.230  65.801  1.00  0.00    -0.289 A  
HETATM   15  C   UNL     1     -10.044  10.945  64.494  1.00  0.00    -0.404 C  
HETATM   16  C   UNL     1     -11.004  10.804  66.850  1.00  0.00    -0.255 A  
HETATM   17  C   UNL     1      -9.727   8.326  67.235  1.00  0.00    -0.234 A  
HETATM   18  C   UNL     1      -9.638   8.988  66.006  1.00  0.00    -0.342 A  
HETATM   19  C   UNL     1     -11.107  10.108  68.075  1.00  0.00    -0.302 A  
BRANCH  16  20
HETATM   20  C   UNL     1     -11.591  12.200  66.743  1.00  0.00    -0.412 C  
BRANCH  20  21
HETATM   21  C   UNL     1     -10.750  13.353  67.218  1.00  0.00    -0.260 A  
HETATM   22  C   UNL     1      -9.388  13.469  67.406  1.00  0.00    -0.228 A  
HETATM   23  C   UNL     1      -8.982  14.831  67.597  1.00  0.00    -0.183 A  
HETATM   24  C   UNL     1     -10.041  15.724  67.541  1.00  0.00    -0.245 A  
HETATM   25  S   UNL     1     -11.526  14.858  67.493  1.00  0.00    -0.329 SA 
BRANCH  24  26
HETATM   26  C   UNL     1     -10.031  17.204  67.498  1.00  0.00    -0.279 A  
HETATM   27  C   UNL     1      -9.915  17.896  66.277  1.00  0.00    -0.333 A  
HETATM   28  C   UNL     1      -9.830  19.291  66.235  1.00  0.00    -0.456 A  
HETATM   29  C   UNL     1      -9.841  20.011  67.419  1.00  0.00    -0.422 A  
HETATM   30  F   UNL     1      -9.729  21.345  67.380  1.00  0.00    -0.583 F  
HETATM   31  C   UNL     1      -9.961  19.363  68.640  1.00  0.00    -0.527 A  
HETATM   32  C   UNL     1     -10.058  17.965  68.681  1.00  0.00    -0.394 A  
ENDBRANCH  24  26
ENDBRANCH  20  21
ENDBRANCH  16  20
ENDBRANCH   1  13
BRANCH   4  33
HETATM   33  C   UNL     1     -13.404   7.852  71.953  1.00  0.00    -0.282 C  
HETATM   34  O   UNL     1     -13.500   8.862  72.961  1.00  0.00    -0.897 OA 
HETATM   35  H   UNL     1     -14.401   8.948  73.248  1.00  0.00     0.000 HD 
ENDBRANCH   4  33
TORSDOF 5
ENDMDL
MODEL        3
REMARK 921   NORMALIZED FREE ENERGY PREDICTED BY IDOCK:   -8.40 KCAL/MOL
REMARK 922        TOTAL FREE ENERGY PREDICTED BY IDOCK:  -11.46 KCAL/MOL
REMARK 923 INTER-LIGAND FREE ENERGY PREDICTED BY IDOCK:  -11.31 KCAL/MOL
REMARK 924 INTRA-LIGAND FREE ENERGY PREDICTED BY IDOCK:   -0.15 KCAL/MOL
REMARK 927      BINDING AFFINITY PREDICTED BY RF-SCORE:    0.00 PKD
ROOT
HETATM    1  C   UNL     1     -11.125  15.131  67.947  1.00  0.00    -0.321 C  
HETATM    2  O   UNL     1     -10.939  16.508  67.555  1.00  0.00    -0.277 OA 
HETATM    3  H   UNL     1     -12.704  12.538  66.711  1.00  0.00     0.000 HD 
HETATM    4  C   UNL     1     -10.385  16.646  66.244  1.00  0.00    -0.317 C  
HETATM    5  O   UNL     1     -12.117  12.991  67.305  1.00  0.00    -0.348 OA 
HETATM    6  C   UNL     1     -11.339  16.059  65.195  1.00  0.00    -0.074 C  
HETATM    7  H   UNL     1     -12.726  13.145  64.804  1.00  0.00     0.000 HD 
HETATM    8  O   UNL     1     -12.563  14.058  64.599  1.00  0.00    -0.618 OA 
HETATM    9  O   UNL     1     -10.802  16.101  63.864  1.00  0.00    -0.659 OA 
HETATM   10  C   UNL     1     -11.602  14.589  65.525  1.00  0.00    -0.350 C  
HETATM   11  H   UNL     1     -11.392  15.738  63.215  1.00  0.00     0.000 HD 
HETATM   12  C   UNL     1     -12.079  14.393  66.980  1.00  0.00    -0.342 C  
ENDROOT
BRANCH   1  13
HETATM   13  C   UNL     1     -11.593  15.091  69.399  1.00  0.00    -0.337 A  
HETATM   14  C   UNL     1     -12.323  14.910  72.139  1.00  0.00    -0.430 A  
HETATM   15  C   UNL     1     -12.596  14.823  73.618  1.00  0.00    -0.527 C  
HETATM   16  C   UNL     1     -12.637  13.853  71.262  1.00  0.00    -0.450 A  
HETATM   17  C   UNL     1     -11.316  16.136  70.285  1.00  0.00    -0.363 A  
HETATM   18  C   UNL     1     -11.676  16.046  71.633  1.00  0.00    -0.583 A  
HETATM   19  C   UNL     1     -12.291  13.973  69.897  1.00  0.00    -0.367 A  
BRANCH  16  20
HETATM   20  C   UNL     1     -13.218  12.543  71.763  1.00  0.00    -0.444 C  
BRANCH  20  21
HETATM   21  C   UNL     1     -12.597  11.265  71.269  1.00  0.00    -0.382 A  
HETATM   22  C   UNL     1     -11.655  11.031  70.288  1.00  0.00    -0.414 A  
HETATM   23  C   UNL     1     -11.139   9.694  70.341  1.00  0.00    -0.346 A  
HETATM   24  C   UNL     1     -11.690   8.942  71.367  1.00  0.00    -0.315 A  
HETATM   25  S   UNL     1     -12.989   9.808  72.087  1.00  0.00    -0.349 SA 
BRANCH  24  26
HETATM   26  C   UNL     1     -11.302   7.607  71.877  1.00  0.00    -0.308 A  
HETATM   27  C   UNL     1     -10.955   7.418  73.229  1.00  0.00    -0.367 A  
HETATM   28  C   UNL     1     -10.516   6.178  73.702  1.00  0.00    -0.289 A  
HETATM   29  C   UNL     1     -10.400   5.114  72.821  1.00  0.00    -0.197 A  
HETATM   30  F   UNL     1      -9.950   3.934  73.268  1.00  0.00    -0.138 F  
HETATM   31  C   UNL     1     -10.739   5.263  71.484  1.00  0.00    -0.221 A  
HETATM   32  C   UNL     1     -11.191   6.503  71.013  1.00  0.00    -0.362 A  
ENDBRANCH  24  26
ENDBRANCH  20  21
ENDBRANCH  16  20
ENDBRANCH   1  13
BRANCH   4  33
HETATM   33  C   UNL     1     -10.104  18.128  65.971  1.00  0.00    -0.268 C  
HETATM   34  O   UNL     1     -10.929  18.590  64.897  1.00  0.00    -0.547 OA 
HETATM   35  H   UNL     1     -10.755  19.508  64.727  1.00  0.00     0.000 HD 
ENDBRANCH   4  33
TORSDOF 5
ENDMDL
MODEL        4
REMARK 921   NORMALIZED FREE ENERGY PREDICTED BY IDOCK:   -8.40 KCAL/MOL
REMARK 922        TOTAL FREE ENERGY PREDICTED BY IDOCK:  -11.45 KCAL/MOL
REMARK 923 INTER-LIGAND FREE ENERGY PREDICTED BY IDOCK:  -10.50 KCAL/MOL
REMARK 924 INTRA-LIGAND FREE ENERGY PREDICTED BY IDOCK:   -0.95 KCAL/MOL
REMARK 927      BINDING AFFINITY PREDICTED BY RF-SCORE:    0.00 PKD
ROOT
HETATM    1  C   UNL     1     -10.974  12.312  67.025  1.00  0.00    -0.268 C  
HETATM    2  O   UNL     1     -11.970  12.456  65.990  1.00  0.00    -0.537 OA 
HETATM    3  H   UNL     1      -8.714  10.068  67.803  1.00  0.00     0.000 HD 
HETATM    4  C   UNL     1     -11.422  12.378  64.673  1.00  0.00    -0.331 C  
HETATM    5  O   UNL     1      -9.160  10.905  67.865  1.00  0.00    -0.143 OA 
HETATM    6  C   UNL     1     -10.797  10.997  64.433  1.00  0.00    -0.192 C  
HETATM    7  H   UNL     1      -8.522   9.265  65.980  1.00  0.00     0.000 HD 
HETATM    8  O   UNL     1      -9.192   9.421  65.325  1.00  0.00    -0.224 OA 
HETATM    9  O   UNL     1     -10.162  10.885  63.150  1.00  0.00    -0.523 OA 
HETATM   10  C   UNL     1      -9.718  10.747  65.489  1.00  0.00    -0.239 C  
HETATM   11  H   UNL     1      -9.775  10.030  63.001  1.00  0.00     0.000 HD 
HETATM   12  C   UNL     1     -10.248  10.950  66.924  1.00  0.00    -0.228 C  
ENDROOT
BRANCH   1  13
HETATM   13  C   UNL     1     -11.636  12.540  68.382  1.00  0.00    -0.368 A  
HETATM   14  C   UNL     1     -12.707  12.933  70.984  1.00  0.00    -0.338 A  
HETATM   15  C   UNL     1     -13.176  13.198  72.390  1.00  0.00    -0.519 C  
HETATM   16  C   UNL     1     -12.506  11.624  70.502  1.00  0.00    -0.344 A  
HETATM   17  C   UNL     1     -11.868  13.828  68.874  1.00  0.00    -0.396 A  
HETATM   18  C   UNL     1     -12.395  14.020  70.154  1.00  0.00    -0.409 A  
HETATM   19  C   UNL     1     -11.999  11.448  69.195  1.00  0.00    -0.395 A  
BRANCH  16  20
HETATM   20  C   UNL     1     -12.698  10.407  71.388  1.00  0.00    -0.551 C  
BRANCH  20  21
HETATM   21  C   UNL     1     -11.679   9.304  71.297  1.00  0.00    -0.346 A  
HETATM   22  C   UNL     1     -10.302   9.343  71.216  1.00  0.00    -0.363 A  
HETATM   23  C   UNL     1      -9.711   8.054  71.434  1.00  0.00    -0.205 A  
HETATM   24  C   UNL     1     -10.648   7.064  71.685  1.00  0.00    -0.204 A  
HETATM   25  S   UNL     1     -12.230   7.684  71.416  1.00  0.00    -0.330 SA 
BRANCH  24  26
HETATM   26  C   UNL     1     -10.454   5.668  72.141  1.00  0.00    -0.265 A  
HETATM   27  C   UNL     1      -9.840   4.712  71.310  1.00  0.00    -0.261 A  
HETATM   28  C   UNL     1      -9.720   3.375  71.704  1.00  0.00    -0.234 A  
HETATM   29  C   UNL     1     -10.232   2.977  72.928  1.00  0.00    -0.155 A  
HETATM   30  F   UNL     1     -10.145   1.690  73.292  1.00  0.00    -0.105 F  
HETATM   31  C   UNL     1     -10.837   3.894  73.774  1.00  0.00    -0.326 A  
HETATM   32  C   UNL     1     -10.947   5.235  73.385  1.00  0.00    -0.372 A  
ENDBRANCH  24  26
ENDBRANCH  20  21
ENDBRANCH  16  20
ENDBRANCH   1  13
BRANCH   4  33
HETATM   33  C   UNL     1     -12.526  12.672  63.650  1.00  0.00    -0.427 C  
HETATM   34  O   UNL     1     -12.868  11.475  62.946  1.00  0.00    -0.901 OA 
HETATM   35  H   UNL     1     -13.552  11.656  62.312  1.00  0.00     0.000 HD 
ENDBRANCH   4  33
TORSDOF 5
ENDMDL
MODEL        5
REMARK 921   NORMALIZED FREE ENERGY PREDICTED BY IDOCK:   -8.39 KCAL/MOL
REMARK 922        TOTAL FREE ENERGY PREDICTED BY IDOCK:  -11.44 KCAL/MOL
REMARK 923 INTER-LIGAND FREE ENERGY PREDICTED BY IDOCK:  -10.82 KCAL/MOL
REMARK 924 INTRA-LIGAND FREE ENERGY PREDICTED BY IDOCK:   -0.62 KCAL/MOL
REMARK 927      BINDING AFFINITY PREDICTED BY RF-SCORE:    0.00 PKD
ROOT
HETATM    1  C   UNL     1     -10.584  14.156  67.718  1.00  0.00    -0.243 C  
HETATM    2  O   UNL     1     -11.555  14.586  66.739  1.00  0.00    -0.357 OA 
HETATM    3  H   UNL     1      -8.762  11.472  68.185  1.00  0.00     0.000 HD 
HETATM    4  C   UNL     1     -11.052  14.549  65.401  1.00  0.00    -0.345 C  
HETATM    5  O   UNL     1      -9.045  12.365  68.347  1.00  0.00    -0.195 OA 
HETATM    6  C   UNL     1     -10.695  13.110  65.001  1.00  0.00    -0.323 C  
HETATM    7  H   UNL     1      -8.751  10.844  66.285  1.00  0.00     0.000 HD 
HETATM    8  O   UNL     1      -9.391  11.186  65.673  1.00  0.00    -0.208 OA 
HETATM    9  O   UNL     1     -10.113  13.021  63.692  1.00  0.00    -0.699 OA 
HETATM   10  C   UNL     1      -9.663  12.561  65.988  1.00  0.00    -0.241 C  
HETATM   11  H   UNL     1      -9.893  12.131  63.445  1.00  0.00     0.000 HD 
HETATM   12  C   UNL     1     -10.122  12.704  67.455  1.00  0.00    -0.218 C  
ENDROOT
BRANCH   1  13
HETATM   13  C   UNL     1     -11.170  14.356  69.113  1.00  0.00    -0.300 A  
HETATM   14  C   UNL     1     -12.147  14.601  71.770  1.00  0.00    -0.391 A  
HETATM   15  C   UNL     1     -12.554  14.719  73.215  1.00  0.00    -0.554 C  
HETATM   16  C   UNL     1     -12.597  13.542  70.955  1.00  0.00    -0.438 A  
HETATM   17  C   UNL     1     -10.759  15.411  69.933  1.00  0.00    -0.315 A  
HETATM   18  C   UNL     1     -11.240  15.530  71.240  1.00  0.00    -0.414 A  
HETATM   19  C   UNL     1     -12.121  13.453  69.627  1.00  0.00    -0.349 A  
BRANCH  16  20
HETATM   20  C   UNL     1     -13.474  12.430  71.500  1.00  0.00     0.018 C  
BRANCH  20  21
HETATM   21  C   UNL     1     -12.889  11.045  71.570  1.00  0.00    -0.450 A  
HETATM   22  C   UNL     1     -13.292   9.922  72.263  1.00  0.00    -0.429 A  
HETATM   23  C   UNL     1     -12.611   8.740  71.820  1.00  0.00    -0.409 A  
HETATM   24  C   UNL     1     -11.712   8.986  70.793  1.00  0.00    -0.242 A  
HETATM   25  S   UNL     1     -11.551  10.682  70.559  1.00  0.00    -0.334 SA 
BRANCH  24  26
HETATM   26  C   UNL     1     -10.964   8.034  69.940  1.00  0.00    -0.172 A  
HETATM   27  C   UNL     1      -9.953   8.480  69.067  1.00  0.00    -0.197 A  
HETATM   28  C   UNL     1      -9.294   7.598  68.205  1.00  0.00    -0.145 A  
HETATM   29  C   UNL     1      -9.654   6.259  68.194  1.00  0.00    -0.115 A  
HETATM   30  F   UNL     1      -9.043   5.420  67.346  1.00  0.00    -0.114 F  
HETATM   31  C   UNL     1     -10.641   5.785  69.046  1.00  0.00    -0.351 A  
HETATM   32  C   UNL     1     -11.293   6.667  69.917  1.00  0.00    -0.422 A  
ENDBRANCH  24  26
ENDBRANCH  20  21
ENDBRANCH  16  20
ENDBRANCH   1  13
BRANCH   4  33
HETATM   33  C   UNL     1     -12.101  15.143  64.453  1.00  0.00    -0.300 C  
HETATM   34  O   UNL     1     -11.620  16.374  63.905  1.00  0.00    -1.564 OA 
HETATM   35  H   UNL     1     -12.270  16.742  63.317  1.00  0.00     0.000 HD 
ENDBRANCH   4  33
TORSDOF 5
ENDMDL
MODEL        6
REMARK 921   NORMALIZED FREE ENERGY PREDICTED BY IDOCK:   -8.37 KCAL/MOL
REMARK 922        TOTAL FREE ENERGY PREDICTED BY IDOCK:  -11.41 KCAL/MOL
REMARK 923 INTER-LIGAND FREE ENERGY PREDICTED BY IDOCK:  -11.18 KCAL/MOL
REMARK 924 INTRA-LIGAND FREE ENERGY PREDICTED BY IDOCK:   -0.23 KCAL/MOL
REMARK 927      BINDING AFFINITY PREDICTED BY RF-SCORE:    0.00 PKD
ROOT
HETATM    1  C   UNL     1     -11.779  15.390  68.112  1.00  0.00    -0.261 C  
HETATM    2  O   UNL     1     -11.971  14.090  67.514  1.00  0.00    -0.386 OA 
HETATM    3  H   UNL     1      -9.447  17.692  68.007  1.00  0.00     0.000 HD 
HETATM    4  C   UNL     1     -11.893  14.115  66.087  1.00  0.00    -0.407 C  
HETATM    5  O   UNL     1     -10.298  17.332  68.229  1.00  0.00    -0.319 OA 
HETATM    6  C   UNL     1     -10.495  14.557  65.634  1.00  0.00    -0.336 C  
HETATM    7  H   UNL     1      -8.664  17.173  66.240  1.00  0.00     0.000 HD 
HETATM    8  O   UNL     1      -8.852  16.317  65.875  1.00  0.00    -0.392 OA 
HETATM    9  O   UNL     1     -10.379  14.674  64.208  1.00  0.00    -0.426 OA 
HETATM   10  C   UNL     1     -10.193  15.937  66.222  1.00  0.00    -0.311 C  
HETATM   11  H   UNL     1      -9.514  14.946  63.928  1.00  0.00     0.000 HD 
HETATM   12  C   UNL     1     -10.394  15.977  67.752  1.00  0.00    -0.279 C  
ENDROOT
BRANCH   1  13
HETATM   13  C   UNL     1     -12.010  15.280  69.617  1.00  0.00    -0.364 A  
HETATM   14  C   UNL     1     -12.292  14.970  72.427  1.00  0.00    -0.435 A  
HETATM   15  C   UNL     1     -12.325  14.816  73.925  1.00  0.00    -0.424 C  
HETATM   16  C   UNL     1     -12.722  13.942  71.565  1.00  0.00    -0.440 A  
HETATM   17  C   UNL     1     -11.614  16.295  70.493  1.00  0.00    -0.223 A  
HETATM   18  C   UNL     1     -11.754  16.141  71.876  1.00  0.00    -0.575 A  
HETATM   19  C   UNL     1     -12.600  14.126  70.169  1.00  0.00    -0.325 A  
BRANCH  16  20
HETATM   20  C   UNL     1     -13.193  12.599  72.093  1.00  0.00    -0.527 C  
BRANCH  20  21
HETATM   21  C   UNL     1     -12.709  11.360  71.391  1.00  0.00    -0.384 A  
HETATM   22  C   UNL     1     -12.011  11.196  70.212  1.00  0.00    -0.460 A  
HETATM   23  C   UNL     1     -11.509   9.861  70.062  1.00  0.00    -0.274 A  
HETATM   24  C   UNL     1     -11.825   9.040  71.133  1.00  0.00    -0.301 A  
HETATM   25  S   UNL     1     -12.923   9.850  72.178  1.00  0.00    -0.317 SA 
BRANCH  24  26
HETATM   26  C   UNL     1     -11.345   7.677  71.456  1.00  0.00    -0.286 A  
HETATM   27  C   UNL     1     -11.010   6.763  70.437  1.00  0.00    -0.330 A  
HETATM   28  C   UNL     1     -10.628   5.451  70.732  1.00  0.00    -0.293 A  
HETATM   29  C   UNL     1     -10.594   5.032  72.053  1.00  0.00    -0.174 A  
HETATM   30  F   UNL     1     -10.257   3.765  72.333  1.00  0.00    -0.215 F  
HETATM   31  C   UNL     1     -10.910   5.907  73.082  1.00  0.00    -0.296 A  
HETATM   32  C   UNL     1     -11.282   7.225  72.786  1.00  0.00    -0.348 A  
ENDBRANCH  24  26
ENDBRANCH  20  21
ENDBRANCH  16  20
ENDBRANCH   1  13
BRANCH   4  33
HETATM   33  C   UNL     1     -12.239  12.725  65.540  1.00  0.00    -0.463 C  
HETATM   34  O   UNL     1     -12.603  12.821  64.160  1.00  0.00    -0.609 OA 
HETATM   35  H   UNL     1     -12.817  11.960  63.821  1.00  0.00     0.000 HD 
ENDBRANCH   4  33
TORSDOF 5
ENDMDL
MODEL        7
REMARK 921   NORMALIZED FREE ENERGY PREDICTED BY IDOCK:   -8.30 KCAL/MOL
REMARK 922        TOTAL FREE ENERGY PREDICTED BY IDOCK:  -11.32 KCAL/MOL
REMARK 923 INTER-LIGAND FREE ENERGY PREDICTED BY IDOCK:  -10.11 KCAL/MOL
REMARK 924 INTRA-LIGAND FREE ENERGY PREDICTED BY IDOCK:   -1.21 KCAL/MOL
REMARK 927      BINDING AFFINITY PREDICTED BY RF-SCORE:    0.00 PKD
ROOT
HETATM    1  C   UNL     1     -11.287   9.531  69.722  1.00  0.00    -0.083 C  
HETATM    2  O   UNL     1     -12.535   9.509  70.448  1.00  0.00    -0.025 OA 
HETATM    3  H   UNL     1      -8.112   9.647  70.528  1.00  0.00     0.000 HD 
HETATM    4  C   UNL     1     -12.613   8.437  71.391  1.00  0.00    -0.277 C  
HETATM    5  O   UNL     1      -8.853   9.549  69.941  1.00  0.00    -0.175 OA 
HETATM    6  C   UNL     1     -11.530   8.591  72.468  1.00  0.00    -0.298 C  
HETATM    7  H   UNL     1      -8.294   8.880  72.368  1.00  0.00     0.000 HD 
HETATM    8  O   UNL     1      -9.146   8.858  72.786  1.00  0.00    -0.280 OA 
HETATM    9  O   UNL     1     -11.511   7.500  73.401  1.00  0.00    -0.629 OA 
HETATM   10  C   UNL     1     -10.158   8.626  71.793  1.00  0.00    -0.310 C  
HETATM   11  H   UNL     1     -10.841   7.595  74.068  1.00  0.00     0.000 HD 
HETATM   12  C   UNL     1     -10.082   9.690  70.677  1.00  0.00    -0.256 C  
ENDROOT
BRANCH   1  13
HETATM   13  C   UNL     1     -11.356  10.623  68.657  1.00  0.00    -0.345 A  
HETATM   14  C   UNL     1     -11.323  12.713  66.733  1.00  0.00    -0.373 A  
HETATM   15  C   UNL     1     -11.191  13.799  65.697  1.00  0.00    -0.306 C  
HETATM   16  C   UNL     1     -11.679  12.998  68.066  1.00  0.00    -0.397 A  
HETATM   17  C   UNL     1     -11.030  10.363  67.323  1.00  0.00    -0.306 A  
HETATM   18  C   UNL     1     -11.014  11.392  66.377  1.00  0.00    -0.315 A  
HETATM   19  C   UNL     1     -11.718  11.940  69.003  1.00  0.00    -0.391 A  
BRANCH  16  20
HETATM   20  C   UNL     1     -11.899  14.419  68.550  1.00  0.00    -0.369 C  
BRANCH  20  21
HETATM   21  C   UNL     1     -10.691  15.303  68.703  1.00  0.00    -0.245 A  
HETATM   22  C   UNL     1      -9.448  15.059  69.249  1.00  0.00    -0.171 A  
HETATM   23  C   UNL     1      -8.505  16.091  68.930  1.00  0.00    -0.232 A  
HETATM   24  C   UNL     1      -9.045  17.094  68.140  1.00  0.00    -0.247 A  
HETATM   25  S   UNL     1     -10.745  16.871  68.006  1.00  0.00    -0.341 SA 
BRANCH  24  26
HETATM   26  C   UNL     1      -8.376  18.217  67.446  1.00  0.00    -0.245 A  
HETATM   27  C   UNL     1      -7.654  18.009  66.255  1.00  0.00    -0.306 A  
HETATM   28  C   UNL     1      -6.958  19.051  65.634  1.00  0.00    -0.281 A  
HETATM   29  C   UNL     1      -6.962  20.312  66.209  1.00  0.00    -0.257 A  
HETATM   30  F   UNL     1      -6.270  21.302  65.630  1.00  0.00    -0.288 F  
HETATM   31  C   UNL     1      -7.669  20.554  67.378  1.00  0.00    -0.365 A  
HETATM   32  C   UNL     1      -8.375  19.512  67.994  1.00  0.00    -0.355 A  
ENDBRANCH  24  26
ENDBRANCH  20  21
ENDBRANCH  16  20
ENDBRANCH   1  13
BRANCH   4  33
HETATM   33  C   UNL     1     -14.014   8.416  72.013  1.00  0.00    -0.405 C  
HETATM   34  O   UNL     1     -13.962   8.931  73.347  1.00  0.00    -1.236 OA 
HETATM   35  H   UNL     1     -14.830   8.918  73.733  1.00  0.00     0.000 HD 
ENDBRANCH   4  33
TORSDOF 5
ENDMDL
MODEL        8
REMARK 921   NORMALIZED FREE ENERGY PREDICTED BY IDOCK:   -8.19 KCAL/MOL
REMARK 922        TOTAL FREE ENERGY PREDICTED BY IDOCK:  -11.18 KCAL/MOL
REMARK 923 INTER-LIGAND FREE ENERGY PREDICTED BY IDOCK:  -10.11 KCAL/MOL
REMARK 924 INTRA-LIGAND FREE ENERGY PREDICTED BY IDOCK:   -1.07 KCAL/MOL
REMARK 927      BINDING AFFINITY PREDICTED BY RF-SCORE:    0.00 PKD
ROOT
HETATM    1  C   UNL     1     -11.275  11.220  67.036  1.00  0.00    -0.255 C  
HETATM    2  O   UNL     1      -9.994  10.604  67.292  1.00  0.00    -0.178 OA 
HETATM    3  H   UNL     1     -12.587  12.960  64.588  1.00  0.00     0.000 HD 
HETATM    4  C   UNL     1      -9.603   9.684  66.269  1.00  0.00    -0.221 C  
HETATM    5  O   UNL     1     -12.593  12.475  65.405  1.00  0.00    -0.656 OA 
HETATM    6  C   UNL     1      -9.432  10.413  64.929  1.00  0.00    -0.265 C  
HETATM    7  H   UNL     1     -11.385  12.293  63.135  1.00  0.00     0.000 HD 
HETATM    8  O   UNL     1     -10.568  11.863  63.360  1.00  0.00    -0.407 OA 
HETATM    9  O   UNL     1      -9.113   9.526  63.847  1.00  0.00    -0.357 OA 
HETATM   10  C   UNL     1     -10.747  11.106  64.567  1.00  0.00    -0.297 C  
HETATM   11  H   UNL     1      -9.007   9.977  63.018  1.00  0.00     0.000 HD 
HETATM   12  C   UNL     1     -11.265  12.009  65.707  1.00  0.00    -0.334 C  
ENDROOT
BRANCH   1  13
HETATM   13  C   UNL     1     -11.658  12.077  68.240  1.00  0.00    -0.394 A  
HETATM   14  C   UNL     1     -12.221  13.614  70.562  1.00  0.00    -0.438 A  
HETATM   15  C   UNL     1     -12.405  14.454  71.798  1.00  0.00    -0.390 C  
HETATM   16  C   UNL     1     -12.511  12.235  70.551  1.00  0.00    -0.272 A  
HETATM   17  C   UNL     1     -11.403  13.451  68.268  1.00  0.00    -0.330 A  
HETATM   18  C   UNL     1     -11.681  14.207  69.411  1.00  0.00    -0.361 A  
HETATM   19  C   UNL     1     -12.250  11.493  69.377  1.00  0.00    -0.273 A  
BRANCH  16  20
HETATM   20  C   UNL     1     -12.973  11.504  71.797  1.00  0.00    -0.500 C  
BRANCH  20  21
HETATM   21  C   UNL     1     -12.968  10.000  71.772  1.00  0.00    -0.458 A  
HETATM   22  C   UNL     1     -14.003   9.087  71.775  1.00  0.00    -0.415 A  
HETATM   23  C   UNL     1     -13.555   7.762  71.457  1.00  0.00    -0.391 A  
HETATM   24  C   UNL     1     -12.193   7.695  71.208  1.00  0.00    -0.315 A  
HETATM   25  S   UNL     1     -11.460   9.201  71.600  1.00  0.00    -0.397 SA 
BRANCH  24  26
HETATM   26  C   UNL     1     -11.381   6.580  70.670  1.00  0.00    -0.409 A  
HETATM   27  C   UNL     1     -10.658   5.728  71.527  1.00  0.00    -0.304 A  
HETATM   28  C   UNL     1      -9.831   4.720  71.023  1.00  0.00    -0.267 A  
HETATM   29  C   UNL     1      -9.703   4.565  69.651  1.00  0.00    -0.218 A  
HETATM   30  F   UNL     1      -8.886   3.619  69.168  1.00  0.00    -0.102 F  
HETATM   31  C   UNL     1     -10.406   5.382  68.779  1.00  0.00    -0.240 A  
HETATM   32  C   UNL     1     -11.244   6.384  69.284  1.00  0.00    -0.440 A  
ENDBRANCH  24  26
ENDBRANCH  20  21
ENDBRANCH  16  20
ENDBRANCH   1  13
BRANCH   4  33
HETATM   33  C   UNL     1      -8.304   8.987  66.690  1.00  0.00    -0.118 C  
HETATM   34  O   UNL     1      -8.175   7.739  66.002  1.00  0.00    -0.110 OA 
HETATM   35  H   UNL     1      -7.371   7.307  66.263  1.00  0.00     0.000 HD 
ENDBRANCH   4  33
TORSDOF 5
ENDMDL
MODEL        9
REMARK 921   NORMALIZED FREE ENERGY PREDICTED BY IDOCK:   -8.15 KCAL/MOL
REMARK 922        TOTAL FREE ENERGY PREDICTED BY IDOCK:  -11.13 KCAL/MOL
REMARK 923 INTER-LIGAND FREE ENERGY PREDICTED BY IDOCK:  -10.65 KCAL/MOL
REMARK 924 INTRA-LIGAND FREE ENERGY PREDICTED BY IDOCK:   -0.48 KCAL/MOL
REMARK 927      BINDING AFFINITY PREDICTED BY RF-SCORE:    0.00 PKD
ROOT
HETATM    1  C   UNL     1      -9.952  12.579  65.484  1.00  0.00    -0.234 C  
HETATM    2  O   UNL     1     -10.198  13.778  66.252  1.00  0.00    -0.282 OA 
HETATM    3  H   UNL     1     -11.620  10.840  63.262  1.00  0.00     0.000 HD 
HETATM    4  C   UNL     1     -10.522  14.906  65.437  1.00  0.00    -0.384 C  
HETATM    5  O   UNL     1     -10.860  11.084  63.777  1.00  0.00    -0.339 OA 
HETATM    6  C   UNL     1     -11.825  14.655  64.666  1.00  0.00    -0.452 C  
HETATM    7  H   UNL     1     -12.811  12.319  62.630  1.00  0.00     0.000 HD 
HETATM    8  O   UNL     1     -12.910  13.102  63.159  1.00  0.00    -0.512 OA 
HETATM    9  O   UNL     1     -12.162  15.725  63.771  1.00  0.00    -1.113 OA 
HETATM   10  C   UNL     1     -11.665  13.393  63.814  1.00  0.00    -0.376 C  
HETATM   11  H   UNL     1     -12.968  15.570  63.294  1.00  0.00     0.000 HD 
HETATM   12  C   UNL     1     -11.189  12.183  64.646  1.00  0.00    -0.323 C  
ENDROOT
BRANCH   1  13
HETATM   13  C   UNL     1      -9.490  11.475  66.430  1.00  0.00    -0.230 A  
HETATM   14  C   UNL     1      -8.726   9.301  68.092  1.00  0.00    -0.125 A  
HETATM   15  C   UNL     1      -8.311   8.083  68.876  1.00  0.00    -0.126 C  
HETATM   16  C   UNL     1      -9.989   9.900  68.264  1.00  0.00    -0.172 A  
HETATM   17  C   UNL     1      -8.232  10.878  66.297  1.00  0.00    -0.165 A  
HETATM   18  C   UNL     1      -7.857   9.809  67.116  1.00  0.00    -0.099 A  
HETATM   19  C   UNL     1     -10.340  10.998  67.447  1.00  0.00    -0.242 A  
BRANCH  16  20
HETATM   20  C   UNL     1     -11.027   9.323  69.209  1.00  0.00    -0.105 C  
BRANCH  20  21
HETATM   21  C   UNL     1     -11.893  10.286  69.974  1.00  0.00    -0.228 A  
HETATM   22  C   UNL     1     -12.905  10.071  70.887  1.00  0.00    -0.408 A  
HETATM   23  C   UNL     1     -13.267  11.271  71.585  1.00  0.00    -0.431 A  
HETATM   24  C   UNL     1     -12.518  12.370  71.197  1.00  0.00    -0.222 A  
HETATM   25  S   UNL     1     -11.558  11.962  69.829  1.00  0.00    -0.252 SA 
BRANCH  24  26
HETATM   26  C   UNL     1     -12.443  13.724  71.792  1.00  0.00    -0.254 A  
HETATM   27  C   UNL     1     -11.786  14.776  71.125  1.00  0.00    -0.360 A  
HETATM   28  C   UNL     1     -11.647  16.037  71.713  1.00  0.00    -0.534 A  
HETATM   29  C   UNL     1     -12.150  16.255  72.986  1.00  0.00    -0.530 A  
HETATM   30  F   UNL     1     -11.990  17.454  73.562  1.00  0.00    -0.270 F  
HETATM   31  C   UNL     1     -12.810  15.243  73.669  1.00  0.00    -0.662 A  
HETATM   32  C   UNL     1     -12.959  13.983  73.074  1.00  0.00    -0.336 A  
ENDBRANCH  24  26
ENDBRANCH  20  21
ENDBRANCH  16  20
ENDBRANCH   1  13
BRANCH   4  33
HETATM   33  C   UNL     1     -10.635  16.152  66.324  1.00  0.00    -0.274 C  
HETATM   34  O   UNL     1     -10.499  17.332  65.527  1.00  0.00    -0.609 OA 
HETATM   35  H   UNL     1     -10.570  18.103  66.076  1.00  0.00     0.000 HD 
ENDBRANCH   4  33
TORSDOF 5
ENDMDL
MODEL       10
REMARK 921   NORMALIZED FREE ENERGY PREDICTED BY IDOCK:   -8.14 KCAL/MOL
REMARK 922        TOTAL FREE ENERGY PREDICTED BY IDOCK:  -11.12 KCAL/MOL
REMARK 923 INTER-LIGAND FREE ENERGY PREDICTED BY IDOCK:  -10.11 KCAL/MOL
REMARK 924 INTRA-LIGAND FREE ENERGY PREDICTED BY IDOCK:   -1.01 KCAL/MOL
REMARK 927      BINDING AFFINITY PREDICTED BY RF-SCORE:    0.00 PKD
ROOT
HETATM    1  C   UNL     1     -11.345  11.538  69.464  1.00  0.00    -0.274 C  
HETATM    2  O   UNL     1     -12.292  10.569  69.966  1.00  0.00    -0.284 OA 
HETATM    3  H   UNL     1     -11.250  14.804  69.212  1.00  0.00     0.000 HD 
HETATM    4  C   UNL     1     -12.662  10.804  71.327  1.00  0.00    -0.441 C  
HETATM    5  O   UNL     1     -10.898  13.923  69.173  1.00  0.00    -0.243 OA 
HETATM    6  C   UNL     1     -13.370  12.159  71.464  1.00  0.00    -0.032 C  
HETATM    7  H   UNL     1     -12.552  15.205  70.678  1.00  0.00     0.000 HD 
HETATM    8  O   UNL     1     -13.129  14.521  70.995  1.00  0.00    -0.350 OA 
HETATM    9  O   UNL     1     -13.698  12.484  72.823  1.00  0.00    -0.652 OA 
HETATM   10  C   UNL     1     -12.440  13.261  70.953  1.00  0.00    -0.342 C  
HETATM   11  H   UNL     1     -14.136  13.322  72.908  1.00  0.00     0.000 HD 
HETATM   12  C   UNL     1     -11.918  12.972  69.529  1.00  0.00    -0.289 C  
ENDROOT
BRANCH   1  13
HETATM   13  C   UNL     1     -10.918  11.126  68.058  1.00  0.00    -0.307 A  
HETATM   14  C   UNL     1     -10.016  10.504  65.436  1.00  0.00    -0.353 A  
HETATM   15  C   UNL     1      -9.430  10.208  64.080  1.00  0.00    -0.353 C  
HETATM   16  C   UNL     1     -11.012  11.484  65.617  1.00  0.00    -0.296 A  
HETATM   17  C   UNL     1      -9.949  10.140  67.849  1.00  0.00    -0.190 A  
HETATM   18  C   UNL     1      -9.506   9.835  66.558  1.00  0.00    -0.228 A  
HETATM   19  C   UNL     1     -11.468  11.760  66.927  1.00  0.00    -0.364 A  
BRANCH  16  20
HETATM   20  C   UNL     1     -11.514  12.337  64.467  1.00  0.00    -0.401 C  
BRANCH  20  21
HETATM   21  C   UNL     1     -11.302  13.824  64.550  1.00  0.00    -0.380 A  
HETATM   22  C   UNL     1     -12.087  14.879  64.134  1.00  0.00    -0.289 A  
HETATM   23  C   UNL     1     -11.635  16.132  64.665  1.00  0.00    -0.133 A  
HETATM   24  C   UNL     1     -10.522  16.004  65.482  1.00  0.00    -0.405 A  
HETATM   25  S   UNL     1      -9.919  14.396  65.389  1.00  0.00    -0.245 SA 
BRANCH  24  26
HETATM   26  C   UNL     1      -9.871  17.002  66.361  1.00  0.00    -0.312 A  
HETATM   27  C   UNL     1     -10.249  18.358  66.325  1.00  0.00    -0.427 A  
HETATM   28  C   UNL     1      -9.589  19.319  67.098  1.00  0.00    -0.397 A  
HETATM   29  C   UNL     1      -8.529  18.934  67.904  1.00  0.00    -0.290 A  
HETATM   30  F   UNL     1      -7.876  19.860  68.621  1.00  0.00    -0.351 F  
HETATM   31  C   UNL     1      -8.135  17.606  67.969  1.00  0.00    -0.243 A  
HETATM   32  C   UNL     1      -8.804  16.642  67.203  1.00  0.00    -0.209 A  
ENDBRANCH  24  26
ENDBRANCH  20  21
ENDBRANCH  16  20
ENDBRANCH   1  13
BRANCH   4  33
HETATM   33  C   UNL     1     -13.560   9.658  71.808  1.00  0.00    -0.343 C  
HETATM   34  O   UNL     1     -13.175   9.260  73.128  1.00  0.00    -0.684 OA 
HETATM   35  H   UNL     1     -13.732   8.550  73.426  1.00  0.00     0.000 HD 
ENDBRANCH   4  33
TORSDOF 5
ENDMDL
MODEL       11
REMARK 921   NORMALIZED FREE ENERGY PREDICTED BY IDOCK:   -8.10 KCAL/MOL
REMARK 922        TOTAL FREE ENERGY PREDICTED BY IDOCK:  -11.06 KCAL/MOL
REMARK 923 INTER-LIGAND FREE ENERGY PREDICTED BY IDOCK:  -10.33 KCAL/MOL
REMARK 924 INTRA-LIGAND FREE ENERGY PREDICTED BY IDOCK:   -0.73 KCAL/MOL
REMARK 927      BINDING AFFINITY PREDICTED BY RF-SCORE:    0.00 PKD
ROOT
HETATM    1  C   UNL     1      -9.636  16.331  66.442  1.00  0.00    -0.291 C  
HETATM    2  O   UNL     1     -10.102  17.604  65.943  1.00  0.00    -0.519 OA 
HETATM    3  H   UNL     1      -6.708  14.946  66.944  1.00  0.00     0.000 HD 
HETATM    4  C   UNL     1      -9.567  18.716  66.664  1.00  0.00    -0.333 C  
HETATM    5  O   UNL     1      -7.654  15.014  67.000  1.00  0.00    -0.186 OA 
HETATM    6  C   UNL     1      -8.040  18.767  66.515  1.00  0.00    -0.289 C  
HETATM    7  H   UNL     1      -5.656  16.640  67.115  1.00  0.00     0.000 HD 
HETATM    8  O   UNL     1      -6.026  17.457  66.801  1.00  0.00    -0.149 OA 
HETATM    9  O   UNL     1      -7.437  19.821  67.281  1.00  0.00    -0.236 OA 
HETATM   10  C   UNL     1      -7.445  17.451  67.020  1.00  0.00    -0.198 C  
HETATM   11  H   UNL     1      -6.493  19.853  67.188  1.00  0.00     0.000 HD 
HETATM   12  C   UNL     1      -8.096  16.221  66.352  1.00  0.00    -0.299 C  
ENDROOT
BRANCH   1  13
HETATM   13  C   UNL     1     -10.361  15.215  65.697  1.00  0.00    -0.379 A  
HETATM   14  C   UNL     1     -11.836  13.136  64.441  1.00  0.00    -0.441 A  
HETATM   15  C   UNL     1     -12.716  12.091  63.806  1.00  0.00    -0.516 C  
HETATM   16  C   UNL     1     -10.982  12.832  65.519  1.00  0.00    -0.310 A  
HETATM   17  C   UNL     1     -11.198  15.486  64.609  1.00  0.00    -0.381 A  
HETATM   18  C   UNL     1     -11.923  14.462  63.992  1.00  0.00    -0.288 A  
HETATM   19  C   UNL     1     -10.234  13.875  66.112  1.00  0.00    -0.307 A  
BRANCH  16  20
HETATM   20  C   UNL     1     -10.936  11.447  66.139  1.00  0.00    -0.294 C  
BRANCH  20  21
HETATM   21  C   UNL     1     -11.102  11.340  67.630  1.00  0.00    -0.277 A  
HETATM   22  C   UNL     1     -11.954  11.990  68.499  1.00  0.00    -0.273 A  
HETATM   23  C   UNL     1     -11.973  11.378  69.796  1.00  0.00    -0.422 A  
HETATM   24  C   UNL     1     -11.143  10.271  69.885  1.00  0.00    -0.304 A  
HETATM   25  S   UNL     1     -10.188  10.149  68.460  1.00  0.00    -0.184 SA 
BRANCH  24  26
HETATM   26  C   UNL     1     -11.019   9.264  70.963  1.00  0.00    -0.390 A  
HETATM   27  C   UNL     1     -12.152   8.597  71.469  1.00  0.00    -0.369 A  
HETATM   28  C   UNL     1     -12.052   7.700  72.537  1.00  0.00    -0.204 A  
HETATM   29  C   UNL     1     -10.817   7.473  73.124  1.00  0.00    -0.395 A  
HETATM   30  F   UNL     1     -10.727   6.636  74.167  1.00  0.00    -0.332 F  
HETATM   31  C   UNL     1      -9.680   8.107  72.647  1.00  0.00    -0.360 A  
HETATM   32  C   UNL     1      -9.778   8.997  71.569  1.00  0.00    -0.365 A  
ENDBRANCH  24  26
ENDBRANCH  20  21
ENDBRANCH  16  20
ENDBRANCH   1  13
BRANCH   4  33
HETATM   33  C   UNL     1     -10.217  20.007  66.153  1.00  0.00    -0.475 C  
HETATM   34  O   UNL     1      -9.877  21.098  67.014  1.00  0.00    -0.560 OA 
HETATM   35  H   UNL     1     -10.280  21.898  66.697  1.00  0.00     0.000 HD 
ENDBRANCH   4  33
TORSDOF 5
ENDMDL
MODEL       12
REMARK 921   NORMALIZED FREE ENERGY PREDICTED BY IDOCK:   -8.05 KCAL/MOL
REMARK 922        TOTAL FREE ENERGY PREDICTED BY IDOCK:  -11.01 KCAL/MOL
REMARK 923 INTER-LIGAND FREE ENERGY PREDICTED BY IDOCK:   -9.65 KCAL/MOL
REMARK 924 INTRA-LIGAND FREE ENERGY PREDICTED BY IDOCK:   -1.35 KCAL/MOL
REMARK 927      BINDING AFFINITY PREDICTED BY RF-SCORE:    0.00 PKD
ROOT
HETATM    1  C   UNL     1     -10.254   8.084  69.650  1.00  0.00    -0.208 C  
HETATM    2  O   UNL     1     -11.593   8.364  70.115  1.00  0.00    -0.084 OA 
HETATM    3  H   UNL     1      -7.226   8.568  70.810  1.00  0.00     0.000 HD 
HETATM    4  C   UNL     1     -11.866   7.800  71.400  1.00  0.00    -0.297 C  
HETATM    5  O   UNL     1      -7.879   8.220  70.214  1.00  0.00    -0.087 OA 
HETATM    6  C   UNL     1     -10.942   8.412  72.462  1.00  0.00    -0.318 C  
HETATM    7  H   UNL     1      -7.714   8.664  72.749  1.00  0.00     0.000 HD 
HETATM    8  O   UNL     1      -8.618   8.815  73.000  1.00  0.00    -0.382 OA 
HETATM    9  O   UNL     1     -11.120   7.829  73.761  1.00  0.00    -0.404 OA 
HETATM   10  C   UNL     1      -9.487   8.168  72.057  1.00  0.00    -0.215 C  
HETATM   11  H   UNL     1     -10.548   8.208  74.419  1.00  0.00     0.000 HD 
HETATM   12  C   UNL     1      -9.191   8.650  70.621  1.00  0.00    -0.174 C  
ENDROOT
BRANCH   1  13
HETATM   13  C   UNL     1     -10.107   8.612  68.226  1.00  0.00    -0.225 A  
HETATM   14  C   UNL     1      -9.654   9.605  65.603  1.00  0.00    -0.338 A  
HETATM   15  C   UNL     1      -9.318  10.065  64.208  1.00  0.00    -0.345 C  
HETATM   16  C   UNL     1      -9.689  10.500  66.691  1.00  0.00    -0.232 A  
HETATM   17  C   UNL     1     -10.092   7.749  67.126  1.00  0.00    -0.328 A  
HETATM   18  C   UNL     1      -9.870   8.239  65.835  1.00  0.00     0.120 A  
HETATM   19  C   UNL     1      -9.943   9.990  67.985  1.00  0.00    -0.176 A  
BRANCH  16  20
HETATM   20  C   UNL     1      -9.337  11.967  66.533  1.00  0.00    -0.226 C  
BRANCH  20  21
HETATM   21  C   UNL     1     -10.267  12.982  67.141  1.00  0.00    -0.243 A  
HETATM   22  C   UNL     1     -11.452  13.520  66.683  1.00  0.00    -0.366 A  
HETATM   23  C   UNL     1     -12.152  14.238  67.708  1.00  0.00    -0.316 A  
HETATM   24  C   UNL     1     -11.492  14.224  68.927  1.00  0.00    -0.286 A  
HETATM   25  S   UNL     1      -9.927  13.538  68.729  1.00  0.00     0.009 SA 
BRANCH  24  26
HETATM   26  C   UNL     1     -11.954  14.671  70.260  1.00  0.00    -0.370 A  
HETATM   27  C   UNL     1     -11.504  15.884  70.817  1.00  0.00    -0.437 A  
HETATM   28  C   UNL     1     -11.878  16.277  72.105  1.00  0.00    -0.585 A  
HETATM   29  C   UNL     1     -12.693  15.449  72.861  1.00  0.00    -0.427 A  
HETATM   30  F   UNL     1     -13.026  15.812  74.108  1.00  0.00    -0.587 F  
HETATM   31  C   UNL     1     -13.161  14.251  72.342  1.00  0.00    -0.519 A  
HETATM   32  C   UNL     1     -12.796  13.863  71.046  1.00  0.00    -0.394 A  
ENDBRANCH  24  26
ENDBRANCH  20  21
ENDBRANCH  16  20
ENDBRANCH   1  13
BRANCH   4  33
HETATM   33  C   UNL     1     -13.341   8.034  71.748  1.00  0.00    -0.340 C  
HETATM   34  O   UNL     1     -13.443   8.766  72.972  1.00  0.00    -0.873 OA 
HETATM   35  H   UNL     1     -14.356   8.912  73.188  1.00  0.00     0.000 HD 
ENDBRANCH   4  33
TORSDOF 5
ENDMDL
MODEL       13
REMARK 921   NORMALIZED FREE ENERGY PREDICTED BY IDOCK:   -8.04 KCAL/MOL
REMARK 922        TOTAL FREE ENERGY PREDICTED BY IDOCK:  -10.99 KCAL/MOL
REMARK 923 INTER-LIGAND FREE ENERGY PREDICTED BY IDOCK:   -9.80 KCAL/MOL
REMARK 924 INTRA-LIGAND FREE ENERGY PREDICTED BY IDOCK:   -1.19 KCAL/MOL
REMARK 927      BINDING AFFINITY PREDICTED BY RF-SCORE:    0.00 PKD
ROOT
HETATM    1  C   UNL     1     -11.127  15.688  66.655  1.00  0.00    -0.147 C  
HETATM    2  O   UNL     1     -10.241  16.745  66.228  1.00  0.00    -0.309 OA 
HETATM    3  H   UNL     1     -11.803  14.206  69.499  1.00  0.00     0.000 HD 
HETATM    4  C   UNL     1     -10.434  17.962  66.953  1.00  0.00    -0.329 C  
HETATM    5  O   UNL     1     -11.927  14.412  68.580  1.00  0.00    -0.326 OA 
HETATM    6  C   UNL     1     -10.118  17.756  68.441  1.00  0.00    -0.376 C  
HETATM    7  H   UNL     1     -11.218  15.694  70.702  1.00  0.00     0.000 HD 
HETATM    8  O   UNL     1     -10.662  16.385  70.360  1.00  0.00    -0.221 OA 
HETATM    9  O   UNL     1     -10.367  18.926  69.234  1.00  0.00    -0.494 OA 
HETATM   10  C   UNL     1     -11.014  16.644  68.992  1.00  0.00    -0.279 C  
HETATM   11  H   UNL     1     -10.172  18.799  70.154  1.00  0.00     0.000 HD 
HETATM   12  C   UNL     1     -10.926  15.352  68.151  1.00  0.00    -0.297 C  
ENDROOT
BRANCH   1  13
HETATM   13  C   UNL     1     -10.934  14.483  65.739  1.00  0.00    -0.319 A  
HETATM   14  C   UNL     1     -10.662  12.140  64.154  1.00  0.00    -0.405 A  
HETATM   15  C   UNL     1     -10.629  10.870  63.345  1.00  0.00    -0.126 C  
HETATM   16  C   UNL     1      -9.797  12.347  65.247  1.00  0.00    -0.180 A  
HETATM   17  C   UNL     1     -11.763  14.265  64.634  1.00  0.00    -0.439 A  
HETATM   18  C   UNL     1     -11.628  13.112  63.855  1.00  0.00    -0.488 A  
HETATM   19  C   UNL     1      -9.929  13.532  66.006  1.00  0.00    -0.308 A  
BRANCH  16  20
HETATM   20  C   UNL     1      -8.818  11.283  65.706  1.00  0.00    -0.154 C  
BRANCH  20  21
HETATM   21  C   UNL     1      -8.954  10.763  67.111  1.00  0.00    -0.141 A  
HETATM   22  C   UNL     1      -8.108  10.847  68.198  1.00  0.00    -0.119 A  
HETATM   23  C   UNL     1      -8.756  10.461  69.418  1.00  0.00    -0.138 A  
HETATM   24  C   UNL     1     -10.082  10.102  69.238  1.00  0.00    -0.222 A  
HETATM   25  S   UNL     1     -10.434  10.018  67.556  1.00  0.00    -0.271 SA 
BRANCH  24  26
HETATM   26  C   UNL     1     -11.136   9.831  70.242  1.00  0.00    -0.349 A  
HETATM   27  C   UNL     1     -11.289   8.551  70.808  1.00  0.00    -0.296 A  
HETATM   28  C   UNL     1     -12.328   8.269  71.700  1.00  0.00    -0.349 A  
HETATM   29  C   UNL     1     -13.239   9.262  72.023  1.00  0.00    -0.447 A  
HETATM   30  F   UNL     1     -14.252   8.983  72.854  1.00  0.00    -0.470 F  
HETATM   31  C   UNL     1     -13.114  10.537  71.489  1.00  0.00    -0.532 A  
HETATM   32  C   UNL     1     -12.066  10.822  70.604  1.00  0.00    -0.467 A  
ENDBRANCH  24  26
ENDBRANCH  20  21
ENDBRANCH  16  20
ENDBRANCH   1  13
BRANCH   4  33
HETATM   33  C   UNL     1      -9.548  19.055  66.345  1.00  0.00    -0.353 C  
HETATM   34  O   UNL     1     -10.360  20.028  65.682  1.00  0.00    -0.449 OA 
HETATM   35  H   UNL     1      -9.811  20.706  65.305  1.00  0.00     0.000 HD 
ENDBRANCH   4  33
TORSDOF 5
ENDMDL
MODEL       14
REMARK 921   NORMALIZED FREE ENERGY PREDICTED BY IDOCK:   -8.04 KCAL/MOL
REMARK 922        TOTAL FREE ENERGY PREDICTED BY IDOCK:  -10.99 KCAL/MOL
REMARK 923 INTER-LIGAND FREE ENERGY PREDICTED BY IDOCK:  -10.57 KCAL/MOL
REMARK 924 INTRA-LIGAND FREE ENERGY PREDICTED BY IDOCK:   -0.42 KCAL/MOL
REMARK 927      BINDING AFFINITY PREDICTED BY RF-SCORE:    0.00 PKD
ROOT
HETATM    1  C   UNL     1     -11.153   9.979  69.582  1.00  0.00    -0.259 C  
HETATM    2  O   UNL     1     -11.640   8.630  69.749  1.00  0.00     0.120 OA 
HETATM    3  H   UNL     1     -12.215  12.969  70.404  1.00  0.00     0.000 HD 
HETATM    4  C   UNL     1     -11.895   8.294  71.116  1.00  0.00    -0.275 C  
HETATM    5  O   UNL     1     -11.590  12.333  70.078  1.00  0.00    -0.260 OA 
HETATM    6  C   UNL     1     -13.001   9.190  71.691  1.00  0.00    -0.365 C  
HETATM    7  H   UNL     1     -13.381  12.409  71.931  1.00  0.00     0.000 HD 
HETATM    8  O   UNL     1     -13.644  11.500  72.013  1.00  0.00    -0.302 OA 
HETATM    9  O   UNL     1     -13.248   8.949  73.084  1.00  0.00    -0.867 OA 
HETATM   10  C   UNL     1     -12.577  10.654  71.558  1.00  0.00    -0.412 C  
HETATM   11  H   UNL     1     -13.933   9.503  73.440  1.00  0.00     0.000 HD 
HETATM   12  C   UNL     1     -12.170  11.016  70.114  1.00  0.00    -0.344 C  
ENDROOT
BRANCH   1  13
HETATM   13  C   UNL     1     -10.790  10.193  68.115  1.00  0.00    -0.310 A  
HETATM   14  C   UNL     1     -10.003  10.724  65.437  1.00  0.00    -0.330 A  
HETATM   15  C   UNL     1      -9.476  11.021  64.058  1.00  0.00    -0.278 C  
HETATM   16  C   UNL     1     -10.962  11.548  66.059  1.00  0.00    -0.316 A  
HETATM   17  C   UNL     1      -9.858   9.377  67.467  1.00  0.00    -0.220 A  
HETATM   18  C   UNL     1      -9.472   9.639  66.149  1.00  0.00    -0.274 A  
HETATM   19  C   UNL     1     -11.362  11.251  67.382  1.00  0.00    -0.349 A  
BRANCH  16  20
HETATM   20  C   UNL     1     -11.481  12.811  65.398  1.00  0.00    -0.363 C  
BRANCH  20  21
HETATM   21  C   UNL     1     -11.474  14.081  66.206  1.00  0.00    -0.351 A  
HETATM   22  C   UNL     1     -11.871  14.336  67.502  1.00  0.00    -0.429 A  
HETATM   23  C   UNL     1     -11.425  15.619  67.961  1.00  0.00    -0.294 A  
HETATM   24  C   UNL     1     -10.689  16.309  67.011  1.00  0.00    -0.233 A  
HETATM   25  S   UNL     1     -10.763  15.477  65.507  1.00  0.00    -0.393 SA 
BRANCH  24  26
HETATM   26  C   UNL     1      -9.901  17.556  67.143  1.00  0.00    -0.297 A  
HETATM   27  C   UNL     1     -10.467  18.718  67.702  1.00  0.00    -0.495 A  
HETATM   28  C   UNL     1      -9.753  19.919  67.762  1.00  0.00    -0.516 A  
HETATM   29  C   UNL     1      -8.468  19.975  67.246  1.00  0.00    -0.334 A  
HETATM   30  F   UNL     1      -7.796  21.134  67.276  1.00  0.00    -0.389 F  
HETATM   31  C   UNL     1      -7.877  18.847  66.695  1.00  0.00    -0.271 A  
HETATM   32  C   UNL     1      -8.588  17.641  66.645  1.00  0.00    -0.282 A  
ENDBRANCH  24  26
ENDBRANCH  20  21
ENDBRANCH  16  20
ENDBRANCH   1  13
BRANCH   4  33
HETATM   33  C   UNL     1     -12.279   6.812  71.206  1.00  0.00    -0.364 C  
HETATM   34  O   UNL     1     -12.074   6.336  72.539  1.00  0.00    -0.516 OA 
HETATM   35  H   UNL     1     -12.312   5.419  72.595  1.00  0.00     0.000 HD 
ENDBRANCH   4  33
TORSDOF 5
ENDMDL
MODEL       15
REMARK 921   NORMALIZED FREE ENERGY PREDICTED BY IDOCK:   -7.93 KCAL/MOL
REMARK 922        TOTAL FREE ENERGY PREDICTED BY IDOCK:  -10.84 KCAL/MOL
REMARK 923 INTER-LIGAND FREE ENERGY PREDICTED BY IDOCK:   -9.67 KCAL/MOL
REMARK 924 INTRA-LIGAND FREE ENERGY PREDICTED BY IDOCK:   -1.17 KCAL/MOL
REMARK 927      BINDING AFFINITY PREDICTED BY RF-SCORE:    0.00 PKD
ROOT
HETATM    1  C   UNL     1     -10.864   8.427  69.578  1.00  0.00    -0.117 C  
HETATM    2  O   UNL     1     -11.467   9.115  70.695  1.00  0.00    -0.265 OA 
HETATM    3  H   UNL     1      -9.356   5.550  69.139  1.00  0.00     0.000 HD 
HETATM    4  C   UNL     1     -12.487   8.347  71.339  1.00  0.00    -0.288 C  
HETATM    5  O   UNL     1      -9.759   6.366  68.867  1.00  0.00    -0.126 OA 
HETATM    6  C   UNL     1     -11.895   7.063  71.936  1.00  0.00    -0.305 C  
HETATM    7  H   UNL     1     -10.177   4.598  70.696  1.00  0.00     0.000 HD 
HETATM    8  O   UNL     1     -10.592   5.098  71.388  1.00  0.00    -0.208 OA 
HETATM    9  O   UNL     1     -12.887   6.213  72.531  1.00  0.00    -0.531 OA 
HETATM   10  C   UNL     1     -11.225   6.257  70.822  1.00  0.00    -0.324 C  
HETATM   11  H   UNL     1     -12.520   5.419  72.901  1.00  0.00     0.000 HD 
HETATM   12  C   UNL     1     -10.209   7.098  70.021  1.00  0.00    -0.196 C  
ENDROOT
BRANCH   1  13
HETATM   13  C   UNL     1      -9.889   9.374  68.884  1.00  0.00    -0.176 A  
HETATM   14  C   UNL     1      -8.146  11.273  67.690  1.00  0.00    -0.119 A  
HETATM   15  C   UNL     1      -7.211  12.330  67.162  1.00  0.00    -0.100 C  
HETATM   16  C   UNL     1      -9.474  11.161  67.232  1.00  0.00    -0.178 A  
HETATM   17  C   UNL     1      -8.560   9.489  69.303  1.00  0.00    -0.149 A  
HETATM   18  C   UNL     1      -7.703  10.423  68.714  1.00  0.00    -0.104 A  
HETATM   19  C   UNL     1     -10.318  10.191  67.820  1.00  0.00    -0.253 A  
BRANCH  16  20
HETATM   20  C   UNL     1     -10.057  12.131  66.222  1.00  0.00    -0.247 C  
BRANCH  20  21
HETATM   21  C   UNL     1     -10.675  13.400  66.742  1.00  0.00    -0.277 A  
HETATM   22  C   UNL     1     -11.468  13.639  67.845  1.00  0.00    -0.348 A  
HETATM   23  C   UNL     1     -11.598  15.040  68.124  1.00  0.00    -0.360 A  
HETATM   24  C   UNL     1     -10.894  15.837  67.235  1.00  0.00    -0.298 A  
HETATM   25  S   UNL     1     -10.289  14.871  65.948  1.00  0.00    -0.338 SA 
BRANCH  24  26
HETATM   26  C   UNL     1     -10.614  17.290  67.281  1.00  0.00    -0.283 A  
HETATM   27  C   UNL     1     -10.465  18.040  66.099  1.00  0.00    -0.336 A  
HETATM   28  C   UNL     1     -10.127  19.397  66.134  1.00  0.00    -0.533 A  
HETATM   29  C   UNL     1      -9.915  20.015  67.357  1.00  0.00    -0.433 A  
HETATM   30  F   UNL     1      -9.561  21.307  67.389  1.00  0.00    -0.583 F  
HETATM   31  C   UNL     1     -10.060  19.308  68.541  1.00  0.00    -0.513 A  
HETATM   32  C   UNL     1     -10.410  17.952  68.506  1.00  0.00    -0.365 A  
ENDBRANCH  24  26
ENDBRANCH  20  21
ENDBRANCH  16  20
ENDBRANCH   1  13
BRANCH   4  33
HETATM   33  C   UNL     1     -13.155   9.204  72.421  1.00  0.00    -0.423 C  
HETATM   34  O   UNL     1     -14.348   8.564  72.881  1.00  0.00    -0.895 OA 
HETATM   35  H   UNL     1     -14.762   9.095  73.551  1.00  0.00     0.000 HD 
ENDBRANCH   4  33
TORSDOF 5
ENDMDL
MODEL       16
REMARK 921   NORMALIZED FREE ENERGY PREDICTED BY IDOCK:   -7.85 KCAL/MOL
REMARK 922        TOTAL FREE ENERGY PREDICTED BY IDOCK:  -10.75 KCAL/MOL
REMARK 923 INTER-LIGAND FREE ENERGY PREDICTED BY IDOCK:   -9.39 KCAL/MOL
REMARK 924 INTRA-LIGAND FREE ENERGY PREDICTED BY IDOCK:   -1.35 KCAL/MOL
REMARK 927      BINDING AFFINITY PREDICTED BY RF-SCORE:    0.00 PKD
ROOT
HETATM    1  C   UNL     1     -10.795  13.341  65.795  1.00  0.00    -0.274 C  
HETATM    2  O   UNL     1      -9.945  14.508  65.741  1.00  0.00    -0.309 OA 
HETATM    3  H   UNL     1     -12.354  11.689  68.158  1.00  0.00     0.000 HD 
HETATM    4  C   UNL     1     -10.553  15.667  66.316  1.00  0.00    -0.307 C  
HETATM    5  O   UNL     1     -12.130  11.913  67.262  1.00  0.00    -0.582 OA 
HETATM    6  C   UNL     1     -10.826  15.444  67.810  1.00  0.00    -0.302 C  
HETATM    7  H   UNL     1     -12.472  13.190  69.476  1.00  0.00     0.000 HD 
HETATM    8  O   UNL     1     -11.913  13.951  69.373  1.00  0.00    -0.315 OA 
HETATM    9  O   UNL     1     -11.505  16.549  68.426  1.00  0.00    -0.301 OA 
HETATM   10  C   UNL     1     -11.726  14.218  67.975  1.00  0.00    -0.351 C  
HETATM   11  H   UNL     1     -11.674  16.411  69.350  1.00  0.00     0.000 HD 
HETATM   12  C   UNL     1     -11.160  12.977  67.252  1.00  0.00    -0.273 C  
ENDROOT
BRANCH   1  13
HETATM   13  C   UNL     1     -10.113  12.201  65.044  1.00  0.00    -0.289 A  
HETATM   14  C   UNL     1      -8.967   9.965  63.718  1.00  0.00    -0.279 A  
HETATM   15  C   UNL     1      -8.468   8.741  62.995  1.00  0.00    -0.143 C  
HETATM   16  C   UNL     1      -8.672  10.197  65.076  1.00  0.00    -0.190 A  
HETATM   17  C   UNL     1     -10.370  11.961  63.690  1.00  0.00    -0.477 A  
HETATM   18  C   UNL     1      -9.805  10.861  63.039  1.00  0.00    -0.358 A  
HETATM   19  C   UNL     1      -9.229  11.331  65.711  1.00  0.00    -0.236 A  
BRANCH  16  20
HETATM   20  C   UNL     1      -7.880   9.203  65.905  1.00  0.00    -0.105 C  
BRANCH  20  21
HETATM   21  C   UNL     1      -8.143   9.155  67.385  1.00  0.00    -0.107 A  
HETATM   22  C   UNL     1      -7.393   9.594  68.456  1.00  0.00    -0.078 A  
HETATM   23  C   UNL     1      -8.148   9.608  69.676  1.00  0.00    -0.143 A  
HETATM   24  C   UNL     1      -9.459   9.189  69.506  1.00  0.00    -0.168 A  
HETATM   25  S   UNL     1      -9.666   8.568  67.916  1.00  0.00    -0.169 SA 
BRANCH  24  26
HETATM   26  C   UNL     1     -10.599   9.236  70.450  1.00  0.00    -0.298 A  
HETATM   27  C   UNL     1     -10.769   8.244  71.435  1.00  0.00    -0.282 A  
HETATM   28  C   UNL     1     -11.882   8.241  72.280  1.00  0.00    -0.451 A  
HETATM   29  C   UNL     1     -12.850   9.223  72.138  1.00  0.00    -0.408 A  
HETATM   30  F   UNL     1     -13.932   9.202  72.928  1.00  0.00    -0.459 F  
HETATM   31  C   UNL     1     -12.711  10.220  71.183  1.00  0.00    -0.502 A  
HETATM   32  C   UNL     1     -11.589  10.229  70.343  1.00  0.00    -0.411 A  
ENDBRANCH  24  26
ENDBRANCH  20  21
ENDBRANCH  16  20
ENDBRANCH   1  13
BRANCH   4  33
HETATM   33  C   UNL     1      -9.636  16.877  66.096  1.00  0.00    -0.254 C  
HETATM   34  O   UNL     1     -10.422  18.039  65.816  1.00  0.00    -0.573 OA 
HETATM   35  H   UNL     1      -9.855  18.788  65.679  1.00  0.00     0.000 HD 
ENDBRANCH   4  33
TORSDOF 5
ENDMDL
MODEL       17
REMARK 921   NORMALIZED FREE ENERGY PREDICTED BY IDOCK:   -7.84 KCAL/MOL
REMARK 922        TOTAL FREE ENERGY PREDICTED BY IDOCK:  -10.73 KCAL/MOL
REMARK 923 INTER-LIGAND FREE ENERGY PREDICTED BY IDOCK:   -9.58 KCAL/MOL
REMARK 924 INTRA-LIGAND FREE ENERGY PREDICTED BY IDOCK:   -1.16 KCAL/MOL
REMARK 927      BINDING AFFINITY PREDICTED BY RF-SCORE:    0.00 PKD
ROOT
HETATM    1  C   UNL     1     -10.757  13.286  66.428  1.00  0.00    -0.285 C  
HETATM    2  O   UNL     1     -10.828  14.636  66.935  1.00  0.00    -0.293 OA 
HETATM    3  H   UNL     1     -12.191  11.622  63.995  1.00  0.00     0.000 HD 
HETATM    4  C   UNL     1     -10.552  15.622  65.938  1.00  0.00    -0.343 C  
HETATM    5  O   UNL     1     -11.567  11.761  64.697  1.00  0.00    -0.285 OA 
HETATM    6  C   UNL     1     -11.602  15.563  64.820  1.00  0.00    -0.256 C  
HETATM    7  H   UNL     1     -12.649  13.198  62.850  1.00  0.00     0.000 HD 
HETATM    8  O   UNL     1     -12.646  14.070  63.227  1.00  0.00    -0.801 OA 
HETATM    9  O   UNL     1     -11.334  16.481  63.750  1.00  0.00    -1.553 OA 
HETATM   10  C   UNL     1     -11.605  14.158  64.213  1.00  0.00    -0.309 C  
HETATM   11  H   UNL     1     -11.983  16.445  63.058  1.00  0.00     0.000 HD 
HETATM   12  C   UNL     1     -11.772  13.059  65.284  1.00  0.00    -0.353 C  
ENDROOT
BRANCH   1  13
HETATM   13  C   UNL     1     -10.936  12.313  67.590  1.00  0.00    -0.287 A  
HETATM   14  C   UNL     1     -11.123  10.576  69.831  1.00  0.00    -0.371 A  
HETATM   15  C   UNL     1     -11.193   9.747  71.086  1.00  0.00    -0.444 C  
HETATM   16  C   UNL     1     -10.195  10.298  68.808  1.00  0.00    -0.205 A  
HETATM   17  C   UNL     1     -11.865  12.553  68.606  1.00  0.00    -0.340 A  
HETATM   18  C   UNL     1     -11.957  11.697  69.708  1.00  0.00    -0.402 A  
HETATM   19  C   UNL     1     -10.135  11.157  67.688  1.00  0.00    -0.203 A  
BRANCH  16  20
HETATM   20  C   UNL     1      -9.175   9.181  68.934  1.00  0.00    -0.139 C  
BRANCH  20  21
HETATM   21  C   UNL     1      -9.565   7.815  68.439  1.00  0.00    -0.152 A  
HETATM   22  C   UNL     1     -10.673   7.035  68.700  1.00  0.00    -0.225 A  
HETATM   23  C   UNL     1     -10.779   5.926  67.797  1.00  0.00    -0.346 A  
HETATM   24  C   UNL     1      -9.757   5.891  66.860  1.00  0.00    -0.147 A  
HETATM   25  S   UNL     1      -8.570   7.071  67.255  1.00  0.00    -0.121 SA 
BRANCH  24  26
HETATM   26  C   UNL     1      -9.603   5.043  65.657  1.00  0.00    -0.138 A  
HETATM   27  C   UNL     1     -10.719   4.438  65.046  1.00  0.00    -0.128 A  
HETATM   28  C   UNL     1     -10.574   3.577  63.954  1.00  0.00    -0.269 A  
HETATM   29  C   UNL     1      -9.305   3.294  63.472  1.00  0.00    -0.097 A  
HETATM   30  F   UNL     1      -9.165   2.444  62.446  1.00  0.00    -0.080 F  
HETATM   31  C   UNL     1      -8.185   3.878  64.045  1.00  0.00    -0.091 A  
HETATM   32  C   UNL     1      -8.332   4.750  65.132  1.00  0.00    -0.129 A  
ENDBRANCH  24  26
ENDBRANCH  20  21
ENDBRANCH  16  20
ENDBRANCH   1  13
BRANCH   4  33
HETATM   33  C   UNL     1     -10.521  17.007  66.595  1.00  0.00    -0.253 C  
HETATM   34  O   UNL     1      -9.717  17.898  65.816  1.00  0.00    -0.527 OA 
HETATM   35  H   UNL     1      -9.697  18.756  66.223  1.00  0.00     0.000 HD 
ENDBRANCH   4  33
TORSDOF 5
ENDMDL
MODEL       18
REMARK 921   NORMALIZED FREE ENERGY PREDICTED BY IDOCK:   -7.82 KCAL/MOL
REMARK 922        TOTAL FREE ENERGY PREDICTED BY IDOCK:  -10.71 KCAL/MOL
REMARK 923 INTER-LIGAND FREE ENERGY PREDICTED BY IDOCK:  -10.36 KCAL/MOL
REMARK 924 INTRA-LIGAND FREE ENERGY PREDICTED BY IDOCK:   -0.35 KCAL/MOL
REMARK 927      BINDING AFFINITY PREDICTED BY RF-SCORE:    0.00 PKD
ROOT
HETATM    1  C   UNL     1     -10.323  11.420  66.660  1.00  0.00    -0.233 C  
HETATM    2  O   UNL     1     -11.503  11.620  65.852  1.00  0.00    -0.272 OA 
HETATM    3  H   UNL     1      -7.543   9.709  66.358  1.00  0.00     0.000 HD 
HETATM    4  C   UNL     1     -11.206  12.106  64.540  1.00  0.00    -0.331 C  
HETATM    5  O   UNL     1      -8.133  10.338  66.756  1.00  0.00    -0.117 OA 
HETATM    6  C   UNL     1     -10.365  11.081  63.767  1.00  0.00    -0.364 C  
HETATM    7  H   UNL     1      -7.533   9.600  64.360  1.00  0.00     0.000 HD 
HETATM    8  O   UNL     1      -8.331   9.775  63.875  1.00  0.00    -0.147 OA 
HETATM    9  O   UNL     1      -9.971  11.547  62.467  1.00  0.00    -0.538 OA 
HETATM   10  C   UNL     1      -9.080  10.799  64.548  1.00  0.00    -0.198 C  
HETATM   11  H   UNL     1      -9.451  10.913  61.988  1.00  0.00     0.000 HD 
HETATM   12  C   UNL     1      -9.363  10.395  66.011  1.00  0.00    -0.178 C  
ENDROOT
BRANCH   1  13
HETATM   13  C   UNL     1     -10.752  11.030  68.071  1.00  0.00    -0.260 A  
HETATM   14  C   UNL     1     -11.721  10.291  70.638  1.00  0.00    -0.438 A  
HETATM   15  C   UNL     1     -12.306   9.823  71.944  1.00  0.00    -0.417 C  
HETATM   16  C   UNL     1     -11.863  11.621  70.194  1.00  0.00    -0.428 A  
HETATM   17  C   UNL     1     -10.602   9.723  68.545  1.00  0.00    -0.252 A  
HETATM   18  C   UNL     1     -11.079   9.361  69.808  1.00  0.00    -0.193 A  
HETATM   19  C   UNL     1     -11.350  11.976  68.926  1.00  0.00    -0.333 A  
BRANCH  16  20
HETATM   20  C   UNL     1     -12.659  12.646  70.981  1.00  0.00    -0.354 C  
BRANCH  20  21
HETATM   21  C   UNL     1     -12.270  14.093  70.843  1.00  0.00    -0.363 A  
HETATM   22  C   UNL     1     -11.849  15.014  71.780  1.00  0.00    -0.455 A  
HETATM   23  C   UNL     1     -11.312  16.197  71.172  1.00  0.00    -0.368 A  
HETATM   24  C   UNL     1     -11.326  16.147  69.786  1.00  0.00    -0.323 A  
HETATM   25  S   UNL     1     -12.208  14.766  69.266  1.00  0.00    -0.140 SA 
BRANCH  24  26
HETATM   26  C   UNL     1     -10.702  17.058  68.799  1.00  0.00    -0.313 A  
HETATM   27  C   UNL     1     -10.181  18.306  69.189  1.00  0.00    -0.104 A  
HETATM   28  C   UNL     1      -9.658  19.202  68.252  1.00  0.00    -0.416 A  
HETATM   29  C   UNL     1      -9.667  18.865  66.907  1.00  0.00    -0.318 A  
HETATM   30  F   UNL     1      -9.195  19.737  66.006  1.00  0.00    -0.378 F  
HETATM   31  C   UNL     1     -10.167  17.641  66.489  1.00  0.00    -0.355 A  
HETATM   32  C   UNL     1     -10.680  16.738  67.430  1.00  0.00    -0.244 A  
ENDBRANCH  24  26
ENDBRANCH  20  21
ENDBRANCH  16  20
ENDBRANCH   1  13
BRANCH   4  33
HETATM   33  C   UNL     1     -12.518  12.411  63.808  1.00  0.00    -0.492 C  
HETATM   34  O   UNL     1     -12.393  13.632  63.073  1.00  0.00    -1.041 OA 
HETATM   35  H   UNL     1     -13.206  13.822  62.620  1.00  0.00     0.000 HD 
ENDBRANCH   4  33
TORSDOF 5
ENDMDL
MODEL       19
REMARK 921   NORMALIZED FREE ENERGY PREDICTED BY IDOCK:   -7.82 KCAL/MOL
REMARK 922        TOTAL FREE ENERGY PREDICTED BY IDOCK:  -10.70 KCAL/MOL
REMARK 923 INTER-LIGAND FREE ENERGY PREDICTED BY IDOCK:   -9.98 KCAL/MOL
REMARK 924 INTRA-LIGAND FREE ENERGY PREDICTED BY IDOCK:   -0.72 KCAL/MOL
REMARK 927      BINDING AFFINITY PREDICTED BY RF-SCORE:    0.00 PKD
ROOT
HETATM    1  C   UNL     1      -9.460  16.662  66.128  1.00  0.00    -0.287 C  
HETATM    2  O   UNL     1      -8.795  16.248  67.341  1.00  0.00    -0.183 OA 
HETATM    3  H   UNL     1     -11.419  19.144  65.264  1.00  0.00     0.000 HD 
HETATM    4  C   UNL     1      -7.950  17.262  67.889  1.00  0.00    -0.205 C  
HETATM    5  O   UNL     1     -10.871  18.383  65.116  1.00  0.00    -0.630 OA 
HETATM    6  C   UNL     1      -8.777  18.491  68.290  1.00  0.00    -0.311 C  
HETATM    7  H   UNL     1     -10.839  20.427  66.687  1.00  0.00     0.000 HD 
HETATM    8  O   UNL     1     -10.373  20.104  67.449  1.00  0.00    -0.398 OA 
HETATM    9  O   UNL     1      -7.971  19.574  68.778  1.00  0.00    -0.352 OA 
HETATM   10  C   UNL     1      -9.528  19.010  67.062  1.00  0.00    -0.317 C  
HETATM   11  H   UNL     1      -8.483  20.334  69.026  1.00  0.00     0.000 HD 
HETATM   12  C   UNL     1     -10.351  17.903  66.369  1.00  0.00    -0.365 C  
ENDROOT
BRANCH   1  13
HETATM   13  C   UNL     1     -10.228  15.474  65.557  1.00  0.00    -0.415 A  
HETATM   14  C   UNL     1     -11.754  13.256  64.647  1.00  0.00    -0.403 A  
HETATM   15  C   UNL     1     -12.656  12.131  64.214  1.00  0.00    -0.432 C  
HETATM   16  C   UNL     1     -10.678  13.047  65.532  1.00  0.00    -0.299 A  
HETATM   17  C   UNL     1     -11.285  15.651  64.658  1.00  0.00    -0.380 A  
HETATM   18  C   UNL     1     -12.035  14.559  64.211  1.00  0.00    -0.419 A  
HETATM   19  C   UNL     1      -9.913  14.159  65.952  1.00  0.00    -0.331 A  
BRANCH  16  20
HETATM   20  C   UNL     1     -10.398  11.687  66.145  1.00  0.00    -0.280 C  
BRANCH  20  21
HETATM   21  C   UNL     1     -10.792  11.468  67.580  1.00  0.00    -0.237 A  
HETATM   22  C   UNL     1     -11.835  11.979  68.325  1.00  0.00    -0.351 A  
HETATM   23  C   UNL     1     -12.002  11.286  69.569  1.00  0.00    -0.421 A  
HETATM   24  C   UNL     1     -11.090  10.256  69.741  1.00  0.00    -0.287 A  
HETATM   25  S   UNL     1      -9.909  10.314  68.493  1.00  0.00    -0.171 SA 
BRANCH  24  26
HETATM   26  C   UNL     1     -11.041   9.197  70.775  1.00  0.00    -0.336 A  
HETATM   27  C   UNL     1     -12.085   9.043  71.708  1.00  0.00    -0.438 A  
HETATM   28  C   UNL     1     -12.011   8.094  72.732  1.00  0.00    -0.252 A  
HETATM   29  C   UNL     1     -10.882   7.298  72.845  1.00  0.00    -0.337 A  
HETATM   30  F   UNL     1     -10.799   6.409  73.845  1.00  0.00    -0.273 F  
HETATM   31  C   UNL     1      -9.839   7.418  71.938  1.00  0.00    -0.187 A  
HETATM   32  C   UNL     1      -9.918   8.361  70.906  1.00  0.00    -0.230 A  
ENDBRANCH  24  26
ENDBRANCH  20  21
ENDBRANCH  16  20
ENDBRANCH   1  13
BRANCH   4  33
HETATM   33  C   UNL     1      -7.190  16.689  69.091  1.00  0.00    -0.220 C  
HETATM   34  O   UNL     1      -6.192  17.618  69.525  1.00  0.00    -0.242 OA 
HETATM   35  H   UNL     1      -5.722  17.263  70.270  1.00  0.00     0.000 HD 
ENDBRANCH   4  33
TORSDOF 5
ENDMDL
MODEL       20
REMARK 921   NORMALIZED FREE ENERGY PREDICTED BY IDOCK:   -7.77 KCAL/MOL
REMARK 922        TOTAL FREE ENERGY PREDICTED BY IDOCK:  -10.64 KCAL/MOL
REMARK 923 INTER-LIGAND FREE ENERGY PREDICTED BY IDOCK:   -9.82 KCAL/MOL
REMARK 924 INTRA-LIGAND FREE ENERGY PREDICTED BY IDOCK:   -0.82 KCAL/MOL
REMARK 927      BINDING AFFINITY PREDICTED BY RF-SCORE:    0.00 PKD
ROOT
HETATM    1  C   UNL     1      -9.767  16.681  68.893  1.00  0.00    -0.255 C  
HETATM    2  O   UNL     1     -10.502  17.355  67.849  1.00  0.00    -0.353 OA 
HETATM    3  H   UNL     1      -7.005  14.921  69.048  1.00  0.00     0.000 HD 
HETATM    4  C   UNL     1      -9.712  18.312  67.138  1.00  0.00    -0.304 C  
HETATM    5  O   UNL     1      -7.753  15.391  69.399  1.00  0.00    -0.203 OA 
HETATM    6  C   UNL     1      -8.548  17.616  66.418  1.00  0.00    -0.238 C  
HETATM    7  H   UNL     1      -6.137  15.674  67.409  1.00  0.00     0.000 HD 
HETATM    8  O   UNL     1      -6.663  16.141  66.771  1.00  0.00    -0.249 OA 
HETATM    9  O   UNL     1      -7.674  18.537  65.748  1.00  0.00    -0.502 OA 
HETATM   10  C   UNL     1      -7.702  16.866  67.448  1.00  0.00    -0.171 C  
HETATM   11  H   UNL     1      -6.955  18.107  65.302  1.00  0.00     0.000 HD 
HETATM   12  C   UNL     1      -8.550  15.917  68.322  1.00  0.00    -0.176 C  
ENDROOT
BRANCH   1  13
HETATM   13  C   UNL     1     -10.726  15.784  69.671  1.00  0.00    -0.292 A  
HETATM   14  C   UNL     1     -12.368  14.032  71.190  1.00  0.00    -0.443 A  
HETATM   15  C   UNL     1     -13.162  13.116  72.084  1.00  0.00    -0.561 C  
HETATM   16  C   UNL     1     -11.790  13.579  69.988  1.00  0.00    -0.371 A  
HETATM   17  C   UNL     1     -11.331  16.216  70.855  1.00  0.00    -0.394 A  
HETATM   18  C   UNL     1     -12.139  15.354  71.601  1.00  0.00    -0.449 A  
HETATM   19  C   UNL     1     -10.999  14.474  69.231  1.00  0.00    -0.282 A  
BRANCH  16  20
HETATM   20  C   UNL     1     -11.887  12.130  69.549  1.00  0.00    -0.386 C  
BRANCH  20  21
HETATM   21  C   UNL     1     -11.679  11.822  68.091  1.00  0.00    -0.307 A  
HETATM   22  C   UNL     1     -11.867  12.593  66.963  1.00  0.00    -0.415 A  
HETATM   23  C   UNL     1     -11.276  12.001  65.798  1.00  0.00    -0.383 A  
HETATM   24  C   UNL     1     -10.641  10.798  66.065  1.00  0.00    -0.156 A  
HETATM   25  S   UNL     1     -10.986  10.308  67.677  1.00  0.00    -0.244 SA 
BRANCH  24  26
HETATM   26  C   UNL     1      -9.762   9.978  65.201  1.00  0.00    -0.380 A  
HETATM   27  C   UNL     1      -8.953   8.961  65.743  1.00  0.00    -0.249 A  
HETATM   28  C   UNL     1      -8.066   8.233  64.945  1.00  0.00    -0.150 A  
HETATM   29  C   UNL     1      -7.963   8.529  63.595  1.00  0.00    -0.161 A  
HETATM   30  F   UNL     1      -7.090   7.852  62.836  1.00  0.00    -0.079 F  
HETATM   31  C   UNL     1      -8.749   9.520  63.026  1.00  0.00    -0.233 A  
HETATM   32  C   UNL     1      -9.647  10.241  63.824  1.00  0.00    -0.344 A  
ENDBRANCH  24  26
ENDBRANCH  20  21
ENDBRANCH  16  20
ENDBRANCH   1  13
BRANCH   4  33
HETATM   33  C   UNL     1     -10.606  19.065  66.147  1.00  0.00    -0.416 C  
HETATM   34  O   UNL     1     -10.793  18.280  64.965  1.00  0.00    -0.679 OA 
HETATM   35  H   UNL     1     -11.347  18.746  64.351  1.00  0.00     0.000 HD 
ENDBRANCH   4  33
TORSDOF 5
ENDMDL
MODEL       21
REMARK 921   NORMALIZED FREE ENERGY PREDICTED BY IDOCK:   -7.77 KCAL/MOL
REMARK 922        TOTAL FREE ENERGY PREDICTED BY IDOCK:  -10.64 KCAL/MOL
REMARK 923 INTER-LIGAND FREE ENERGY PREDICTED BY IDOCK:  -10.06 KCAL/MOL
REMARK 924 INTRA-LIGAND FREE ENERGY PREDICTED BY IDOCK:   -0.58 KCAL/MOL
REMARK 927      BINDING AFFINITY PREDICTED BY RF-SCORE:    0.00 PKD
ROOT
HETATM    1  C   UNL     1     -11.705  10.687  69.909  1.00  0.00    -0.317 C  
HETATM    2  O   UNL     1     -10.728  10.031  70.745  1.00  0.00    -0.303 OA 
HETATM    3  H   UNL     1     -11.785  11.781  66.819  1.00  0.00     0.000 HD 
HETATM    4  C   UNL     1     -10.231   8.817  70.177  1.00  0.00    -0.190 C  
HETATM    5  O   UNL     1     -12.150  11.557  67.667  1.00  0.00    -0.623 OA 
HETATM    6  C   UNL     1      -9.498   9.102  68.859  1.00  0.00    -0.151 C  
HETATM    7  H   UNL     1     -10.349  10.589  66.096  1.00  0.00     0.000 HD 
HETATM    8  O   UNL     1      -9.753  10.154  66.694  1.00  0.00    -0.176 OA 
HETATM    9  O   UNL     1      -9.042   7.910  68.202  1.00  0.00    -0.134 OA 
HETATM   10  C   UNL     1     -10.458   9.804  67.896  1.00  0.00    -0.239 C  
HETATM   11  H   UNL     1      -8.588   8.087  67.387  1.00  0.00     0.000 HD 
HETATM   12  C   UNL     1     -11.112  11.052  68.528  1.00  0.00    -0.243 C  
ENDROOT
BRANCH   1  13
HETATM   13  C   UNL     1     -12.265  11.893  70.658  1.00  0.00    -0.424 A  
HETATM   14  C   UNL     1     -13.431  14.155  71.922  1.00  0.00    -0.489 A  
HETATM   15  C   UNL     1     -14.153  15.311  72.562  1.00  0.00    -0.567 C  
HETATM   16  C   UNL     1     -12.549  14.339  70.839  1.00  0.00    -0.426 A  
HETATM   17  C   UNL     1     -13.123  11.740  71.751  1.00  0.00    -0.480 A  
HETATM   18  C   UNL     1     -13.696  12.854  72.372  1.00  0.00    -0.530 A  
HETATM   19  C   UNL     1     -11.957  13.203  70.241  1.00  0.00    -0.366 A  
BRANCH  16  20
HETATM   20  C   UNL     1     -12.317  15.704  70.218  1.00  0.00    -0.402 C  
BRANCH  20  21
HETATM   21  C   UNL     1     -11.449  15.779  68.991  1.00  0.00    -0.391 A  
HETATM   22  C   UNL     1     -11.628  15.277  67.718  1.00  0.00    -0.277 A  
HETATM   23  C   UNL     1     -10.688  15.825  66.784  1.00  0.00    -0.293 A  
HETATM   24  C   UNL     1      -9.820  16.739  67.361  1.00  0.00    -0.252 A  
HETATM   25  S   UNL     1     -10.022  16.728  69.069  1.00  0.00    -0.258 SA 
BRANCH  24  26
HETATM   26  C   UNL     1      -8.847  17.655  66.724  1.00  0.00    -0.275 A  
HETATM   27  C   UNL     1      -7.594  17.190  66.279  1.00  0.00    -0.352 A  
HETATM   28  C   UNL     1      -6.641  18.062  65.745  1.00  0.00    -0.298 A  
HETATM   29  C   UNL     1      -6.925  19.416  65.666  1.00  0.00    -0.282 A  
HETATM   30  F   UNL     1      -6.000  20.256  65.182  1.00  0.00    -0.196 F  
HETATM   31  C   UNL     1      -8.151  19.908  66.089  1.00  0.00    -0.347 A  
HETATM   32  C   UNL     1      -9.111  19.032  66.613  1.00  0.00    -0.346 A  
ENDBRANCH  24  26
ENDBRANCH  20  21
ENDBRANCH  16  20
ENDBRANCH   1  13
BRANCH   4  33
HETATM   33  C   UNL     1      -9.306   8.130  71.188  1.00  0.00    -0.154 C  
HETATM   34  O   UNL     1      -9.711   8.458  72.520  1.00  0.00    -0.277 OA 
HETATM   35  H   UNL     1      -9.138   8.033  73.147  1.00  0.00     0.000 HD 
ENDBRANCH   4  33
TORSDOF 5
ENDMDL
MODEL       22
REMARK 921   NORMALIZED FREE ENERGY PREDICTED BY IDOCK:   -7.73 KCAL/MOL
REMARK 922        TOTAL FREE ENERGY PREDICTED BY IDOCK:  -10.59 KCAL/MOL
REMARK 923 INTER-LIGAND FREE ENERGY PREDICTED BY IDOCK:   -9.62 KCAL/MOL
REMARK 924 INTRA-LIGAND FREE ENERGY PREDICTED BY IDOCK:   -0.98 KCAL/MOL
REMARK 927      BINDING AFFINITY PREDICTED BY RF-SCORE:    0.00 PKD
ROOT
HETATM    1  C   UNL     1     -11.719  13.090  69.121  1.00  0.00    -0.326 C  
HETATM    2  O   UNL     1     -12.425  11.993  69.740  1.00  0.00    -0.080 OA 
HETATM    3  H   UNL     1     -11.967  16.358  69.172  1.00  0.00     0.000 HD 
HETATM    4  C   UNL     1     -12.462  12.087  71.166  1.00  0.00    -0.249 C  
HETATM    5  O   UNL     1     -11.562  15.524  68.963  1.00  0.00    -0.322 OA 
HETATM    6  C   UNL     1     -13.225  13.346  71.601  1.00  0.00    -0.364 C  
HETATM    7  H   UNL     1     -12.891  16.511  70.941  1.00  0.00     0.000 HD 
HETATM    8  O   UNL     1     -13.310  15.747  71.320  1.00  0.00    -0.532 OA 
HETATM    9  O   UNL     1     -13.230  13.533  73.024  1.00  0.00    -0.493 OA 
HETATM   10  C   UNL     1     -12.549  14.575  70.990  1.00  0.00    -0.340 C  
HETATM   11  H   UNL     1     -13.703  14.312  73.293  1.00  0.00     0.000 HD 
HETATM   12  C   UNL     1     -12.377  14.447  69.461  1.00  0.00    -0.222 C  
ENDROOT
BRANCH   1  13
HETATM   13  C   UNL     1     -11.623  12.830  67.620  1.00  0.00    -0.412 A  
HETATM   14  C   UNL     1     -11.556  12.205  64.849  1.00  0.00    -0.371 A  
HETATM   15  C   UNL     1     -11.636  11.850  63.388  1.00  0.00    -0.477 C  
HETATM   16  C   UNL     1     -10.761  11.469  65.750  1.00  0.00    -0.325 A  
HETATM   17  C   UNL     1     -12.384  13.560  66.702  1.00  0.00    -0.351 A  
HETATM   18  C   UNL     1     -12.350  13.252  65.339  1.00  0.00    -0.528 A  
HETATM   19  C   UNL     1     -10.786  11.813  67.121  1.00  0.00    -0.283 A  
BRANCH  16  20
HETATM   20  C   UNL     1      -9.979  10.244  65.312  1.00  0.00    -0.387 C  
BRANCH  20  21
HETATM   21  C   UNL     1      -9.430   9.342  66.382  1.00  0.00    -0.218 A  
HETATM   22  C   UNL     1      -8.159   9.220  66.905  1.00  0.00    -0.108 A  
HETATM   23  C   UNL     1      -8.142   8.436  68.106  1.00  0.00    -0.120 A  
HETATM   24  C   UNL     1      -9.399   7.986  68.478  1.00  0.00    -0.142 A  
HETATM   25  S   UNL     1     -10.529   8.332  67.229  1.00  0.00    -0.269 SA 
BRANCH  24  26
HETATM   26  C   UNL     1      -9.838   7.324  69.728  1.00  0.00    -0.177 A  
HETATM   27  C   UNL     1      -8.992   6.428  70.411  1.00  0.00    -0.155 A  
HETATM   28  C   UNL     1      -9.426   5.742  71.549  1.00  0.00    -0.171 A  
HETATM   29  C   UNL     1     -10.721   5.931  72.008  1.00  0.00    -0.233 A  
HETATM   30  F   UNL     1     -11.146   5.250  73.081  1.00  0.00    -0.268 F  
HETATM   31  C   UNL     1     -11.578   6.811  71.363  1.00  0.00    -0.350 A  
HETATM   32  C   UNL     1     -11.139   7.507  70.229  1.00  0.00    -0.263 A  
ENDBRANCH  24  26
ENDBRANCH  20  21
ENDBRANCH  16  20
ENDBRANCH   1  13
BRANCH   4  33
HETATM   33  C   UNL     1     -13.112  10.820  71.737  1.00  0.00    -0.468 C  
HETATM   34  O   UNL     1     -13.484   9.941  70.671  1.00  0.00    -0.613 OA 
HETATM   35  H   UNL     1     -13.886   9.157  71.024  1.00  0.00     0.000 HD 
ENDBRANCH   4  33
TORSDOF 5
ENDMDL
MODEL       23
REMARK 921   NORMALIZED FREE ENERGY PREDICTED BY IDOCK:   -7.66 KCAL/MOL
REMARK 922        TOTAL FREE ENERGY PREDICTED BY IDOCK:  -10.49 KCAL/MOL
REMARK 923 INTER-LIGAND FREE ENERGY PREDICTED BY IDOCK:   -9.22 KCAL/MOL
REMARK 924 INTRA-LIGAND FREE ENERGY PREDICTED BY IDOCK:   -1.27 KCAL/MOL
REMARK 927      BINDING AFFINITY PREDICTED BY RF-SCORE:    0.00 PKD
ROOT
HETATM    1  C   UNL     1     -10.642   7.716  68.907  1.00  0.00    -0.159 C  
HETATM    2  O   UNL     1     -10.856   8.734  69.908  1.00  0.00    -0.229 OA 
HETATM    3  H   UNL     1      -9.687   4.580  68.926  1.00  0.00     0.000 HD 
HETATM    4  C   UNL     1     -11.781   8.335  70.923  1.00  0.00    -0.239 C  
HETATM    5  O   UNL     1     -10.031   5.377  68.541  1.00  0.00    -0.144 OA 
HETATM    6  C   UNL     1     -11.238   7.125  71.697  1.00  0.00    -0.244 C  
HETATM    7  H   UNL     1     -10.222   4.168  70.810  1.00  0.00     0.000 HD 
HETATM    8  O   UNL     1     -10.385   4.878  71.419  1.00  0.00    -0.199 OA 
HETATM    9  O   UNL     1     -12.159   6.631  72.681  1.00  0.00    -0.496 OA 
HETATM   10  C   UNL     1     -10.976   5.982  70.715  1.00  0.00    -0.297 C  
HETATM   11  H   UNL     1     -11.823   5.884  73.160  1.00  0.00     0.000 HD 
HETATM   12  C   UNL     1     -10.083   6.418  69.534  1.00  0.00    -0.170 C  
ENDROOT
BRANCH   1  13
HETATM   13  C   UNL     1      -9.749   8.284  67.808  1.00  0.00    -0.194 A  
HETATM   14  C   UNL     1      -8.098   9.505  65.844  1.00  0.00    -0.115 A  
HETATM   15  C   UNL     1      -7.173  10.213  64.889  1.00  0.00    -0.131 C  
HETATM   16  C   UNL     1      -9.497   9.650  65.768  1.00  0.00    -0.308 A  
HETATM   17  C   UNL     1      -8.359   8.135  67.847  1.00  0.00    -0.129 A  
HETATM   18  C   UNL     1      -7.548   8.736  66.880  1.00  0.00    -0.090 A  
HETATM   19  C   UNL     1     -10.303   9.012  66.738  1.00  0.00    -0.310 A  
BRANCH  16  20
HETATM   20  C   UNL     1     -10.152  10.571  64.754  1.00  0.00    -0.406 C  
BRANCH  20  21
HETATM   21  C   UNL     1     -10.800  11.829  65.264  1.00  0.00    -0.290 A  
HETATM   22  C   UNL     1     -11.982  12.449  64.914  1.00  0.00    -0.458 A  
HETATM   23  C   UNL     1     -12.354  13.471  65.850  1.00  0.00    -0.507 A  
HETATM   24  C   UNL     1     -11.455  13.599  66.898  1.00  0.00    -0.345 A  
HETATM   25  S   UNL     1     -10.064  12.637  66.587  1.00  0.00    -0.245 SA 
BRANCH  24  26
HETATM   26  C   UNL     1     -11.564  14.383  68.149  1.00  0.00    -0.360 A  
HETATM   27  C   UNL     1     -11.071  15.700  68.227  1.00  0.00    -0.336 A  
HETATM   28  C   UNL     1     -11.102  16.420  69.425  1.00  0.00    -0.300 A  
HETATM   29  C   UNL     1     -11.612  15.822  70.567  1.00  0.00    -0.375 A  
HETATM   30  F   UNL     1     -11.614  16.501  71.722  1.00  0.00    -0.495 F  
HETATM   31  C   UNL     1     -12.113  14.528  70.524  1.00  0.00    -0.395 A  
HETATM   32  C   UNL     1     -12.092  13.812  69.321  1.00  0.00    -0.374 A  
ENDBRANCH  24  26
ENDBRANCH  20  21
ENDBRANCH  16  20
ENDBRANCH   1  13
BRANCH   4  33
HETATM   33  C   UNL     1     -12.042   9.520  71.859  1.00  0.00    -0.337 C  
HETATM   34  O   UNL     1     -13.314   9.366  72.496  1.00  0.00    -0.545 OA 
HETATM   35  H   UNL     1     -13.477  10.100  73.076  1.00  0.00     0.000 HD 
ENDBRANCH   4  33
TORSDOF 5
ENDMDL
MODEL       24
REMARK 921   NORMALIZED FREE ENERGY PREDICTED BY IDOCK:   -7.65 KCAL/MOL
REMARK 922        TOTAL FREE ENERGY PREDICTED BY IDOCK:  -10.49 KCAL/MOL
REMARK 923 INTER-LIGAND FREE ENERGY PREDICTED BY IDOCK:  -10.33 KCAL/MOL
REMARK 924 INTRA-LIGAND FREE ENERGY PREDICTED BY IDOCK:   -0.16 KCAL/MOL
REMARK 927      BINDING AFFINITY PREDICTED BY RF-SCORE:    0.00 PKD
ROOT
HETATM    1  C   UNL     1     -11.698  15.158  68.024  1.00  0.00    -0.285 C  
HETATM    2  O   UNL     1     -11.934  13.858  67.441  1.00  0.00    -0.385 OA 
HETATM    3  H   UNL     1      -9.240  17.326  67.993  1.00  0.00     0.000 HD 
HETATM    4  C   UNL     1     -11.786  13.849  66.019  1.00  0.00    -0.366 C  
HETATM    5  O   UNL     1     -10.119  17.018  68.179  1.00  0.00    -0.279 OA 
HETATM    6  C   UNL     1     -10.345  14.204  65.628  1.00  0.00    -0.333 C  
HETATM    7  H   UNL     1      -8.402  16.729  66.277  1.00  0.00     0.000 HD 
HETATM    8  O   UNL     1      -8.620  15.877  65.918  1.00  0.00    -0.237 OA 
HETATM    9  O   UNL     1     -10.154  14.285  64.208  1.00  0.00    -0.590 OA 
HETATM   10  C   UNL     1      -9.995  15.578  66.205  1.00  0.00    -0.293 C  
HETATM   11  H   UNL     1      -9.262  14.504  63.965  1.00  0.00     0.000 HD 
HETATM   12  C   UNL     1     -10.267  15.661  67.722  1.00  0.00    -0.252 C  
ENDROOT
BRANCH   1  13
HETATM   13  C   UNL     1     -12.008  15.092  69.517  1.00  0.00    -0.346 A  
HETATM   14  C   UNL     1     -12.445  14.853  72.315  1.00  0.00    -0.422 A  
HETATM   15  C   UNL     1     -12.560  14.728  73.811  1.00  0.00    -0.465 C  
HETATM   16  C   UNL     1     -12.911  13.846  71.447  1.00  0.00    -0.439 A  
HETATM   17  C   UNL     1     -11.577  16.089  70.397  1.00  0.00    -0.364 A  
HETATM   18  C   UNL     1     -11.793  15.971  71.774  1.00  0.00    -0.599 A  
HETATM   19  C   UNL     1     -12.709  13.995  70.056  1.00  0.00    -0.136 A  
BRANCH  16  20
HETATM   20  C   UNL     1     -13.507  12.552  71.970  1.00  0.00    -0.486 C  
BRANCH  20  21
HETATM   21  C   UNL     1     -12.798  11.267  71.638  1.00  0.00    -0.405 A  
HETATM   22  C   UNL     1     -12.976   9.982  72.108  1.00  0.00    -0.460 A  
HETATM   23  C   UNL     1     -12.277   9.014  71.314  1.00  0.00    -0.373 A  
HETATM   24  C   UNL     1     -11.590   9.579  70.251  1.00  0.00    -0.169 A  
HETATM   25  S   UNL     1     -11.623  11.293  70.388  1.00  0.00    -0.107 SA 
BRANCH  24  26
HETATM   26  C   UNL     1     -10.915   8.929  69.105  1.00  0.00     0.000 A  
HETATM   27  C   UNL     1     -10.634   9.644  67.925  1.00  0.00    -0.308 A  
HETATM   28  C   UNL     1     -10.065   9.018  66.812  1.00  0.00    -0.344 A  
HETATM   29  C   UNL     1      -9.786   7.661  66.861  1.00  0.00    -0.234 A  
HETATM   30  F   UNL     1      -9.269   7.055  65.783  1.00  0.00    -0.150 F  
HETATM   31  C   UNL     1     -10.044   6.927  68.010  1.00  0.00    -0.193 A  
HETATM   32  C   UNL     1     -10.604   7.558  69.129  1.00  0.00    -0.204 A  
ENDBRANCH  24  26
ENDBRANCH  20  21
ENDBRANCH  16  20
ENDBRANCH   1  13
BRANCH   4  33
HETATM   33  C   UNL     1     -12.182  12.469  65.481  1.00  0.00    -0.377 C  
HETATM   34  O   UNL     1     -12.954  12.616  64.285  1.00  0.00    -0.730 OA 
HETATM   35  H   UNL     1     -13.199  11.761  63.952  1.00  0.00     0.000 HD 
ENDBRANCH   4  33
TORSDOF 5
ENDMDL
MODEL       25
REMARK 921   NORMALIZED FREE ENERGY PREDICTED BY IDOCK:   -7.65 KCAL/MOL
REMARK 922        TOTAL FREE ENERGY PREDICTED BY IDOCK:  -10.48 KCAL/MOL
REMARK 923 INTER-LIGAND FREE ENERGY PREDICTED BY IDOCK:   -9.35 KCAL/MOL
REMARK 924 INTRA-LIGAND FREE ENERGY PREDICTED BY IDOCK:   -1.13 KCAL/MOL
REMARK 927      BINDING AFFINITY PREDICTED BY RF-SCORE:    0.00 PKD
ROOT
HETATM    1  C   UNL     1     -10.635   9.684  69.446  1.00  0.00    -0.225 C  
HETATM    2  O   UNL     1     -11.295   8.462  69.844  1.00  0.00    -0.107 OA 
HETATM    3  H   UNL     1     -11.456  12.855  69.325  1.00  0.00     0.000 HD 
HETATM    4  C   UNL     1     -11.793   8.507  71.183  1.00  0.00    -0.284 C  
HETATM    5  O   UNL     1     -10.867  12.111  69.277  1.00  0.00    -0.169 OA 
HETATM    6  C   UNL     1     -12.863   9.599  71.321  1.00  0.00    -0.350 C  
HETATM    7  H   UNL     1     -12.900  12.792  70.709  1.00  0.00     0.000 HD 
HETATM    8  O   UNL     1     -13.276  11.956  70.959  1.00  0.00    -0.063 OA 
HETATM    9  O   UNL     1     -13.347   9.743  72.664  1.00  0.00    -0.583 OA 
HETATM   10  C   UNL     1     -12.256  10.945  70.918  1.00  0.00    -0.381 C  
HETATM   11  H   UNL     1     -14.009  10.418  72.750  1.00  0.00     0.000 HD 
HETATM   12  C   UNL     1     -11.594  10.894  69.524  1.00  0.00    -0.313 C  
ENDROOT
BRANCH   1  13
HETATM   13  C   UNL     1     -10.029   9.487  68.059  1.00  0.00    -0.198 A  
HETATM   14  C   UNL     1      -8.819   9.282  65.496  1.00  0.00    -0.224 A  
HETATM   15  C   UNL     1      -8.081   9.220  64.185  1.00  0.00    -0.145 C  
HETATM   16  C   UNL     1      -9.977  10.069  65.661  1.00  0.00    -0.355 A  
HETATM   17  C   UNL     1      -8.894   8.694  67.864  1.00  0.00    -0.137 A  
HETATM   18  C   UNL     1      -8.300   8.594  66.602  1.00  0.00    -0.108 A  
HETATM   19  C   UNL     1     -10.581  10.136  66.937  1.00  0.00    -0.267 A  
BRANCH  16  20
HETATM   20  C   UNL     1     -10.517  10.942  64.543  1.00  0.00    -0.393 C  
BRANCH  20  21
HETATM   21  C   UNL     1     -11.113  12.271  64.916  1.00  0.00    -0.311 A  
HETATM   22  C   UNL     1     -12.426  12.668  65.072  1.00  0.00    -0.556 A  
HETATM   23  C   UNL     1     -12.531  13.948  65.711  1.00  0.00    -0.530 A  
HETATM   24  C   UNL     1     -11.300  14.494  66.037  1.00  0.00    -0.341 A  
HETATM   25  S   UNL     1     -10.045  13.543  65.345  1.00  0.00    -0.222 SA 
BRANCH  24  26
HETATM   26  C   UNL     1     -10.978  15.682  66.860  1.00  0.00    -0.243 A  
HETATM   27  C   UNL     1     -10.635  16.910  66.261  1.00  0.00    -0.191 A  
HETATM   28  C   UNL     1     -10.258  18.015  67.030  1.00  0.00    -0.367 A  
HETATM   29  C   UNL     1     -10.201  17.898  68.410  1.00  0.00    -0.394 A  
HETATM   30  F   UNL     1      -9.809  18.949  69.144  1.00  0.00    -0.392 F  
HETATM   31  C   UNL     1     -10.538  16.706  69.033  1.00  0.00    -0.340 A  
HETATM   32  C   UNL     1     -10.928  15.602  68.263  1.00  0.00    -0.315 A  
ENDBRANCH  24  26
ENDBRANCH  20  21
ENDBRANCH  16  20
ENDBRANCH   1  13
BRANCH   4  33
HETATM   33  C   UNL     1     -12.355   7.131  71.557  1.00  0.00    -0.370 C  
HETATM   34  O   UNL     1     -12.000   6.809  72.905  1.00  0.00    -0.474 OA 
HETATM   35  H   UNL     1     -12.348   5.956  73.136  1.00  0.00     0.000 HD 
ENDBRANCH   4  33
TORSDOF 5
ENDMDL
MODEL       26
REMARK 921   NORMALIZED FREE ENERGY PREDICTED BY IDOCK:   -7.64 KCAL/MOL
REMARK 922        TOTAL FREE ENERGY PREDICTED BY IDOCK:  -10.47 KCAL/MOL
REMARK 923 INTER-LIGAND FREE ENERGY PREDICTED BY IDOCK:   -9.56 KCAL/MOL
REMARK 924 INTRA-LIGAND FREE ENERGY PREDICTED BY IDOCK:   -0.91 KCAL/MOL
REMARK 927      BINDING AFFINITY PREDICTED BY RF-SCORE:    0.00 PKD
ROOT
HETATM    1  C   UNL     1     -10.283   8.509  68.176  1.00  0.00    -0.208 C  
HETATM    2  O   UNL     1      -9.225   8.969  69.044  1.00  0.00    -0.139 OA 
HETATM    3  H   UNL     1     -11.205   5.615  66.943  1.00  0.00     0.000 HD 
HETATM    4  C   UNL     1      -9.200   8.291  70.302  1.00  0.00    -0.155 C  
HETATM    5  O   UNL     1     -11.293   6.541  67.134  1.00  0.00    -0.333 OA 
HETATM    6  C   UNL     1      -8.923   6.795  70.099  1.00  0.00    -0.149 C  
HETATM    7  H   UNL     1     -10.365   4.465  68.349  1.00  0.00     0.000 HD 
HETATM    8  O   UNL     1      -9.697   4.830  68.917  1.00  0.00    -0.156 OA 
HETATM    9  O   UNL     1      -8.961   6.047  71.323  1.00  0.00    -0.136 OA 
HETATM   10  C   UNL     1     -10.000   6.208  69.183  1.00  0.00    -0.154 C  
HETATM   11  H   UNL     1      -8.789   5.121  71.198  1.00  0.00     0.000 HD 
HETATM   12  C   UNL     1     -10.142   7.000  67.866  1.00  0.00    -0.169 C  
ENDROOT
BRANCH   1  13
HETATM   13  C   UNL     1     -10.306   9.379  66.923  1.00  0.00    -0.308 A  
HETATM   14  C   UNL     1     -10.243  11.117  64.676  1.00  0.00    -0.376 A  
HETATM   15  C   UNL     1     -10.097  12.057  63.509  1.00  0.00    -0.448 C  
HETATM   16  C   UNL     1     -11.109  11.398  65.752  1.00  0.00    -0.217 A  
HETATM   17  C   UNL     1      -9.475   9.109  65.831  1.00  0.00    -0.326 A  
HETATM   18  C   UNL     1      -9.445   9.965  64.726  1.00  0.00    -0.356 A  
HETATM   19  C   UNL     1     -11.147  10.507  66.848  1.00  0.00    -0.124 A  
BRANCH  16  20
HETATM   20  C   UNL     1     -11.903  12.690  65.824  1.00  0.00    -0.497 C  
BRANCH  20  21
HETATM   21  C   UNL     1     -11.558  13.666  66.916  1.00  0.00    -0.367 A  
HETATM   22  C   UNL     1     -10.986  14.921  66.867  1.00  0.00    -0.327 A  
HETATM   23  C   UNL     1     -11.100  15.616  68.116  1.00  0.00    -0.330 A  
HETATM   24  C   UNL     1     -11.764  14.882  69.086  1.00  0.00    -0.309 A  
HETATM   25  S   UNL     1     -12.022  13.278  68.522  1.00  0.00    -0.234 SA 
BRANCH  24  26
HETATM   26  C   UNL     1     -12.251  15.297  70.421  1.00  0.00    -0.404 A  
HETATM   27  C   UNL     1     -11.421  16.008  71.309  1.00  0.00    -0.475 A  
HETATM   28  C   UNL     1     -11.848  16.338  72.599  1.00  0.00    -0.596 A  
HETATM   29  C   UNL     1     -13.107  15.944  73.022  1.00  0.00    -0.541 A  
HETATM   30  F   UNL     1     -13.504  16.234  74.269  1.00  0.00    -0.158 F  
HETATM   31  C   UNL     1     -13.954  15.248  72.172  1.00  0.00    -0.650 A  
HETATM   32  C   UNL     1     -13.530  14.928  70.875  1.00  0.00    -0.356 A  
ENDBRANCH  24  26
ENDBRANCH  20  21
ENDBRANCH  16  20
ENDBRANCH   1  13
BRANCH   4  33
HETATM   33  C   UNL     1      -8.135   8.934  71.199  1.00  0.00    -0.160 C  
HETATM   34  O   UNL     1      -8.515   8.809  72.572  1.00  0.00    -0.403 OA 
HETATM   35  H   UNL     1      -7.856   9.207  73.128  1.00  0.00     0.000 HD 
ENDBRANCH   4  33
TORSDOF 5
ENDMDL
MODEL       27
REMARK 921   NORMALIZED FREE ENERGY PREDICTED BY IDOCK:   -7.63 KCAL/MOL
REMARK 922        TOTAL FREE ENERGY PREDICTED BY IDOCK:  -10.46 KCAL/MOL
REMARK 923 INTER-LIGAND FREE ENERGY PREDICTED BY IDOCK:   -9.35 KCAL/MOL
REMARK 924 INTRA-LIGAND FREE ENERGY PREDICTED BY IDOCK:   -1.11 KCAL/MOL
REMARK 927      BINDING AFFINITY PREDICTED BY RF-SCORE:    0.00 PKD
ROOT
HETATM    1  C   UNL     1      -9.775  16.501  68.959  1.00  0.00    -0.258 C  
HETATM    2  O   UNL     1     -10.456  17.138  67.855  1.00  0.00    -0.339 OA 
HETATM    3  H   UNL     1      -7.064  14.691  69.306  1.00  0.00     0.000 HD 
HETATM    4  C   UNL     1      -9.618  18.039  67.128  1.00  0.00    -0.281 C  
HETATM    5  O   UNL     1      -7.813  15.195  69.604  1.00  0.00    -0.213 OA 
HETATM    6  C   UNL     1      -8.445  17.282  66.488  1.00  0.00    -0.271 C  
HETATM    7  H   UNL     1      -6.120  15.340  67.665  1.00  0.00     0.000 HD 
HETATM    8  O   UNL     1      -6.610  15.785  66.984  1.00  0.00    -0.284 OA 
HETATM    9  O   UNL     1      -7.526  18.148  65.805  1.00  0.00    -0.505 OA 
HETATM   10  C   UNL     1      -7.655  16.566  67.585  1.00  0.00    -0.146 C  
HETATM   11  H   UNL     1      -6.801  17.680  65.409  1.00  0.00     0.000 HD 
HETATM   12  C   UNL     1      -8.557  15.682  68.473  1.00  0.00    -0.180 C  
ENDROOT
BRANCH   1  13
HETATM   13  C   UNL     1     -10.783  15.667  69.744  1.00  0.00    -0.309 A  
HETATM   14  C   UNL     1     -12.523  14.010  71.261  1.00  0.00    -0.448 A  
HETATM   15  C   UNL     1     -13.362  13.128  72.148  1.00  0.00    -0.621 C  
HETATM   16  C   UNL     1     -12.089  13.587  69.989  1.00  0.00    -0.411 A  
HETATM   17  C   UNL     1     -11.248  16.075  70.999  1.00  0.00    -0.347 A  
HETATM   18  C   UNL     1     -12.105  15.259  71.744  1.00  0.00    -0.439 A  
HETATM   19  C   UNL     1     -11.247  14.437  69.238  1.00  0.00    -0.308 A  
BRANCH  16  20
HETATM   20  C   UNL     1     -12.396  12.198  69.460  1.00  0.00    -0.027 C  
BRANCH  20  21
HETATM   21  C   UNL     1     -11.346  11.134  69.630  1.00  0.00    -0.294 A  
HETATM   22  C   UNL     1     -10.075  11.019  69.105  1.00  0.00    -0.167 A  
HETATM   23  C   UNL     1      -9.313   9.991  69.754  1.00  0.00    -0.233 A  
HETATM   24  C   UNL     1     -10.015   9.353  70.765  1.00  0.00    -0.289 A  
HETATM   25  S   UNL     1     -11.658   9.862  70.738  1.00  0.00    -0.374 SA 
BRANCH  24  26
HETATM   26  C   UNL     1      -9.543   8.389  71.784  1.00  0.00    -0.303 A  
HETATM   27  C   UNL     1      -8.256   7.822  71.708  1.00  0.00    -0.126 A  
HETATM   28  C   UNL     1      -7.830   6.856  72.624  1.00  0.00    -0.098 A  
HETATM   29  C   UNL     1      -8.696   6.431  73.619  1.00  0.00    -0.123 A  
HETATM   30  F   UNL     1      -8.299   5.483  74.479  1.00  0.00    -0.105 F  
HETATM   31  C   UNL     1      -9.969   6.973  73.728  1.00  0.00    -0.367 A  
HETATM   32  C   UNL     1     -10.391   7.950  72.817  1.00  0.00    -0.399 A  
ENDBRANCH  24  26
ENDBRANCH  20  21
ENDBRANCH  16  20
ENDBRANCH   1  13
BRANCH   4  33
HETATM   33  C   UNL     1     -10.457  18.760  66.066  1.00  0.00    -0.432 C  
HETATM   34  O   UNL     1     -10.988  17.810  65.137  1.00  0.00    -0.651 OA 
HETATM   35  H   UNL     1     -11.508  18.256  64.480  1.00  0.00     0.000 HD 
ENDBRANCH   4  33
TORSDOF 5
ENDMDL
MODEL       28
REMARK 921   NORMALIZED FREE ENERGY PREDICTED BY IDOCK:   -7.63 KCAL/MOL
REMARK 922        TOTAL FREE ENERGY PREDICTED BY IDOCK:  -10.46 KCAL/MOL
REMARK 923 INTER-LIGAND FREE ENERGY PREDICTED BY IDOCK:   -9.27 KCAL/MOL
REMARK 924 INTRA-LIGAND FREE ENERGY PREDICTED BY IDOCK:   -1.19 KCAL/MOL
REMARK 927      BINDING AFFINITY PREDICTED BY RF-SCORE:    0.00 PKD
ROOT
HETATM    1  C   UNL     1     -11.884  12.773  67.517  1.00  0.00    -0.343 C  
HETATM    2  O   UNL     1     -11.977  12.144  66.220  1.00  0.00    -0.605 OA 
HETATM    3  H   UNL     1     -10.257  15.329  68.767  1.00  0.00     0.000 HD 
HETATM    4  C   UNL     1     -12.370  13.051  65.187  1.00  0.00    -0.484 C  
HETATM    5  O   UNL     1     -10.894  14.624  68.769  1.00  0.00    -0.238 OA 
HETATM    6  C   UNL     1     -11.320  14.158  65.018  1.00  0.00    -0.350 C  
HETATM    7  H   UNL     1      -9.993  16.321  67.049  1.00  0.00     0.000 HD 
HETATM    8  O   UNL     1     -10.101  15.867  66.222  1.00  0.00    -0.266 OA 
HETATM    9  O   UNL     1     -11.697  15.143  64.044  1.00  0.00    -0.760 OA 
HETATM   10  C   UNL     1     -11.146  14.889  66.350  1.00  0.00    -0.342 C  
HETATM   11  H   UNL     1     -11.047  15.827  63.939  1.00  0.00     0.000 HD 
HETATM   12  C   UNL     1     -10.848  13.920  67.514  1.00  0.00    -0.266 C  
ENDROOT
BRANCH   1  13
HETATM   13  C   UNL     1     -11.589  11.701  68.563  1.00  0.00    -0.379 A  
HETATM   14  C   UNL     1     -10.885   9.792  70.546  1.00  0.00    -0.387 A  
HETATM   15  C   UNL     1     -10.469   8.868  71.661  1.00  0.00    -0.408 C  
HETATM   16  C   UNL     1     -10.326   9.697  69.256  1.00  0.00    -0.223 A  
HETATM   17  C   UNL     1     -12.148  11.758  69.844  1.00  0.00    -0.359 A  
HETATM   18  C   UNL     1     -11.801  10.818  70.818  1.00  0.00    -0.443 A  
HETATM   19  C   UNL     1     -10.710  10.639  68.275  1.00  0.00    -0.260 A  
BRANCH  16  20
HETATM   20  C   UNL     1      -9.234   8.695  68.928  1.00  0.00    -0.145 C  
BRANCH  20  21
HETATM   21  C   UNL     1      -9.648   7.372  68.343  1.00  0.00    -0.148 A  
HETATM   22  C   UNL     1     -10.848   6.693  68.388  1.00  0.00    -0.320 A  
HETATM   23  C   UNL     1     -10.888   5.603  67.457  1.00  0.00    -0.189 A  
HETATM   24  C   UNL     1      -9.724   5.482  66.715  1.00  0.00    -0.155 A  
HETATM   25  S   UNL     1      -8.527   6.548  67.338  1.00  0.00    -0.119 SA 
BRANCH  24  26
HETATM   26  C   UNL     1      -9.433   4.629  65.540  1.00  0.00    -0.178 A  
HETATM   27  C   UNL     1     -10.469   4.155  64.712  1.00  0.00    -0.194 A  
HETATM   28  C   UNL     1     -10.210   3.289  63.645  1.00  0.00    -0.204 A  
HETATM   29  C   UNL     1      -8.910   2.873  63.405  1.00  0.00    -0.092 A  
HETATM   30  F   UNL     1      -8.666   2.019  62.401  1.00  0.00    -0.070 F  
HETATM   31  C   UNL     1      -7.864   3.325  64.197  1.00  0.00    -0.081 A  
HETATM   32  C   UNL     1      -8.123   4.202  65.259  1.00  0.00    -0.101 A  
ENDBRANCH  24  26
ENDBRANCH  20  21
ENDBRANCH  16  20
ENDBRANCH   1  13
BRANCH   4  33
HETATM   33  C   UNL     1     -12.569  12.271  63.882  1.00  0.00    -0.440 C  
HETATM   34  O   UNL     1     -11.552  12.628  62.942  1.00  0.00    -0.722 OA 
HETATM   35  H   UNL     1     -11.675  12.145  62.133  1.00  0.00     0.000 HD 
ENDBRANCH   4  33
TORSDOF 5
ENDMDL
MODEL       29
REMARK 921   NORMALIZED FREE ENERGY PREDICTED BY IDOCK:   -7.61 KCAL/MOL
REMARK 922        TOTAL FREE ENERGY PREDICTED BY IDOCK:  -10.44 KCAL/MOL
REMARK 923 INTER-LIGAND FREE ENERGY PREDICTED BY IDOCK:   -9.41 KCAL/MOL
REMARK 924 INTRA-LIGAND FREE ENERGY PREDICTED BY IDOCK:   -1.03 KCAL/MOL
REMARK 927      BINDING AFFINITY PREDICTED BY RF-SCORE:    0.00 PKD
ROOT
HETATM    1  C   UNL     1      -9.910  14.130  65.865  1.00  0.00    -0.289 C  
HETATM    2  O   UNL     1     -11.045  13.823  65.028  1.00  0.00    -0.318 OA 
HETATM    3  H   UNL     1      -8.266  12.580  68.240  1.00  0.00     0.000 HD 
HETATM    4  C   UNL     1     -10.880  12.612  64.287  1.00  0.00    -0.379 C  
HETATM    5  O   UNL     1      -8.424  13.270  67.606  1.00  0.00    -0.164 OA 
HETATM    6  C   UNL     1     -10.753  11.414  65.238  1.00  0.00    -0.265 C  
HETATM    7  H   UNL     1      -8.761  10.715  67.710  1.00  0.00     0.000 HD 
HETATM    8  O   UNL     1      -9.497  10.572  67.127  1.00  0.00    -0.156 OA 
HETATM    9  O   UNL     1     -10.510  10.177  64.552  1.00  0.00    -0.300 OA 
HETATM   10  C   UNL     1      -9.567  11.646  66.177  1.00  0.00    -0.232 C  
HETATM   11  H   UNL     1     -10.431   9.436  65.141  1.00  0.00     0.000 HD 
HETATM   12  C   UNL     1      -9.650  13.009  66.897  1.00  0.00    -0.243 C  
ENDROOT
BRANCH   1  13
HETATM   13  C   UNL     1     -10.127  15.498  66.508  1.00  0.00    -0.290 A  
HETATM   14  C   UNL     1     -10.377  18.019  67.793  1.00  0.00    -0.403 A  
HETATM   15  C   UNL     1     -10.394  19.370  68.460  1.00  0.00    -0.413 C  
HETATM   16  C   UNL     1     -10.728  16.844  68.488  1.00  0.00    -0.359 A  
HETATM   17  C   UNL     1      -9.810  16.680  65.833  1.00  0.00    -0.301 A  
HETATM   18  C   UNL     1      -9.933  17.920  66.467  1.00  0.00    -0.357 A  
HETATM   19  C   UNL     1     -10.624  15.602  67.822  1.00  0.00    -0.281 A  
BRANCH  16  20
HETATM   20  C   UNL     1     -11.091  16.863  69.961  1.00  0.00     0.218 C  
BRANCH  20  21
HETATM   21  C   UNL     1     -11.878  15.702  70.505  1.00  0.00    -0.373 A  
HETATM   22  C   UNL     1     -13.229  15.550  70.739  1.00  0.00    -0.391 A  
HETATM   23  C   UNL     1     -13.583  14.184  70.995  1.00  0.00    -0.171 A  
HETATM   24  C   UNL     1     -12.497  13.324  70.940  1.00  0.00    -0.342 A  
HETATM   25  S   UNL     1     -11.044  14.235  70.814  1.00  0.00     0.667 SA 
BRANCH  24  26
HETATM   26  C   UNL     1     -12.458  11.844  70.954  1.00  0.00    -0.397 A  
HETATM   27  C   UNL     1     -13.261  11.104  71.844  1.00  0.00    -0.488 A  
HETATM   28  C   UNL     1     -13.176   9.710  71.915  1.00  0.00    -0.538 A  
HETATM   29  C   UNL     1     -12.270   9.041  71.107  1.00  0.00    -0.275 A  
HETATM   30  F   UNL     1     -12.166   7.707  71.198  1.00  0.00    -0.314 F  
HETATM   31  C   UNL     1     -11.468   9.737  70.215  1.00  0.00    -0.317 A  
HETATM   32  C   UNL     1     -11.563  11.133  70.136  1.00  0.00    -0.410 A  
ENDBRANCH  24  26
ENDBRANCH  20  21
ENDBRANCH  16  20
ENDBRANCH   1  13
BRANCH   4  33
HETATM   33  C   UNL     1     -12.070  12.439  63.335  1.00  0.00    -0.524 C  
HETATM   34  O   UNL     1     -12.622  13.718  63.009  1.00  0.00    -1.005 OA 
HETATM   35  H   UNL     1     -13.359  13.611  62.419  1.00  0.00     0.000 HD 
ENDBRANCH   4  33
TORSDOF 5
ENDMDL
MODEL       30
REMARK 921   NORMALIZED FREE ENERGY PREDICTED BY IDOCK:   -7.60 KCAL/MOL
REMARK 922        TOTAL FREE ENERGY PREDICTED BY IDOCK:  -10.42 KCAL/MOL
REMARK 923 INTER-LIGAND FREE ENERGY PREDICTED BY IDOCK:   -9.65 KCAL/MOL
REMARK 924 INTRA-LIGAND FREE ENERGY PREDICTED BY IDOCK:   -0.78 KCAL/MOL
REMARK 927      BINDING AFFINITY PREDICTED BY RF-SCORE:    0.00 PKD
ROOT
HETATM    1  C   UNL     1     -10.446   9.268  68.868  1.00  0.00    -0.215 C  
HETATM    2  O   UNL     1     -11.545   9.622  69.736  1.00  0.00    -0.126 OA 
HETATM    3  H   UNL     1      -7.192   9.044  69.187  1.00  0.00     0.000 HD 
HETATM    4  C   UNL     1     -11.596   8.830  70.924  1.00  0.00    -0.277 C  
HETATM    5  O   UNL     1      -8.028   8.935  68.749  1.00  0.00    -0.099 OA 
HETATM    6  C   UNL     1     -10.335   9.050  71.771  1.00  0.00    -0.337 C  
HETATM    7  H   UNL     1      -7.153   8.771  71.169  1.00  0.00     0.000 HD 
HETATM    8  O   UNL     1      -7.918   8.988  71.689  1.00  0.00    -0.326 OA 
HETATM    9  O   UNL     1     -10.295   8.222  72.943  1.00  0.00    -0.302 OA 
HETATM   10  C   UNL     1      -9.104   8.699  70.933  1.00  0.00    -0.187 C  
HETATM   11  H   UNL     1      -9.515   8.359  73.467  1.00  0.00     0.000 HD 
HETATM   12  C   UNL     1      -9.086   9.445  69.581  1.00  0.00    -0.181 C  
ENDROOT
BRANCH   1  13
HETATM   13  C   UNL     1     -10.557  10.075  67.578  1.00  0.00    -0.336 A  
HETATM   14  C   UNL     1     -10.647  11.697  65.247  1.00  0.00    -0.333 A  
HETATM   15  C   UNL     1     -10.579  12.574  64.024  1.00  0.00    -0.451 C  
HETATM   16  C   UNL     1     -11.408  12.056  66.377  1.00  0.00    -0.411 A  
HETATM   17  C   UNL     1      -9.830   9.728  66.435  1.00  0.00    -0.298 A  
HETATM   18  C   UNL     1      -9.875  10.527  65.289  1.00  0.00    -0.345 A  
HETATM   19  C   UNL     1     -11.372  11.222  67.517  1.00  0.00    -0.360 A  
BRANCH  16  20
HETATM   20  C   UNL     1     -12.161  13.372  66.450  1.00  0.00    -0.464 C  
BRANCH  20  21
HETATM   21  C   UNL     1     -11.693  14.394  67.450  1.00  0.00    -0.397 A  
HETATM   22  C   UNL     1     -11.815  14.444  68.824  1.00  0.00    -0.360 A  
HETATM   23  C   UNL     1     -10.977  15.453  69.404  1.00  0.00    -0.276 A  
HETATM   24  C   UNL     1     -10.228  16.142  68.464  1.00  0.00    -0.241 A  
HETATM   25  S   UNL     1     -10.740  15.703  66.882  1.00  0.00    -0.282 SA 
BRANCH  24  26
HETATM   26  C   UNL     1      -9.122  17.107  68.655  1.00  0.00    -0.268 A  
HETATM   27  C   UNL     1      -9.331  18.492  68.505  1.00  0.00    -0.364 A  
HETATM   28  C   UNL     1      -8.276  19.403  68.611  1.00  0.00    -0.399 A  
HETATM   29  C   UNL     1      -6.993  18.937  68.851  1.00  0.00    -0.311 A  
HETATM   30  F   UNL     1      -5.977  19.808  68.922  1.00  0.00    -0.238 F  
HETATM   31  C   UNL     1      -6.752  17.580  69.012  1.00  0.00    -0.247 A  
HETATM   32  C   UNL     1      -7.811  16.668  68.917  1.00  0.00    -0.240 A  
ENDBRANCH  24  26
ENDBRANCH  20  21
ENDBRANCH  16  20
ENDBRANCH   1  13
BRANCH   4  33
HETATM   33  C   UNL     1     -12.862   9.187  71.712  1.00  0.00    -0.377 C  
HETATM   34  O   UNL     1     -14.023   8.808  70.967  1.00  0.00    -0.595 OA 
HETATM   35  H   UNL     1     -14.807   9.029  71.455  1.00  0.00     0.000 HD 
ENDBRANCH   4  33
TORSDOF 5
ENDMDL
MODEL       31
REMARK 921   NORMALIZED FREE ENERGY PREDICTED BY IDOCK:   -7.60 KCAL/MOL
REMARK 922        TOTAL FREE ENERGY PREDICTED BY IDOCK:  -10.42 KCAL/MOL
REMARK 923 INTER-LIGAND FREE ENERGY PREDICTED BY IDOCK:   -9.72 KCAL/MOL
REMARK 924 INTRA-LIGAND FREE ENERGY PREDICTED BY IDOCK:   -0.70 KCAL/MOL
REMARK 927      BINDING AFFINITY PREDICTED BY RF-SCORE:    0.00 PKD
ROOT
HETATM    1  C   UNL     1     -10.984  12.579  65.745  1.00  0.00    -0.292 C  
HETATM    2  O   UNL     1     -10.430  13.872  65.416  1.00  0.00    -0.311 OA 
HETATM    3  H   UNL     1     -11.888  11.054  68.502  1.00  0.00     0.000 HD 
HETATM    4  C   UNL     1     -11.224  14.958  65.898  1.00  0.00    -0.328 C  
HETATM    5  O   UNL     1     -11.810  11.168  67.562  1.00  0.00    -0.591 OA 
HETATM    6  C   UNL     1     -11.292  14.934  67.431  1.00  0.00    -0.347 C  
HETATM    7  H   UNL     1     -12.212  12.695  69.600  1.00  0.00     0.000 HD 
HETATM    8  O   UNL     1     -11.854  13.528  69.318  1.00  0.00    -0.301 OA 
HETATM    9  O   UNL     1     -12.139  15.960  67.970  1.00  0.00    -0.200 OA 
HETATM   10  C   UNL     1     -11.870  13.592  67.884  1.00  0.00    -0.366 C  
HETATM   11  H   UNL     1     -12.181  15.945  68.918  1.00  0.00     0.000 HD 
HETATM   12  C   UNL     1     -11.112  12.394  67.275  1.00  0.00    -0.281 C  
ENDROOT
BRANCH   1  13
HETATM   13  C   UNL     1     -10.139  11.497  65.078  1.00  0.00    -0.315 A  
HETATM   14  C   UNL     1      -8.705   9.369  63.859  1.00  0.00    -0.225 A  
HETATM   15  C   UNL     1      -8.045   8.209  63.160  1.00  0.00    -0.127 C  
HETATM   16  C   UNL     1      -8.791   9.438  65.264  1.00  0.00    -0.227 A  
HETATM   17  C   UNL     1     -10.018  11.419  63.687  1.00  0.00    -0.402 A  
HETATM   18  C   UNL     1      -9.312  10.371  63.089  1.00  0.00    -0.340 A  
HETATM   19  C   UNL     1      -9.484  10.519  65.853  1.00  0.00    -0.236 A  
BRANCH  16  20
HETATM   20  C   UNL     1      -8.272   8.323  66.153  1.00  0.00    -0.119 C  
BRANCH  20  21
HETATM   21  C   UNL     1      -9.275   7.539  66.954  1.00  0.00    -0.149 A  
HETATM   22  C   UNL     1     -10.099   6.490  66.602  1.00  0.00    -0.201 A  
HETATM   23  C   UNL     1     -10.688   5.857  67.747  1.00  0.00    -0.346 A  
HETATM   24  C   UNL     1     -10.292   6.430  68.946  1.00  0.00    -0.201 A  
HETATM   25  S   UNL     1      -9.403   7.869  68.633  1.00  0.00    -0.145 SA 
BRANCH  24  26
HETATM   26  C   UNL     1     -10.511   5.968  70.335  1.00  0.00    -0.307 A  
HETATM   27  C   UNL     1      -9.884   4.805  70.822  1.00  0.00    -0.280 A  
HETATM   28  C   UNL     1     -10.144   4.321  72.108  1.00  0.00    -0.255 A  
HETATM   29  C   UNL     1     -11.051   4.987  72.917  1.00  0.00    -0.279 A  
HETATM   30  F   UNL     1     -11.323   4.506  74.137  1.00  0.00    -0.264 F  
HETATM   31  C   UNL     1     -11.683   6.139  72.471  1.00  0.00    -0.259 A  
HETATM   32  C   UNL     1     -11.413   6.630  71.187  1.00  0.00    -0.370 A  
ENDBRANCH  24  26
ENDBRANCH  20  21
ENDBRANCH  16  20
ENDBRANCH   1  13
BRANCH   4  33
HETATM   33  C   UNL     1     -10.631  16.278  65.390  1.00  0.00    -0.352 C  
HETATM   34  O   UNL     1     -11.333  16.709  64.220  1.00  0.00    -1.304 OA 
HETATM   35  H   UNL     1     -10.967  17.527  63.906  1.00  0.00     0.000 HD 
ENDBRANCH   4  33
TORSDOF 5
ENDMDL
MODEL       32
REMARK 921   NORMALIZED FREE ENERGY PREDICTED BY IDOCK:   -7.57 KCAL/MOL
REMARK 922        TOTAL FREE ENERGY PREDICTED BY IDOCK:  -10.38 KCAL/MOL
REMARK 923 INTER-LIGAND FREE ENERGY PREDICTED BY IDOCK:   -9.20 KCAL/MOL
REMARK 924 INTRA-LIGAND FREE ENERGY PREDICTED BY IDOCK:   -1.19 KCAL/MOL
REMARK 927      BINDING AFFINITY PREDICTED BY RF-SCORE:    0.00 PKD
ROOT
HETATM    1  C   UNL     1      -8.980   9.355  68.110  1.00  0.00    -0.128 C  
HETATM    2  O   UNL     1      -7.939  10.355  68.123  1.00  0.00    -0.106 OA 
HETATM    3  H   UNL     1     -10.881   7.986  65.817  1.00  0.00     0.000 HD 
HETATM    4  C   UNL     1      -6.857  10.046  67.241  1.00  0.00    -0.082 C  
HETATM    5  O   UNL     1     -10.507   8.085  66.685  1.00  0.00    -0.303 OA 
HETATM    6  C   UNL     1      -7.346  10.002  65.787  1.00  0.00    -0.117 C  
HETATM    7  H   UNL     1      -9.678   8.334  64.256  1.00  0.00     0.000 HD 
HETATM    8  O   UNL     1      -8.985   8.979  64.330  1.00  0.00    -0.137 OA 
HETATM    9  O   UNL     1      -6.317   9.621  64.861  1.00  0.00    -0.080 OA 
HETATM   10  C   UNL     1      -8.462   8.962  65.668  1.00  0.00    -0.157 C  
HETATM   11  H   UNL     1      -6.620   9.594  63.962  1.00  0.00     0.000 HD 
HETATM   12  C   UNL     1      -9.589   9.194  66.698  1.00  0.00    -0.203 C  
ENDROOT
BRANCH   1  13
HETATM   13  C   UNL     1     -10.017   9.710  69.172  1.00  0.00    -0.189 A  
HETATM   14  C   UNL     1     -12.074  10.360  71.022  1.00  0.00    -0.488 A  
HETATM   15  C   UNL     1     -13.231  10.626  71.948  1.00  0.00    -0.528 C  
HETATM   16  C   UNL     1     -11.557  11.359  70.173  1.00  0.00    -0.368 A  
HETATM   17  C   UNL     1     -10.530   8.743  70.043  1.00  0.00    -0.222 A  
HETATM   18  C   UNL     1     -11.542   9.065  70.953  1.00  0.00    -0.344 A  
HETATM   19  C   UNL     1     -10.514  11.023  69.279  1.00  0.00    -0.210 A  
BRANCH  16  20
HETATM   20  C   UNL     1     -12.170  12.746  70.102  1.00  0.00    -0.320 C  
BRANCH  20  21
HETATM   21  C   UNL     1     -11.708  13.662  69.002  1.00  0.00    -0.333 A  
HETATM   22  C   UNL     1     -11.995  13.680  67.653  1.00  0.00    -0.386 A  
HETATM   23  C   UNL     1     -11.567  14.896  67.025  1.00  0.00    -0.314 A  
HETATM   24  C   UNL     1     -10.973  15.783  67.910  1.00  0.00    -0.324 A  
HETATM   25  S   UNL     1     -10.741  15.013  69.430  1.00  0.00    -0.266 SA 
BRANCH  24  26
HETATM   26  C   UNL     1     -10.575  17.195  67.713  1.00  0.00    -0.360 A  
HETATM   27  C   UNL     1     -10.224  18.011  68.806  1.00  0.00    -0.362 A  
HETATM   28  C   UNL     1      -9.920  19.365  68.636  1.00  0.00    -0.527 A  
HETATM   29  C   UNL     1      -9.982  19.924  67.369  1.00  0.00    -0.423 A  
HETATM   30  F   UNL     1      -9.720  21.229  67.211  1.00  0.00    -0.599 F  
HETATM   31  C   UNL     1     -10.317  19.148  66.269  1.00  0.00    -0.553 A  
HETATM   32  C   UNL     1     -10.610  17.789  66.438  1.00  0.00    -0.218 A  
ENDBRANCH  24  26
ENDBRANCH  20  21
ENDBRANCH  16  20
ENDBRANCH   1  13
BRANCH   4  33
HETATM   33  C   UNL     1      -5.748  11.090  67.421  1.00  0.00    -0.048 C  
HETATM   34  O   UNL     1      -5.713  11.964  66.289  1.00  0.00    -0.505 OA 
HETATM   35  H   UNL     1      -5.026  12.610  66.400  1.00  0.00     0.000 HD 
ENDBRANCH   4  33
TORSDOF 5
ENDMDL
MODEL       33
REMARK 921   NORMALIZED FREE ENERGY PREDICTED BY IDOCK:   -7.45 KCAL/MOL
REMARK 922        TOTAL FREE ENERGY PREDICTED BY IDOCK:  -10.23 KCAL/MOL
REMARK 923 INTER-LIGAND FREE ENERGY PREDICTED BY IDOCK:   -9.41 KCAL/MOL
REMARK 924 INTRA-LIGAND FREE ENERGY PREDICTED BY IDOCK:   -0.81 KCAL/MOL
REMARK 927      BINDING AFFINITY PREDICTED BY RF-SCORE:    0.00 PKD
ROOT
HETATM    1  C   UNL     1     -10.352   9.730  68.733  1.00  0.00    -0.208 C  
HETATM    2  O   UNL     1     -10.887   8.390  68.669  1.00  0.00    -0.085 OA 
HETATM    3  H   UNL     1      -7.384  11.044  69.191  1.00  0.00     0.000 HD 
HETATM    4  C   UNL     1     -10.244   7.579  67.682  1.00  0.00    -0.213 C  
HETATM    5  O   UNL     1      -8.310  11.051  68.979  1.00  0.00    -0.147 OA 
HETATM    6  C   UNL     1      -8.759   7.397  68.022  1.00  0.00    -0.124 C  
HETATM    7  H   UNL     1      -6.315   9.467  68.577  1.00  0.00     0.000 HD 
HETATM    8  O   UNL     1      -6.727   8.614  68.520  1.00  0.00    -0.058 OA 
HETATM    9  O   UNL     1      -8.043   6.653  67.025  1.00  0.00    -0.110 OA 
HETATM   10  C   UNL     1      -8.096   8.773  68.115  1.00  0.00    -0.107 C  
HETATM   11  H   UNL     1      -7.124   6.539  67.235  1.00  0.00     0.000 HD 
HETATM   12  C   UNL     1      -8.844   9.718  69.078  1.00  0.00    -0.153 C  
ENDROOT
BRANCH   1  13
HETATM   13  C   UNL     1     -11.186  10.546  69.716  1.00  0.00    -0.361 A  
HETATM   14  C   UNL     1     -12.872  12.066  71.425  1.00  0.00    -0.391 A  
HETATM   15  C   UNL     1     -13.855  12.803  72.296  1.00  0.00    -0.395 C  
HETATM   16  C   UNL     1     -12.188  12.705  70.373  1.00  0.00    -0.368 A  
HETATM   17  C   UNL     1     -11.857   9.941  70.783  1.00  0.00    -0.415 A  
HETATM   18  C   UNL     1     -12.686  10.690  71.624  1.00  0.00    -0.531 A  
HETATM   19  C   UNL     1     -11.331  11.938  69.550  1.00  0.00    -0.306 A  
BRANCH  16  20
HETATM   20  C   UNL     1     -12.440  14.159  70.020  1.00  0.00    -0.352 C  
BRANCH  20  21
HETATM   21  C   UNL     1     -11.558  14.792  68.978  1.00  0.00    -0.297 A  
HETATM   22  C   UNL     1     -11.575  14.711  67.601  1.00  0.00    -0.383 A  
HETATM   23  C   UNL     1     -10.734  15.700  66.991  1.00  0.00    -0.314 A  
HETATM   24  C   UNL     1     -10.103  16.518  67.914  1.00  0.00    -0.256 A  
HETATM   25  S   UNL     1     -10.367  15.911  69.501  1.00  0.00    -0.294 SA 
BRANCH  24  26
HETATM   26  C   UNL     1      -9.319  17.757  67.704  1.00  0.00    -0.250 A  
HETATM   27  C   UNL     1      -8.249  18.094  68.555  1.00  0.00    -0.320 A  
HETATM   28  C   UNL     1      -7.552  19.297  68.408  1.00  0.00    -0.351 A  
HETATM   29  C   UNL     1      -7.931  20.187  67.415  1.00  0.00    -0.322 A  
HETATM   30  F   UNL     1      -7.283  21.354  67.294  1.00  0.00    -0.426 F  
HETATM   31  C   UNL     1      -8.976  19.884  66.555  1.00  0.00    -0.442 A  
HETATM   32  C   UNL     1      -9.666  18.673  66.695  1.00  0.00    -0.360 A  
ENDBRANCH  24  26
ENDBRANCH  20  21
ENDBRANCH  16  20
ENDBRANCH   1  13
BRANCH   4  33
HETATM   33  C   UNL     1     -10.963   6.227  67.597  1.00  0.00    -0.342 C  
HETATM   34  O   UNL     1     -11.037   5.800  66.233  1.00  0.00    -0.733 OA 
HETATM   35  H   UNL     1     -11.482   4.963  66.180  1.00  0.00     0.000 HD 
ENDBRANCH   4  33
TORSDOF 5
ENDMDL
MODEL       34
REMARK 921   NORMALIZED FREE ENERGY PREDICTED BY IDOCK:   -7.41 KCAL/MOL
REMARK 922        TOTAL FREE ENERGY PREDICTED BY IDOCK:  -10.17 KCAL/MOL
REMARK 923 INTER-LIGAND FREE ENERGY PREDICTED BY IDOCK:   -9.21 KCAL/MOL
REMARK 924 INTRA-LIGAND FREE ENERGY PREDICTED BY IDOCK:   -0.96 KCAL/MOL
REMARK 927      BINDING AFFINITY PREDICTED BY RF-SCORE:    0.00 PKD
ROOT
HETATM    1  C   UNL     1      -9.734  12.406  65.669  1.00  0.00    -0.172 C  
HETATM    2  O   UNL     1     -10.201  13.749  65.921  1.00  0.00    -0.296 OA 
HETATM    3  H   UNL     1     -11.025   9.682  64.382  1.00  0.00     0.000 HD 
HETATM    4  C   UNL     1     -10.698  14.396  64.747  1.00  0.00    -0.403 C  
HETATM    5  O   UNL     1     -10.330  10.232  64.724  1.00  0.00    -0.277 OA 
HETATM    6  C   UNL     1     -11.920  13.647  64.199  1.00  0.00    -0.443 C  
HETATM    7  H   UNL     1     -12.440  10.572  63.283  1.00  0.00     0.000 HD 
HETATM    8  O   UNL     1     -12.685  11.470  63.469  1.00  0.00    -0.311 OA 
HETATM    9  O   UNL     1     -12.418  14.209  62.975  1.00  0.00    -1.077 OA 
HETATM   10  C   UNL     1     -11.525  12.200  63.898  1.00  0.00    -0.440 C  
HETATM   11  H   UNL     1     -13.175  13.746  62.636  1.00  0.00     0.000 HD 
HETATM   12  C   UNL     1     -10.865  11.511  65.112  1.00  0.00    -0.265 C  
ENDROOT
BRANCH   1  13
HETATM   13  C   UNL     1      -9.107  11.854  66.947  1.00  0.00    -0.196 A  
HETATM   14  C   UNL     1      -7.939  10.665  69.248  1.00  0.00    -0.139 A  
HETATM   15  C   UNL     1      -7.254   9.970  70.395  1.00  0.00    -0.119 C  
HETATM   16  C   UNL     1      -9.325  10.541  69.025  1.00  0.00    -0.205 A  
HETATM   17  C   UNL     1      -7.739  11.983  67.204  1.00  0.00    -0.161 A  
HETATM   18  C   UNL     1      -7.165  11.397  68.336  1.00  0.00    -0.087 A  
HETATM   19  C   UNL     1      -9.893  11.163  67.890  1.00  0.00    -0.187 A  
BRANCH  16  20
HETATM   20  C   UNL     1     -10.200   9.658  69.896  1.00  0.00    -0.279 C  
BRANCH  20  21
HETATM   21  C   UNL     1     -10.245   8.187  69.582  1.00  0.00    -0.205 A  
HETATM   22  C   UNL     1     -11.050   7.178  70.070  1.00  0.00    -0.288 A  
HETATM   23  C   UNL     1     -10.945   5.978  69.290  1.00  0.00    -0.436 A  
HETATM   24  C   UNL     1     -10.073   6.103  68.220  1.00  0.00    -0.158 A  
HETATM   25  S   UNL     1      -9.228   7.596  68.333  1.00  0.00    -0.139 SA 
BRANCH  24  26
HETATM   26  C   UNL     1      -9.830   5.185  67.084  1.00  0.00    -0.191 A  
HETATM   27  C   UNL     1      -8.605   4.503  66.949  1.00  0.00    -0.104 A  
HETATM   28  C   UNL     1      -8.340   3.694  65.840  1.00  0.00    -0.106 A  
HETATM   29  C   UNL     1      -9.294   3.571  64.842  1.00  0.00    -0.153 A  
HETATM   30  F   UNL     1      -9.028   2.819  63.765  1.00  0.00    -0.094 F  
HETATM   31  C   UNL     1     -10.515   4.222  64.946  1.00  0.00    -0.176 A  
HETATM   32  C   UNL     1     -10.784   5.024  66.063  1.00  0.00    -0.241 A  
ENDBRANCH  24  26
ENDBRANCH  20  21
ENDBRANCH  16  20
ENDBRANCH   1  13
BRANCH   4  33
HETATM   33  C   UNL     1     -11.045  15.851  65.085  1.00  0.00    -0.311 C  
HETATM   34  O   UNL     1     -11.311  16.580  63.882  1.00  0.00    -1.557 OA 
HETATM   35  H   UNL     1     -11.526  17.481  64.091  1.00  0.00     0.000 HD 
ENDBRANCH   4  33
TORSDOF 5
ENDMDL
MODEL       35
REMARK 921   NORMALIZED FREE ENERGY PREDICTED BY IDOCK:   -7.40 KCAL/MOL
REMARK 922        TOTAL FREE ENERGY PREDICTED BY IDOCK:  -10.16 KCAL/MOL
REMARK 923 INTER-LIGAND FREE ENERGY PREDICTED BY IDOCK:   -8.98 KCAL/MOL
REMARK 924 INTRA-LIGAND FREE ENERGY PREDICTED BY IDOCK:   -1.18 KCAL/MOL
REMARK 927      BINDING AFFINITY PREDICTED BY RF-SCORE:    0.00 PKD
ROOT
HETATM    1  C   UNL     1     -11.850  13.105  68.083  1.00  0.00    -0.348 C  
HETATM    2  O   UNL     1     -11.892  12.568  66.744  1.00  0.00    -0.442 OA 
HETATM    3  H   UNL     1     -10.126  15.433  69.617  1.00  0.00     0.000 HD 
HETATM    4  C   UNL     1     -12.129  13.566  65.748  1.00  0.00    -0.433 C  
HETATM    5  O   UNL     1     -10.816  14.786  69.526  1.00  0.00    -0.255 OA 
HETATM    6  C   UNL     1     -10.984  14.588  65.730  1.00  0.00    -0.319 C  
HETATM    7  H   UNL     1      -9.651  16.502  67.994  1.00  0.00     0.000 HD 
HETATM    8  O   UNL     1      -9.730  16.110  67.133  1.00  0.00    -0.228 OA 
HETATM    9  O   UNL     1     -11.204  15.659  64.801  1.00  0.00    -0.471 OA 
HETATM   10  C   UNL     1     -10.856  15.219  67.118  1.00  0.00    -0.322 C  
HETATM   11  H   UNL     1     -10.495  16.291  64.789  1.00  0.00     0.000 HD 
HETATM   12  C   UNL     1     -10.728  14.159  68.233  1.00  0.00    -0.249 C  
ENDROOT
BRANCH   1  13
HETATM   13  C   UNL     1     -11.725  11.951  69.074  1.00  0.00    -0.391 A  
HETATM   14  C   UNL     1     -11.345   9.884  70.986  1.00  0.00    -0.460 A  
HETATM   15  C   UNL     1     -11.116   8.872  72.077  1.00  0.00    -0.421 C  
HETATM   16  C   UNL     1     -10.567   9.900  69.811  1.00  0.00    -0.296 A  
HETATM   17  C   UNL     1     -12.501  11.899  70.236  1.00  0.00    -0.199 A  
HETATM   18  C   UNL     1     -12.313  10.881  71.176  1.00  0.00    -0.479 A  
HETATM   19  C   UNL     1     -10.790  10.920  68.859  1.00  0.00    -0.262 A  
BRANCH  16  20
HETATM   20  C   UNL     1      -9.417   8.932  69.600  1.00  0.00    -0.168 C  
BRANCH  20  21
HETATM   21  C   UNL     1      -9.715   7.626  68.916  1.00  0.00    -0.156 A  
HETATM   22  C   UNL     1     -10.870   6.873  68.858  1.00  0.00    -0.247 A  
HETATM   23  C   UNL     1     -10.793   5.843  67.863  1.00  0.00    -0.323 A  
HETATM   24  C   UNL     1      -9.588   5.839  67.178  1.00  0.00    -0.127 A  
HETATM   25  S   UNL     1      -8.495   6.936  67.926  1.00  0.00    -0.119 SA 
BRANCH  24  26
HETATM   26  C   UNL     1      -9.185   5.081  65.972  1.00  0.00    -0.154 A  
HETATM   27  C   UNL     1      -8.241   5.603  65.066  1.00  0.00    -0.137 A  
HETATM   28  C   UNL     1      -7.912   4.927  63.888  1.00  0.00    -0.098 A  
HETATM   29  C   UNL     1      -8.539   3.727  63.592  1.00  0.00    -0.093 A  
HETATM   30  F   UNL     1      -8.245   3.095  62.447  1.00  0.00    -0.068 F  
HETATM   31  C   UNL     1      -9.468   3.180  64.464  1.00  0.00    -0.147 A  
HETATM   32  C   UNL     1      -9.790   3.852  65.651  1.00  0.00    -0.149 A  
ENDBRANCH  24  26
ENDBRANCH  20  21
ENDBRANCH  16  20
ENDBRANCH   1  13
BRANCH   4  33
HETATM   33  C   UNL     1     -12.288  12.887  64.383  1.00  0.00    -0.398 C  
HETATM   34  O   UNL     1     -12.634  13.860  63.393  1.00  0.00    -1.018 OA 
HETATM   35  H   UNL     1     -12.732  13.440  62.546  1.00  0.00     0.000 HD 
ENDBRANCH   4  33
TORSDOF 5
ENDMDL
MODEL       36
REMARK 921   NORMALIZED FREE ENERGY PREDICTED BY IDOCK:   -7.37 KCAL/MOL
REMARK 922        TOTAL FREE ENERGY PREDICTED BY IDOCK:  -10.13 KCAL/MOL
REMARK 923 INTER-LIGAND FREE ENERGY PREDICTED BY IDOCK:   -9.70 KCAL/MOL
REMARK 924 INTRA-LIGAND FREE ENERGY PREDICTED BY IDOCK:   -0.42 KCAL/MOL
REMARK 927      BINDING AFFINITY PREDICTED BY RF-SCORE:    0.00 PKD
ROOT
HETATM    1  C   UNL     1     -12.152  11.445  70.286  1.00  0.00    -0.374 C  
HETATM    2  O   UNL     1     -11.422  12.544  69.700  1.00  0.00    -0.250 OA 
HETATM    3  H   UNL     1     -13.994  11.023  72.965  1.00  0.00     0.000 HD 
HETATM    4  C   UNL     1     -12.237  13.694  69.465  1.00  0.00    -0.264 C  
HETATM    5  O   UNL     1     -13.616  10.780  72.127  1.00  0.00    -0.276 OA 
HETATM    6  C   UNL     1     -12.784  14.243  70.790  1.00  0.00    -0.350 C  
HETATM    7  H   UNL     1     -14.514  12.939  73.214  1.00  0.00     0.000 HD 
HETATM    8  O   UNL     1     -14.020  13.622  72.776  1.00  0.00    -0.725 OA 
HETATM    9  O   UNL     1     -13.674  15.356  70.611  1.00  0.00    -0.785 OA 
HETATM   10  C   UNL     1     -13.581  13.143  71.495  1.00  0.00    -0.019 C  
HETATM   11  H   UNL     1     -14.012  15.696  71.430  1.00  0.00     0.000 HD 
HETATM   12  C   UNL     1     -12.767  11.840  71.648  1.00  0.00    -0.251 C  
ENDROOT
BRANCH   1  13
HETATM   13  C   UNL     1     -11.230  10.232  70.374  1.00  0.00    -0.407 A  
HETATM   14  C   UNL     1      -9.374   8.088  70.554  1.00  0.00    -0.155 A  
HETATM   15  C   UNL     1      -8.334   7.013  70.731  1.00  0.00    -0.129 C  
HETATM   16  C   UNL     1      -9.537   8.769  69.331  1.00  0.00    -0.163 A  
HETATM   17  C   UNL     1     -11.067   9.524  71.569  1.00  0.00    -0.406 A  
HETATM   18  C   UNL     1     -10.153   8.469  71.656  1.00  0.00    -0.338 A  
HETATM   19  C   UNL     1     -10.485   9.814  69.253  1.00  0.00    -0.236 A  
BRANCH  16  20
HETATM   20  C   UNL     1      -8.639   8.498  68.138  1.00  0.00    -0.138 C  
BRANCH  20  21
HETATM   21  C   UNL     1      -8.917   9.250  66.865  1.00  0.00    -0.130 A  
HETATM   22  C   UNL     1      -9.152   8.806  65.580  1.00  0.00    -0.221 A  
HETATM   23  C   UNL     1      -9.652   9.848  64.731  1.00  0.00    -0.339 A  
HETATM   24  C   UNL     1      -9.798  11.060  65.389  1.00  0.00    -0.251 A  
HETATM   25  S   UNL     1      -9.100  10.953  66.957  1.00  0.00    -0.150 SA 
BRANCH  24  26
HETATM   26  C   UNL     1     -10.449  12.311  64.938  1.00  0.00    -0.321 A  
HETATM   27  C   UNL     1     -10.031  13.564  65.425  1.00  0.00    -0.220 A  
HETATM   28  C   UNL     1     -10.690  14.743  65.061  1.00  0.00    -0.452 A  
HETATM   29  C   UNL     1     -11.788  14.678  64.219  1.00  0.00    -0.337 A  
HETATM   30  F   UNL     1     -12.438  15.805  63.895  1.00  0.00    -0.380 F  
HETATM   31  C   UNL     1     -12.223  13.461  63.715  1.00  0.00    -0.482 A  
HETATM   32  C   UNL     1     -11.556  12.281  64.070  1.00  0.00    -0.495 A  
ENDBRANCH  24  26
ENDBRANCH  20  21
ENDBRANCH  16  20
ENDBRANCH   1  13
BRANCH   4  33
HETATM   33  C   UNL     1     -11.412  14.754  68.725  1.00  0.00    -0.301 C  
HETATM   34  O   UNL     1     -12.283  15.715  68.121  1.00  0.00    -0.356 OA 
HETATM   35  H   UNL     1     -11.772  16.371  67.663  1.00  0.00     0.000 HD 
ENDBRANCH   4  33
TORSDOF 5
ENDMDL
MODEL       37
REMARK 921   NORMALIZED FREE ENERGY PREDICTED BY IDOCK:   -7.37 KCAL/MOL
REMARK 922        TOTAL FREE ENERGY PREDICTED BY IDOCK:  -10.12 KCAL/MOL
REMARK 923 INTER-LIGAND FREE ENERGY PREDICTED BY IDOCK:   -9.29 KCAL/MOL
REMARK 924 INTRA-LIGAND FREE ENERGY PREDICTED BY IDOCK:   -0.83 KCAL/MOL
REMARK 927      BINDING AFFINITY PREDICTED BY RF-SCORE:    0.00 PKD
ROOT
HETATM    1  C   UNL     1     -10.720  15.425  66.640  1.00  0.00    -0.309 C  
HETATM    2  O   UNL     1      -9.669  16.384  66.392  1.00  0.00    -0.253 OA 
HETATM    3  H   UNL     1     -12.277  14.293  69.294  1.00  0.00     0.000 HD 
HETATM    4  C   UNL     1      -9.961  17.680  66.921  1.00  0.00    -0.323 C  
HETATM    5  O   UNL     1     -12.123  14.405  68.363  1.00  0.00    -0.322 OA 
HETATM    6  C   UNL     1     -10.089  17.619  68.449  1.00  0.00    -0.368 C  
HETATM    7  H   UNL     1     -11.934  15.871  70.476  1.00  0.00     0.000 HD 
HETATM    8  O   UNL     1     -11.253  16.492  70.247  1.00  0.00    -0.333 OA 
HETATM    9  O   UNL     1     -10.457  18.879  69.030  1.00  0.00    -0.449 OA 
HETATM   10  C   UNL     1     -11.188  16.619  68.817  1.00  0.00    -0.217 C  
HETATM   11  H   UNL     1     -10.536  18.842  69.976  1.00  0.00     0.000 HD 
HETATM   12  C   UNL     1     -10.971  15.242  68.155  1.00  0.00    -0.292 C  
ENDROOT
BRANCH   1  13
HETATM   13  C   UNL     1     -10.375  14.120  65.928  1.00  0.00    -0.326 A  
HETATM   14  C   UNL     1      -9.870  11.613  64.688  1.00  0.00    -0.259 A  
HETATM   15  C   UNL     1      -9.719  10.272  64.021  1.00  0.00    -0.343 C  
HETATM   16  C   UNL     1      -9.431  11.840  66.008  1.00  0.00    -0.245 A  
HETATM   17  C   UNL     1     -10.778  13.878  64.611  1.00  0.00    -0.422 A  
HETATM   18  C   UNL     1     -10.528  12.644  64.002  1.00  0.00    -0.443 A  
HETATM   19  C   UNL     1      -9.666  13.103  66.598  1.00  0.00    -0.261 A  
BRANCH  16  20
HETATM   20  C   UNL     1      -8.830  10.732  66.853  1.00  0.00    -0.144 C  
BRANCH  20  21
HETATM   21  C   UNL     1      -9.411  10.498  68.221  1.00  0.00    -0.156 A  
HETATM   22  C   UNL     1     -10.426  11.141  68.900  1.00  0.00    -0.233 A  
HETATM   23  C   UNL     1     -10.845  10.411  70.061  1.00  0.00    -0.348 A  
HETATM   24  C   UNL     1     -10.150   9.225  70.237  1.00  0.00    -0.219 A  
HETATM   25  S   UNL     1      -8.846   9.149  69.118  1.00  0.00    -0.150 SA 
BRANCH  24  26
HETATM   26  C   UNL     1     -10.399   8.111  71.180  1.00  0.00    -0.237 A  
HETATM   27  C   UNL     1     -11.211   7.019  70.817  1.00  0.00    -0.323 A  
HETATM   28  C   UNL     1     -11.511   6.001  71.727  1.00  0.00    -0.314 A  
HETATM   29  C   UNL     1     -11.015   6.073  73.019  1.00  0.00    -0.257 A  
HETATM   30  F   UNL     1     -11.328   5.113  73.900  1.00  0.00    -0.326 F  
HETATM   31  C   UNL     1     -10.206   7.130  73.408  1.00  0.00    -0.367 A  
HETATM   32  C   UNL     1      -9.896   8.145  72.493  1.00  0.00    -0.363 A  
ENDBRANCH  24  26
ENDBRANCH  20  21
ENDBRANCH  16  20
ENDBRANCH   1  13
BRANCH   4  33
HETATM   33  C   UNL     1      -8.856  18.655  66.496  1.00  0.00    -0.304 C  
HETATM   34  O   UNL     1      -9.383  19.983  66.420  1.00  0.00    -0.389 OA 
HETATM   35  H   UNL     1      -8.699  20.588  66.157  1.00  0.00     0.000 HD 
ENDBRANCH   4  33
TORSDOF 5
ENDMDL
MODEL       38
REMARK 921   NORMALIZED FREE ENERGY PREDICTED BY IDOCK:   -7.35 KCAL/MOL
REMARK 922        TOTAL FREE ENERGY PREDICTED BY IDOCK:  -10.10 KCAL/MOL
REMARK 923 INTER-LIGAND FREE ENERGY PREDICTED BY IDOCK:   -8.81 KCAL/MOL
REMARK 924 INTRA-LIGAND FREE ENERGY PREDICTED BY IDOCK:   -1.30 KCAL/MOL
REMARK 927      BINDING AFFINITY PREDICTED BY RF-SCORE:    0.00 PKD
ROOT
HETATM    1  C   UNL     1     -10.501   7.768  69.399  1.00  0.00    -0.220 C  
HETATM    2  O   UNL     1     -10.822   8.545  70.574  1.00  0.00    -0.220 OA 
HETATM    3  H   UNL     1      -9.478   4.707  68.827  1.00  0.00     0.000 HD 
HETATM    4  C   UNL     1     -11.819   7.932  71.394  1.00  0.00    -0.299 C  
HETATM    5  O   UNL     1      -9.808   5.567  68.594  1.00  0.00    -0.130 OA 
HETATM    6  C   UNL     1     -11.315   6.586  71.934  1.00  0.00    -0.285 C  
HETATM    7  H   UNL     1     -10.160   3.895  70.524  1.00  0.00     0.000 HD 
HETATM    8  O   UNL     1     -10.390   4.456  71.255  1.00  0.00    -0.122 OA 
HETATM    9  O   UNL     1     -12.303   5.887  72.705  1.00  0.00    -0.537 OA 
HETATM   10  C   UNL     1     -10.945   5.683  70.756  1.00  0.00    -0.187 C  
HETATM   11  H   UNL     1     -11.992   5.055  73.040  1.00  0.00     0.000 HD 
HETATM   12  C   UNL     1      -9.966   6.368  69.779  1.00  0.00    -0.166 C  
ENDROOT
BRANCH   1  13
HETATM   13  C   UNL     1      -9.532   8.565  68.531  1.00  0.00    -0.146 A  
HETATM   14  C   UNL     1      -7.761  10.193  67.018  1.00  0.00    -0.096 A  
HETATM   15  C   UNL     1      -6.786  11.102  66.318  1.00  0.00    -0.064 C  
HETATM   16  C   UNL     1      -9.150  10.283  66.800  1.00  0.00    -0.161 A  
HETATM   17  C   UNL     1      -8.148   8.477  68.711  1.00  0.00    -0.120 A  
HETATM   18  C   UNL     1      -7.278   9.278  67.966  1.00  0.00    -0.079 A  
HETATM   19  C   UNL     1     -10.013   9.445  67.541  1.00  0.00    -0.250 A  
BRANCH  16  20
HETATM   20  C   UNL     1      -9.750  11.337  65.887  1.00  0.00    -0.258 C  
BRANCH  20  21
HETATM   21  C   UNL     1     -10.547  12.444  66.522  1.00  0.00    -0.235 A  
HETATM   22  C   UNL     1     -11.755  13.011  66.171  1.00  0.00    -0.445 A  
HETATM   23  C   UNL     1     -12.286  13.841  67.214  1.00  0.00    -0.315 A  
HETATM   24  C   UNL     1     -11.477  13.880  68.339  1.00  0.00    -0.311 A  
HETATM   25  S   UNL     1      -9.983  13.097  68.005  1.00  0.00    -0.238 SA 
BRANCH  24  26
HETATM   26  C   UNL     1     -11.745  14.451  69.679  1.00  0.00    -0.362 A  
HETATM   27  C   UNL     1     -12.526  13.755  70.622  1.00  0.00    -0.429 A  
HETATM   28  C   UNL     1     -12.845  14.319  71.861  1.00  0.00    -0.429 A  
HETATM   29  C   UNL     1     -12.401  15.597  72.164  1.00  0.00    -0.430 A  
HETATM   30  F   UNL     1     -12.733  16.149  73.339  1.00  0.00    -0.474 F  
HETATM   31  C   UNL     1     -11.624  16.308  71.260  1.00  0.00    -0.402 A  
HETATM   32  C   UNL     1     -11.295  15.738  70.024  1.00  0.00    -0.354 A  
ENDBRANCH  24  26
ENDBRANCH  20  21
ENDBRANCH  16  20
ENDBRANCH   1  13
BRANCH   4  33
HETATM   33  C   UNL     1     -12.186   8.885  72.537  1.00  0.00    -0.229 C  
HETATM   34  O   UNL     1     -13.525   8.632  72.972  1.00  0.00    -0.812 OA 
HETATM   35  H   UNL     1     -13.753   9.222  73.680  1.00  0.00     0.000 HD 
ENDBRANCH   4  33
TORSDOF 5
ENDMDL
MODEL       39
REMARK 921   NORMALIZED FREE ENERGY PREDICTED BY IDOCK:   -7.34 KCAL/MOL
REMARK 922        TOTAL FREE ENERGY PREDICTED BY IDOCK:  -10.09 KCAL/MOL
REMARK 923 INTER-LIGAND FREE ENERGY PREDICTED BY IDOCK:   -8.97 KCAL/MOL
REMARK 924 INTRA-LIGAND FREE ENERGY PREDICTED BY IDOCK:   -1.12 KCAL/MOL
REMARK 927      BINDING AFFINITY PREDICTED BY RF-SCORE:    0.00 PKD
ROOT
HETATM    1  C   UNL     1      -9.599   7.734  68.228  1.00  0.00    -0.155 C  
HETATM    2  O   UNL     1      -8.722   8.265  67.210  1.00  0.00    -0.122 OA 
HETATM    3  H   UNL     1     -11.972   5.475  68.326  1.00  0.00     0.000 HD 
HETATM    4  C   UNL     1      -7.952   7.255  66.554  1.00  0.00    -0.115 C  
HETATM    5  O   UNL     1     -11.353   6.097  68.692  1.00  0.00    -0.319 OA 
HETATM    6  C   UNL     1      -8.872   6.275  65.814  1.00  0.00    -0.111 C  
HETATM    7  H   UNL     1     -11.376   4.418  66.735  1.00  0.00     0.000 HD 
HETATM    8  O   UNL     1     -10.770   4.804  66.114  1.00  0.00    -0.308 OA 
HETATM    9  O   UNL     1      -8.158   5.193  65.198  1.00  0.00    -0.108 OA 
HETATM   10  C   UNL     1      -9.849   5.654  66.815  1.00  0.00    -0.164 C  
HETATM   11  H   UNL     1      -8.727   4.587  64.739  1.00  0.00     0.000 HD 
HETATM   12  C   UNL     1     -10.605   6.722  67.633  1.00  0.00    -0.259 C  
ENDROOT
BRANCH   1  13
HETATM   13  C   UNL     1     -10.273   8.896  68.952  1.00  0.00    -0.220 A  
HETATM   14  C   UNL     1     -11.688  11.001  70.234  1.00  0.00    -0.445 A  
HETATM   15  C   UNL     1     -12.522  12.038  70.938  1.00  0.00    -0.384 C  
HETATM   16  C   UNL     1     -11.378  11.102  68.863  1.00  0.00    -0.344 A  
HETATM   17  C   UNL     1     -10.572   8.831  70.316  1.00  0.00    -0.239 A  
HETATM   18  C   UNL     1     -11.268   9.868  70.946  1.00  0.00    -0.433 A  
HETATM   19  C   UNL     1     -10.649  10.058  68.249  1.00  0.00    -0.264 A  
BRANCH  16  20
HETATM   20  C   UNL     1     -11.911  12.233  68.003  1.00  0.00    -0.368 C  
BRANCH  20  21
HETATM   21  C   UNL     1     -10.970  13.355  67.657  1.00  0.00    -0.259 A  
HETATM   22  C   UNL     1      -9.984  13.452  66.697  1.00  0.00    -0.277 A  
HETATM   23  C   UNL     1      -9.524  14.800  66.527  1.00  0.00    -0.316 A  
HETATM   24  C   UNL     1     -10.176  15.702  67.353  1.00  0.00    -0.264 A  
HETATM   25  S   UNL     1     -11.161  14.850  68.477  1.00  0.00    -0.280 SA 
BRANCH  24  26
HETATM   26  C   UNL     1     -10.138  17.182  67.357  1.00  0.00    -0.301 A  
HETATM   27  C   UNL     1     -10.372  17.918  66.179  1.00  0.00    -0.352 A  
HETATM   28  C   UNL     1     -10.264  19.312  66.158  1.00  0.00    -0.549 A  
HETATM   29  C   UNL     1      -9.903  19.986  67.314  1.00  0.00    -0.427 A  
HETATM   30  F   UNL     1      -9.770  21.319  67.286  1.00  0.00    -0.599 F  
HETATM   31  C   UNL     1      -9.672  19.293  68.494  1.00  0.00    -0.481 A  
HETATM   32  C   UNL     1      -9.791  17.897  68.517  1.00  0.00    -0.367 A  
ENDBRANCH  24  26
ENDBRANCH  20  21
ENDBRANCH  16  20
ENDBRANCH   1  13
BRANCH   4  33
HETATM   33  C   UNL     1      -6.964   7.923  65.591  1.00  0.00    -0.053 C  
HETATM   34  O   UNL     1      -7.488   7.898  64.260  1.00  0.00    -0.089 OA 
HETATM   35  H   UNL     1      -6.876   8.311  63.663  1.00  0.00     0.000 HD 
ENDBRANCH   4  33
TORSDOF 5
ENDMDL
MODEL       40
REMARK 921   NORMALIZED FREE ENERGY PREDICTED BY IDOCK:   -7.34 KCAL/MOL
REMARK 922        TOTAL FREE ENERGY PREDICTED BY IDOCK:  -10.09 KCAL/MOL
REMARK 923 INTER-LIGAND FREE ENERGY PREDICTED BY IDOCK:   -9.19 KCAL/MOL
REMARK 924 INTRA-LIGAND FREE ENERGY PREDICTED BY IDOCK:   -0.90 KCAL/MOL
REMARK 927      BINDING AFFINITY PREDICTED BY RF-SCORE:    0.00 PKD
ROOT
HETATM    1  C   UNL     1      -9.437   8.032  66.925  1.00  0.00    -0.191 C  
HETATM    2  O   UNL     1     -10.057   6.730  66.996  1.00  0.00    -0.167 OA 
HETATM    3  H   UNL     1      -6.362   9.167  67.000  1.00  0.00     0.000 HD 
HETATM    4  C   UNL     1      -9.572   5.826  66.000  1.00  0.00    -0.050 C  
HETATM    5  O   UNL     1      -7.303   9.225  66.882  1.00  0.00    -0.089 OA 
HETATM    6  C   UNL     1      -8.073   5.563  66.198  1.00  0.00    -0.107 C  
HETATM    7  H   UNL     1      -5.463   7.491  66.378  1.00  0.00     0.000 HD 
HETATM    8  O   UNL     1      -5.930   6.665  66.414  1.00  0.00    -0.027 OA 
HETATM    9  O   UNL     1      -7.513   4.720  65.181  1.00  0.00    -0.074 OA 
HETATM   10  C   UNL     1      -7.321   6.894  66.140  1.00  0.00    -0.076 C  
HETATM   11  H   UNL     1      -6.586   4.557  65.304  1.00  0.00     0.000 HD 
HETATM   12  C   UNL     1      -7.905   7.938  67.116  1.00  0.00    -0.109 C  
ENDROOT
BRANCH   1  13
HETATM   13  C   UNL     1     -10.111   8.955  67.936  1.00  0.00    -0.255 A  
HETATM   14  C   UNL     1     -11.527  10.618  69.754  1.00  0.00    -0.375 A  
HETATM   15  C   UNL     1     -12.355  11.411  70.731  1.00  0.00    -0.483 C  
HETATM   16  C   UNL     1     -11.350  11.035  68.420  1.00  0.00    -0.363 A  
HETATM   17  C   UNL     1     -10.280   8.576  69.272  1.00  0.00    -0.211 A  
HETATM   18  C   UNL     1     -10.977   9.395  70.165  1.00  0.00    -0.282 A  
HETATM   19  C   UNL     1     -10.619  10.207  67.538  1.00  0.00    -0.327 A  
BRANCH  16  20
HETATM   20  C   UNL     1     -12.026  12.279  67.873  1.00  0.00    -0.240 C  
BRANCH  20  21
HETATM   21  C   UNL     1     -11.149  13.378  67.339  1.00  0.00    -0.278 A  
HETATM   22  C   UNL     1     -10.528  13.532  66.116  1.00  0.00    -0.296 A  
HETATM   23  C   UNL     1     -10.023  14.862  65.931  1.00  0.00    -0.357 A  
HETATM   24  C   UNL     1     -10.278  15.693  67.010  1.00  0.00    -0.274 A  
HETATM   25  S   UNL     1     -10.915  14.770  68.314  1.00  0.00    -0.269 SA 
BRANCH  24  26
HETATM   26  C   UNL     1     -10.099  17.157  67.141  1.00  0.00    -0.295 A  
HETATM   27  C   UNL     1      -9.740  17.739  68.373  1.00  0.00    -0.333 A  
HETATM   28  C   UNL     1      -9.642  19.125  68.523  1.00  0.00    -0.454 A  
HETATM   29  C   UNL     1      -9.921  19.949  67.444  1.00  0.00    -0.423 A  
HETATM   30  F   UNL     1      -9.857  21.279  67.597  1.00  0.00    -0.540 F  
HETATM   31  C   UNL     1     -10.271  19.411  66.214  1.00  0.00    -0.566 A  
HETATM   32  C   UNL     1     -10.357  18.020  66.061  1.00  0.00    -0.333 A  
ENDBRANCH  24  26
ENDBRANCH  20  21
ENDBRANCH  16  20
ENDBRANCH   1  13
BRANCH   4  33
HETATM   33  C   UNL     1     -10.378   4.523  66.069  1.00  0.00    -0.243 C  
HETATM   34  O   UNL     1     -11.457   4.567  65.131  1.00  0.00    -1.105 OA 
HETATM   35  H   UNL     1     -11.956   3.760  65.173  1.00  0.00     0.000 HD 
ENDBRANCH   4  33
TORSDOF 5
ENDMDL
MODEL       41
REMARK 921   NORMALIZED FREE ENERGY PREDICTED BY IDOCK:   -7.34 KCAL/MOL
REMARK 922        TOTAL FREE ENERGY PREDICTED BY IDOCK:  -10.09 KCAL/MOL
REMARK 923 INTER-LIGAND FREE ENERGY PREDICTED BY IDOCK:   -8.91 KCAL/MOL
REMARK 924 INTRA-LIGAND FREE ENERGY PREDICTED BY IDOCK:   -1.18 KCAL/MOL
REMARK 927      BINDING AFFINITY PREDICTED BY RF-SCORE:    0.00 PKD
ROOT
HETATM    1  C   UNL     1     -10.304   9.837  67.055  1.00  0.00    -0.239 C  
HETATM    2  O   UNL     1     -10.734   8.531  67.498  1.00  0.00    -0.248 OA 
HETATM    3  H   UNL     1      -7.418  11.274  66.464  1.00  0.00     0.000 HD 
HETATM    4  C   UNL     1     -10.240   7.472  66.675  1.00  0.00    -0.190 C  
HETATM    5  O   UNL     1      -8.365  11.203  66.462  1.00  0.00    -0.157 OA 
HETATM    6  C   UNL     1      -8.706   7.423  66.727  1.00  0.00    -0.133 C  
HETATM    7  H   UNL     1      -6.372   9.603  66.120  1.00  0.00     0.000 HD 
HETATM    8  O   UNL     1      -6.719   8.765  66.403  1.00  0.00    -0.068 OA 
HETATM    9  O   UNL     1      -8.148   6.425  65.860  1.00  0.00    -0.111 OA 
HETATM   10  C   UNL     1      -8.149   8.773  66.272  1.00  0.00    -0.107 C  
HETATM   11  H   UNL     1      -7.200   6.394  65.892  1.00  0.00     0.000 HD 
HETATM   12  C   UNL     1      -8.762   9.953  67.057  1.00  0.00    -0.131 C  
ENDROOT
BRANCH   1  13
HETATM   13  C   UNL     1     -10.986  10.898  67.913  1.00  0.00    -0.325 A  
HETATM   14  C   UNL     1     -12.107  12.881  69.612  1.00  0.00    -0.290 A  
HETATM   15  C   UNL     1     -12.595  13.984  70.513  1.00  0.00    -0.399 C  
HETATM   16  C   UNL     1     -12.090  11.535  70.027  1.00  0.00    -0.408 A  
HETATM   17  C   UNL     1     -11.037  12.238  67.514  1.00  0.00    -0.326 A  
HETATM   18  C   UNL     1     -11.589  13.212  68.351  1.00  0.00    -0.372 A  
HETATM   19  C   UNL     1     -11.554  10.559  69.156  1.00  0.00    -0.295 A  
BRANCH  16  20
HETATM   20  C   UNL     1     -12.513  11.123  71.425  1.00  0.00    -0.414 C  
BRANCH  20  21
HETATM   21  C   UNL     1     -12.683   9.655  71.704  1.00  0.00    -0.407 A  
HETATM   22  C   UNL     1     -13.758   8.811  71.510  1.00  0.00    -0.384 A  
HETATM   23  C   UNL     1     -13.394   7.431  71.648  1.00  0.00    -0.426 A  
HETATM   24  C   UNL     1     -12.049   7.251  71.932  1.00  0.00    -0.314 A  
HETATM   25  S   UNL     1     -11.319   8.774  72.257  1.00  0.00    -0.196 SA 
BRANCH  24  26
HETATM   26  C   UNL     1     -11.244   6.009  71.962  1.00  0.00    -0.341 A  
HETATM   27  C   UNL     1     -10.420   5.651  70.877  1.00  0.00    -0.323 A  
HETATM   28  C   UNL     1      -9.716   4.443  70.866  1.00  0.00    -0.267 A  
HETATM   29  C   UNL     1      -9.842   3.570  71.934  1.00  0.00    -0.167 A  
HETATM   30  F   UNL     1      -9.190   2.399  71.909  1.00  0.00    -0.110 F  
HETATM   31  C   UNL     1     -10.639   3.894  73.022  1.00  0.00    -0.254 A  
HETATM   32  C   UNL     1     -11.336   5.109  73.038  1.00  0.00    -0.381 A  
ENDBRANCH  24  26
ENDBRANCH  20  21
ENDBRANCH  16  20
ENDBRANCH   1  13
BRANCH   4  33
HETATM   33  C   UNL     1     -10.852   6.146  67.142  1.00  0.00    -0.360 C  
HETATM   34  O   UNL     1     -11.086   5.295  66.016  1.00  0.00    -0.762 OA 
HETATM   35  H   UNL     1     -11.466   4.473  66.305  1.00  0.00     0.000 HD 
ENDBRANCH   4  33
TORSDOF 5
ENDMDL
MODEL       42
REMARK 921   NORMALIZED FREE ENERGY PREDICTED BY IDOCK:   -7.34 KCAL/MOL
REMARK 922        TOTAL FREE ENERGY PREDICTED BY IDOCK:  -10.09 KCAL/MOL
REMARK 923 INTER-LIGAND FREE ENERGY PREDICTED BY IDOCK:   -9.22 KCAL/MOL
REMARK 924 INTRA-LIGAND FREE ENERGY PREDICTED BY IDOCK:   -0.87 KCAL/MOL
REMARK 927      BINDING AFFINITY PREDICTED BY RF-SCORE:    0.00 PKD
ROOT
HETATM    1  C   UNL     1     -10.345   8.849  70.072  1.00  0.00    -0.204 C  
HETATM    2  O   UNL     1     -10.018   7.456  70.267  1.00  0.00    -0.187 OA 
HETATM    3  H   UNL     1     -12.818  10.817  70.941  1.00  0.00     0.000 HD 
HETATM    4  C   UNL     1      -9.994   7.076  71.646  1.00  0.00    -0.178 C  
HETATM    5  O   UNL     1     -11.962  10.608  70.584  1.00  0.00    -0.307 OA 
HETATM    6  C   UNL     1     -11.383   7.250  72.274  1.00  0.00    -0.272 C  
HETATM    7  H   UNL     1     -13.432   9.761  72.526  1.00  0.00     0.000 HD 
HETATM    8  O   UNL     1     -13.158   8.857  72.624  1.00  0.00    -0.418 OA 
HETATM    9  O   UNL     1     -11.402   6.955  73.679  1.00  0.00    -0.418 OA 
HETATM   10  C   UNL     1     -11.823   8.707  72.117  1.00  0.00    -0.377 C  
HETATM   11  H   UNL     1     -12.262   7.063  74.068  1.00  0.00     0.000 HD 
HETATM   12  C   UNL     1     -11.737   9.188  70.653  1.00  0.00    -0.209 C  
ENDROOT
BRANCH   1  13
HETATM   13  C   UNL     1     -10.216   9.181  68.588  1.00  0.00    -0.225 A  
HETATM   14  C   UNL     1      -9.800   9.821  65.851  1.00  0.00    -0.352 A  
HETATM   15  C   UNL     1      -9.481  10.096  64.405  1.00  0.00    -0.368 C  
HETATM   16  C   UNL     1      -9.860  10.853  66.808  1.00  0.00    -0.231 A  
HETATM   17  C   UNL     1     -10.177   8.177  67.616  1.00  0.00    -0.296 A  
HETATM   18  C   UNL     1      -9.973   8.493  66.269  1.00  0.00    -0.251 A  
HETATM   19  C   UNL     1     -10.096  10.518  68.160  1.00  0.00    -0.180 A  
BRANCH  16  20
HETATM   20  C   UNL     1      -9.554  12.296  66.449  1.00  0.00    -0.242 C  
BRANCH  20  21
HETATM   21  C   UNL     1     -10.434  13.367  67.033  1.00  0.00    -0.257 A  
HETATM   22  C   UNL     1     -11.557  13.995  66.533  1.00  0.00    -0.389 A  
HETATM   23  C   UNL     1     -12.248  14.749  67.538  1.00  0.00     0.013 A  
HETATM   24  C   UNL     1     -11.644  14.671  68.784  1.00  0.00    -0.317 A  
HETATM   25  S   UNL     1     -10.126  13.877  68.642  1.00  0.00    -0.162 SA 
BRANCH  24  26
HETATM   26  C   UNL     1     -12.131  15.134  70.103  1.00  0.00    -0.384 A  
HETATM   27  C   UNL     1     -11.272  15.789  71.006  1.00  0.00    -0.396 A  
HETATM   28  C   UNL     1     -11.704  16.162  72.283  1.00  0.00    -0.564 A  
HETATM   29  C   UNL     1     -13.000  15.867  72.677  1.00  0.00    -0.466 A  
HETATM   30  F   UNL     1     -13.404  16.197  73.912  1.00  0.00    -0.563 F  
HETATM   31  C   UNL     1     -13.875  15.229  71.811  1.00  0.00    -0.622 A  
HETATM   32  C   UNL     1     -13.445  14.865  70.528  1.00  0.00    -0.047 A  
ENDBRANCH  24  26
ENDBRANCH  20  21
ENDBRANCH  16  20
ENDBRANCH   1  13
BRANCH   4  33
HETATM   33  C   UNL     1      -9.512   5.625  71.759  1.00  0.00    -0.149 C  
HETATM   34  O   UNL     1     -10.589   4.786  72.188  1.00  0.00    -0.198 OA 
HETATM   35  H   UNL     1     -10.291   3.887  72.258  1.00  0.00     0.000 HD 
ENDBRANCH   4  33
TORSDOF 5
ENDMDL
MODEL       43
REMARK 921   NORMALIZED FREE ENERGY PREDICTED BY IDOCK:   -7.33 KCAL/MOL
REMARK 922        TOTAL FREE ENERGY PREDICTED BY IDOCK:  -10.07 KCAL/MOL
REMARK 923 INTER-LIGAND FREE ENERGY PREDICTED BY IDOCK:   -8.79 KCAL/MOL
REMARK 924 INTRA-LIGAND FREE ENERGY PREDICTED BY IDOCK:   -1.28 KCAL/MOL
REMARK 927      BINDING AFFINITY PREDICTED BY RF-SCORE:    0.00 PKD
ROOT
HETATM    1  C   UNL     1      -9.860  16.659  69.077  1.00  0.00    -0.267 C  
HETATM    2  O   UNL     1     -10.566  17.393  68.054  1.00  0.00    -0.371 OA 
HETATM    3  H   UNL     1      -7.253  14.672  69.157  1.00  0.00     0.000 HD 
HETATM    4  C   UNL     1      -9.718  18.279  67.318  1.00  0.00    -0.297 C  
HETATM    5  O   UNL     1      -7.948  15.203  69.528  1.00  0.00    -0.215 OA 
HETATM    6  C   UNL     1      -8.639  17.489  66.566  1.00  0.00    -0.263 C  
HETATM    7  H   UNL     1      -6.373  15.350  67.492  1.00  0.00     0.000 HD 
HETATM    8  O   UNL     1      -6.876  15.859  66.868  1.00  0.00    -0.238 OA 
HETATM    9  O   UNL     1      -7.710  18.333  65.869  1.00  0.00    -0.475 OA 
HETATM   10  C   UNL     1      -7.829  16.669  67.573  1.00  0.00    -0.171 C  
HETATM   11  H   UNL     1      -7.043  17.844  65.404  1.00  0.00     0.000 HD 
HETATM   12  C   UNL     1      -8.729  15.795  68.473  1.00  0.00    -0.184 C  
ENDROOT
BRANCH   1  13
HETATM   13  C   UNL     1     -10.868  15.846  69.885  1.00  0.00    -0.333 A  
HETATM   14  C   UNL     1     -12.614  14.215  71.423  1.00  0.00    -0.445 A  
HETATM   15  C   UNL     1     -13.451  13.334  72.313  1.00  0.00    -0.679 C  
HETATM   16  C   UNL     1     -12.319  13.859  70.092  1.00  0.00    -0.400 A  
HETATM   17  C   UNL     1     -11.198  16.190  71.200  1.00  0.00    -0.257 A  
HETATM   18  C   UNL     1     -12.057  15.387  71.955  1.00  0.00    -0.477 A  
HETATM   19  C   UNL     1     -11.471  14.698  69.333  1.00  0.00    -0.330 A  
BRANCH  16  20
HETATM   20  C   UNL     1     -12.780  12.543  69.493  1.00  0.00     0.664 C  
BRANCH  20  21
HETATM   21  C   UNL     1     -11.842  11.370  69.571  1.00  0.00    -0.357 A  
HETATM   22  C   UNL     1     -11.463  10.577  70.635  1.00  0.00    -0.418 A  
HETATM   23  C   UNL     1     -10.770   9.395  70.209  1.00  0.00    -0.299 A  
HETATM   24  C   UNL     1     -10.645   9.308  68.831  1.00  0.00    -0.199 A  
HETATM   25  S   UNL     1     -11.165  10.779  68.109  1.00  0.00    -0.300 SA 
BRANCH  24  26
HETATM   26  C   UNL     1     -10.179   8.181  67.991  1.00  0.00    -0.263 A  
HETATM   27  C   UNL     1      -8.966   8.258  67.280  1.00  0.00    -0.149 A  
HETATM   28  C   UNL     1      -8.555   7.229  66.427  1.00  0.00    -0.141 A  
HETATM   29  C   UNL     1      -9.365   6.116  66.262  1.00  0.00    -0.134 A  
HETATM   30  F   UNL     1      -8.986   5.144  65.421  1.00  0.00    -0.146 F  
HETATM   31  C   UNL     1     -10.563   6.004  66.953  1.00  0.00    -0.384 A  
HETATM   32  C   UNL     1     -10.968   7.030  67.816  1.00  0.00    -0.234 A  
ENDBRANCH  24  26
ENDBRANCH  20  21
ENDBRANCH  16  20
ENDBRANCH   1  13
BRANCH   4  33
HETATM   33  C   UNL     1     -10.574  19.106  66.351  1.00  0.00    -0.435 C  
HETATM   34  O   UNL     1      -9.949  20.368  66.104  1.00  0.00    -0.593 OA 
HETATM   35  H   UNL     1     -10.479  20.881  65.505  1.00  0.00     0.000 HD 
ENDBRANCH   4  33
TORSDOF 5
ENDMDL
MODEL       44
REMARK 921   NORMALIZED FREE ENERGY PREDICTED BY IDOCK:   -7.32 KCAL/MOL
REMARK 922        TOTAL FREE ENERGY PREDICTED BY IDOCK:  -10.07 KCAL/MOL
REMARK 923 INTER-LIGAND FREE ENERGY PREDICTED BY IDOCK:   -9.27 KCAL/MOL
REMARK 924 INTRA-LIGAND FREE ENERGY PREDICTED BY IDOCK:   -0.80 KCAL/MOL
REMARK 927      BINDING AFFINITY PREDICTED BY RF-SCORE:    0.00 PKD
ROOT
HETATM    1  C   UNL     1     -10.206   8.713  70.313  1.00  0.00    -0.194 C  
HETATM    2  O   UNL     1      -9.801   7.332  70.435  1.00  0.00    -0.183 OA 
HETATM    3  H   UNL     1     -12.735  10.512  71.366  1.00  0.00     0.000 HD 
HETATM    4  C   UNL     1      -9.697   6.899  71.793  1.00  0.00    -0.159 C  
HETATM    5  O   UNL     1     -11.887  10.363  70.966  1.00  0.00    -0.343 OA 
HETATM    6  C   UNL     1     -11.064   6.975  72.486  1.00  0.00    -0.274 C  
HETATM    7  H   UNL     1     -13.225   9.362  72.930  1.00  0.00     0.000 HD 
HETATM    8  O   UNL     1     -12.902   8.471  72.977  1.00  0.00    -0.206 OA 
HETATM    9  O   UNL     1     -11.007   6.623  73.877  1.00  0.00    -0.458 OA 
HETATM   10  C   UNL     1     -11.584   8.412  72.409  1.00  0.00    -0.380 C  
HETATM   11  H   UNL     1     -11.853   6.669  74.306  1.00  0.00     0.000 HD 
HETATM   12  C   UNL     1     -11.587   8.955  70.965  1.00  0.00    -0.293 C  
ENDROOT
BRANCH   1  13
HETATM   13  C   UNL     1     -10.160   9.111  68.840  1.00  0.00    -0.209 A  
HETATM   14  C   UNL     1      -9.895   9.829  66.103  1.00  0.00    -0.329 A  
HETATM   15  C   UNL     1      -9.676  10.123  64.643  1.00  0.00    -0.377 C  
HETATM   16  C   UNL     1      -9.599  10.775  67.105  1.00  0.00    -0.185 A  
HETATM   17  C   UNL     1     -10.471   8.199  67.827  1.00  0.00    -0.279 A  
HETATM   18  C   UNL     1     -10.341   8.554  66.481  1.00  0.00    -0.215 A  
HETATM   19  C   UNL     1      -9.764  10.409  68.460  1.00  0.00    -0.174 A  
BRANCH  16  20
HETATM   20  C   UNL     1      -8.991  12.126  66.775  1.00  0.00    -0.203 C  
BRANCH  20  21
HETATM   21  C   UNL     1      -9.870  13.341  66.900  1.00  0.00    -0.247 A  
HETATM   22  C   UNL     1     -11.092  13.520  67.515  1.00  0.00    -0.293 A  
HETATM   23  C   UNL     1     -11.438  14.906  67.638  1.00  0.00    -0.366 A  
HETATM   24  C   UNL     1     -10.468  15.754  67.126  1.00  0.00    -0.309 A  
HETATM   25  S   UNL     1      -9.274  14.833  66.298  1.00  0.00    -0.190 SA 
BRANCH  24  26
HETATM   26  C   UNL     1     -10.347  17.226  67.226  1.00  0.00    -0.331 A  
HETATM   27  C   UNL     1     -10.453  18.043  66.084  1.00  0.00    -0.336 A  
HETATM   28  C   UNL     1     -10.266  19.427  66.159  1.00  0.00    -0.570 A  
HETATM   29  C   UNL     1      -9.952  20.008  67.378  1.00  0.00    -0.433 A  
HETATM   30  F   UNL     1      -9.742  21.330  67.443  1.00  0.00    -0.611 F  
HETATM   31  C   UNL     1      -9.846  19.233  68.524  1.00  0.00    -0.498 A  
HETATM   32  C   UNL     1     -10.045  17.849  68.451  1.00  0.00    -0.385 A  
ENDBRANCH  24  26
ENDBRANCH  20  21
ENDBRANCH  16  20
ENDBRANCH   1  13
BRANCH   4  33
HETATM   33  C   UNL     1      -9.138   5.472  71.824  1.00  0.00    -0.139 C  
HETATM   34  O   UNL     1      -7.725   5.497  71.601  1.00  0.00    -0.101 OA 
HETATM   35  H   UNL     1      -7.378   4.613  71.621  1.00  0.00     0.000 HD 
ENDBRANCH   4  33
TORSDOF 5
ENDMDL
MODEL       45
REMARK 921   NORMALIZED FREE ENERGY PREDICTED BY IDOCK:   -7.29 KCAL/MOL
REMARK 922        TOTAL FREE ENERGY PREDICTED BY IDOCK:  -10.03 KCAL/MOL
REMARK 923 INTER-LIGAND FREE ENERGY PREDICTED BY IDOCK:   -8.93 KCAL/MOL
REMARK 924 INTRA-LIGAND FREE ENERGY PREDICTED BY IDOCK:   -1.09 KCAL/MOL
REMARK 927      BINDING AFFINITY PREDICTED BY RF-SCORE:    0.00 PKD
ROOT
HETATM    1  C   UNL     1      -9.791  12.301  65.666  1.00  0.00    -0.231 C  
HETATM    2  O   UNL     1     -10.272  13.640  65.911  1.00  0.00    -0.296 OA 
HETATM    3  H   UNL     1     -11.042   9.568  64.358  1.00  0.00     0.000 HD 
HETATM    4  C   UNL     1     -10.756  14.284  64.730  1.00  0.00    -0.416 C  
HETATM    5  O   UNL     1     -10.356  10.123  64.711  1.00  0.00    -0.221 OA 
HETATM    6  C   UNL     1     -11.963  13.526  64.162  1.00  0.00    -0.448 C  
HETATM    7  H   UNL     1     -12.446  10.448  63.236  1.00  0.00     0.000 HD 
HETATM    8  O   UNL     1     -12.700  11.345  63.419  1.00  0.00    -0.146 OA 
HETATM    9  O   UNL     1     -12.446  14.085  62.931  1.00  0.00    -1.028 OA 
HETATM   10  C   UNL     1     -11.553  12.082  63.867  1.00  0.00    -0.449 C  
HETATM   11  H   UNL     1     -13.193  13.616  62.579  1.00  0.00     0.000 HD 
HETATM   12  C   UNL     1     -10.906  11.398  65.091  1.00  0.00    -0.238 C  
ENDROOT
BRANCH   1  13
HETATM   13  C   UNL     1      -9.181  11.753  66.954  1.00  0.00    -0.189 A  
HETATM   14  C   UNL     1      -8.070  10.567  69.285  1.00  0.00    -0.152 A  
HETATM   15  C   UNL     1      -7.429   9.861  70.450  1.00  0.00    -0.137 C  
HETATM   16  C   UNL     1      -9.470  10.627  69.131  1.00  0.00    -0.185 A  
HETATM   17  C   UNL     1      -7.796  11.704  67.142  1.00  0.00    -0.163 A  
HETATM   18  C   UNL     1      -7.251  11.120  68.290  1.00  0.00    -0.083 A  
HETATM   19  C   UNL     1     -10.004  11.246  67.978  1.00  0.00    -0.191 A  
BRANCH  16  20
HETATM   20  C   UNL     1     -10.411   9.937  70.101  1.00  0.00    -0.339 C  
BRANCH  20  21
HETATM   21  C   UNL     1     -10.555   8.443  69.997  1.00  0.00    -0.235 A  
HETATM   22  C   UNL     1     -10.676   7.615  68.900  1.00  0.00    -0.117 A  
HETATM   23  C   UNL     1     -10.502   6.233  69.243  1.00  0.00    -0.298 A  
HETATM   24  C   UNL     1     -10.243   6.039  70.591  1.00  0.00    -0.205 A  
HETATM   25  S   UNL     1     -10.452   7.520  71.440  1.00  0.00    -0.209 SA 
BRANCH  24  26
HETATM   26  C   UNL     1      -9.822   4.814  71.308  1.00  0.00    -0.256 A  
HETATM   27  C   UNL     1     -10.254   4.556  72.623  1.00  0.00    -0.236 A  
HETATM   28  C   UNL     1      -9.802   3.439  73.333  1.00  0.00    -0.165 A  
HETATM   29  C   UNL     1      -8.894   2.576  72.740  1.00  0.00    -0.074 A  
HETATM   30  F   UNL     1      -8.437   1.523  73.432  1.00  0.00    -0.047 F  
HETATM   31  C   UNL     1      -8.452   2.796  71.443  1.00  0.00    -0.092 A  
HETATM   32  C   UNL     1      -8.915   3.908  70.728  1.00  0.00    -0.153 A  
ENDBRANCH  24  26
ENDBRANCH  20  21
ENDBRANCH  16  20
ENDBRANCH   1  13
BRANCH   4  33
HETATM   33  C   UNL     1     -11.119  15.736  65.063  1.00  0.00    -0.370 C  
HETATM   34  O   UNL     1     -11.633  16.389  63.898  1.00  0.00    -1.564 OA 
HETATM   35  H   UNL     1     -11.858  17.288  64.103  1.00  0.00     0.000 HD 
ENDBRANCH   4  33
TORSDOF 5
ENDMDL
MODEL       46
REMARK 921   NORMALIZED FREE ENERGY PREDICTED BY IDOCK:   -7.29 KCAL/MOL
REMARK 922        TOTAL FREE ENERGY PREDICTED BY IDOCK:  -10.02 KCAL/MOL
REMARK 923 INTER-LIGAND FREE ENERGY PREDICTED BY IDOCK:   -9.21 KCAL/MOL
REMARK 924 INTRA-LIGAND FREE ENERGY PREDICTED BY IDOCK:   -0.81 KCAL/MOL
REMARK 927      BINDING AFFINITY PREDICTED BY RF-SCORE:    0.00 PKD
ROOT
HETATM    1  C   UNL     1      -9.977  16.623  69.038  1.00  0.00    -0.280 C  
HETATM    2  O   UNL     1     -10.674  17.267  67.950  1.00  0.00    -0.372 OA 
HETATM    3  H   UNL     1      -7.334  14.705  69.315  1.00  0.00     0.000 HD 
HETATM    4  C   UNL     1      -9.829  18.117  67.171  1.00  0.00    -0.317 C  
HETATM    5  O   UNL     1      -8.047  15.246  69.633  1.00  0.00    -0.233 OA 
HETATM    6  C   UNL     1      -8.716  17.299  66.501  1.00  0.00    -0.262 C  
HETATM    7  H   UNL     1      -6.429  15.282  67.626  1.00  0.00     0.000 HD 
HETATM    8  O   UNL     1      -6.928  15.734  66.956  1.00  0.00    -0.197 OA 
HETATM    9  O   UNL     1      -7.789  18.111  65.765  1.00  0.00    -0.526 OA 
HETATM   10  C   UNL     1      -7.913  16.571  67.581  1.00  0.00    -0.163 C  
HETATM   11  H   UNL     1      -7.101  17.605  65.350  1.00  0.00     0.000 HD 
HETATM   12  C   UNL     1      -8.815  15.744  68.522  1.00  0.00    -0.193 C  
ENDROOT
BRANCH   1  13
HETATM   13  C   UNL     1     -10.987  15.848  69.880  1.00  0.00    -0.343 A  
HETATM   14  C   UNL     1     -12.734  14.295  71.496  1.00  0.00    -0.425 A  
HETATM   15  C   UNL     1     -13.573  13.464  72.431  1.00  0.00    -0.708 C  
HETATM   16  C   UNL     1     -12.383  13.839  70.209  1.00  0.00    -0.407 A  
HETATM   17  C   UNL     1     -11.371  16.290  71.150  1.00  0.00    -0.297 A  
HETATM   18  C   UNL     1     -12.230  15.525  71.944  1.00  0.00    -0.477 A  
HETATM   19  C   UNL     1     -11.536  14.639  69.409  1.00  0.00    -0.330 A  
BRANCH  16  20
HETATM   20  C   UNL     1     -12.784  12.463  69.711  1.00  0.00     0.470 C  
BRANCH  20  21
HETATM   21  C   UNL     1     -12.107  11.269  70.325  1.00  0.00    -0.373 A  
HETATM   22  C   UNL     1     -12.351  10.591  71.502  1.00  0.00    -0.443 A  
HETATM   23  C   UNL     1     -11.652   9.340  71.560  1.00  0.00    -0.452 A  
HETATM   24  C   UNL     1     -10.901   9.086  70.424  1.00  0.00    -0.246 A  
HETATM   25  S   UNL     1     -10.879  10.483  69.421  1.00  0.00    -0.266 SA 
BRANCH  24  26
HETATM   26  C   UNL     1     -10.200   7.850  70.007  1.00  0.00    -0.208 A  
HETATM   27  C   UNL     1     -10.917   6.683  69.680  1.00  0.00    -0.367 A  
HETATM   28  C   UNL     1     -10.260   5.491  69.358  1.00  0.00    -0.329 A  
HETATM   29  C   UNL     1      -8.875   5.448  69.379  1.00  0.00    -0.105 A  
HETATM   30  F   UNL     1      -8.246   4.298  69.101  1.00  0.00    -0.069 F  
HETATM   31  C   UNL     1      -8.137   6.581  69.690  1.00  0.00    -0.125 A  
HETATM   32  C   UNL     1      -8.795   7.778  70.001  1.00  0.00    -0.142 A  
ENDBRANCH  24  26
ENDBRANCH  20  21
ENDBRANCH  16  20
ENDBRANCH   1  13
BRANCH   4  33
HETATM   33  C   UNL     1     -10.679  18.854  66.129  1.00  0.00    -0.289 C  
HETATM   34  O   UNL     1     -10.821  18.046  64.957  1.00  0.00    -0.738 OA 
HETATM   35  H   UNL     1     -11.347  18.502  64.311  1.00  0.00     0.000 HD 
ENDBRANCH   4  33
TORSDOF 5
ENDMDL
MODEL       47
REMARK 921   NORMALIZED FREE ENERGY PREDICTED BY IDOCK:   -7.26 KCAL/MOL
REMARK 922        TOTAL FREE ENERGY PREDICTED BY IDOCK:   -9.98 KCAL/MOL
REMARK 923 INTER-LIGAND FREE ENERGY PREDICTED BY IDOCK:   -9.25 KCAL/MOL
REMARK 924 INTRA-LIGAND FREE ENERGY PREDICTED BY IDOCK:   -0.73 KCAL/MOL
REMARK 927      BINDING AFFINITY PREDICTED BY RF-SCORE:    0.00 PKD
ROOT
HETATM    1  C   UNL     1     -10.409  14.679  67.315  1.00  0.00    -0.256 C  
HETATM    2  O   UNL     1     -10.166  15.811  68.179  1.00  0.00    -0.225 OA 
HETATM    3  H   UNL     1     -11.818  14.228  64.390  1.00  0.00     0.000 HD 
HETATM    4  C   UNL     1      -9.439  16.859  67.533  1.00  0.00    -0.241 C  
HETATM    5  O   UNL     1     -11.315  13.977  65.156  1.00  0.00    -0.309 OA 
HETATM    6  C   UNL     1     -10.244  17.425  66.355  1.00  0.00    -0.338 C  
HETATM    7  H   UNL     1     -11.579  16.093  63.707  1.00  0.00     0.000 HD 
HETATM    8  O   UNL     1     -11.385  16.796  64.316  1.00  0.00    -1.170 OA 
HETATM    9  O   UNL     1      -9.531  18.431  65.621  1.00  0.00    -0.356 OA 
HETATM   10  C   UNL     1     -10.556  16.292  65.375  1.00  0.00    -0.352 C  
HETATM   11  H   UNL     1     -10.030  18.781  64.893  1.00  0.00     0.000 HD 
HETATM   12  C   UNL     1     -11.227  15.087  66.068  1.00  0.00    -0.310 C  
ENDROOT
BRANCH   1  13
HETATM   13  C   UNL     1     -11.070  13.571  68.130  1.00  0.00    -0.283 A  
HETATM   14  C   UNL     1     -12.145  11.488  69.736  1.00  0.00    -0.374 A  
HETATM   15  C   UNL     1     -12.656  10.429  70.678  1.00  0.00    -0.435 C  
HETATM   16  C   UNL     1     -11.336  11.168  68.627  1.00  0.00    -0.342 A  
HETATM   17  C   UNL     1     -11.896  13.861  69.221  1.00  0.00    -0.394 A  
HETATM   18  C   UNL     1     -12.424  12.835  70.010  1.00  0.00    -0.068 A  
HETATM   19  C   UNL     1     -10.834  12.217  67.824  1.00  0.00    -0.263 A  
BRANCH  16  20
HETATM   20  C   UNL     1     -10.888   9.746  68.347  1.00  0.00    -0.244 C  
BRANCH  20  21
HETATM   21  C   UNL     1     -10.152   9.014  69.437  1.00  0.00    -0.198 A  
HETATM   22  C   UNL     1      -9.228   9.453  70.363  1.00  0.00    -0.305 A  
HETATM   23  C   UNL     1      -8.997   8.485  71.396  1.00  0.00    -0.262 A  
HETATM   24  C   UNL     1      -9.756   7.335  71.241  1.00  0.00    -0.166 A  
HETATM   25  S   UNL     1     -10.551   7.369  69.716  1.00  0.00    -0.237 SA 
BRANCH  24  26
HETATM   26  C   UNL     1      -9.956   6.199  72.169  1.00  0.00    -0.188 A  
HETATM   27  C   UNL     1      -8.859   5.502  72.712  1.00  0.00    -0.122 A  
HETATM   28  C   UNL     1      -9.040   4.383  73.530  1.00  0.00    -0.107 A  
HETATM   29  C   UNL     1     -10.324   3.935  73.799  1.00  0.00    -0.174 A  
HETATM   30  F   UNL     1     -10.496   2.844  74.557  1.00  0.00    -0.175 F  
HETATM   31  C   UNL     1     -11.427   4.601  73.286  1.00  0.00    -0.346 A  
HETATM   32  C   UNL     1     -11.246   5.730  72.476  1.00  0.00    -0.347 A  
ENDBRANCH  24  26
ENDBRANCH  20  21
ENDBRANCH  16  20
ENDBRANCH   1  13
BRANCH   4  33
HETATM   33  C   UNL     1      -9.116  17.952  68.559  1.00  0.00    -0.285 C  
HETATM   34  O   UNL     1     -10.197  18.886  68.632  1.00  0.00    -0.381 OA 
HETATM   35  H   UNL     1      -9.997  19.563  69.268  1.00  0.00     0.000 HD 
ENDBRANCH   4  33
TORSDOF 5
ENDMDL
MODEL       48
REMARK 921   NORMALIZED FREE ENERGY PREDICTED BY IDOCK:   -7.25 KCAL/MOL
REMARK 922        TOTAL FREE ENERGY PREDICTED BY IDOCK:   -9.97 KCAL/MOL
REMARK 923 INTER-LIGAND FREE ENERGY PREDICTED BY IDOCK:   -8.96 KCAL/MOL
REMARK 924 INTRA-LIGAND FREE ENERGY PREDICTED BY IDOCK:   -1.00 KCAL/MOL
REMARK 927      BINDING AFFINITY PREDICTED BY RF-SCORE:    0.00 PKD
ROOT
HETATM    1  C   UNL     1     -10.703   7.648  69.004  1.00  0.00    -0.119 C  
HETATM    2  O   UNL     1     -10.938   8.610  70.054  1.00  0.00    -0.246 OA 
HETATM    3  H   UNL     1      -9.695   4.532  68.868  1.00  0.00     0.000 HD 
HETATM    4  C   UNL     1     -11.861   8.144  71.041  1.00  0.00    -0.260 C  
HETATM    5  O   UNL     1     -10.051   5.342  68.522  1.00  0.00    -0.169 OA 
HETATM    6  C   UNL     1     -11.302   6.906  71.756  1.00  0.00    -0.261 C  
HETATM    7  H   UNL     1     -10.232   4.015  70.725  1.00  0.00     0.000 HD 
HETATM    8  O   UNL     1     -10.410   4.690  71.369  1.00  0.00    -0.176 OA 
HETATM    9  O   UNL     1     -12.219   6.347  72.708  1.00  0.00    -0.481 OA 
HETATM   10  C   UNL     1     -11.016   5.818  70.718  1.00  0.00    -0.242 C  
HETATM   11  H   UNL     1     -11.873   5.581  73.150  1.00  0.00     0.000 HD 
HETATM   12  C   UNL     1     -10.124   6.329  69.567  1.00  0.00    -0.176 C  
ENDROOT
BRANCH   1  13
HETATM   13  C   UNL     1      -9.814   8.287  67.940  1.00  0.00    -0.207 A  
HETATM   14  C   UNL     1      -8.171   9.632  66.052  1.00  0.00    -0.119 A  
HETATM   15  C   UNL     1      -7.250  10.401  65.142  1.00  0.00    -0.081 C  
HETATM   16  C   UNL     1      -9.571   9.780  65.990  1.00  0.00    -0.296 A  
HETATM   17  C   UNL     1      -8.424   8.138  67.965  1.00  0.00    -0.133 A  
HETATM   18  C   UNL     1      -7.617   8.800  67.035  1.00  0.00    -0.088 A  
HETATM   19  C   UNL     1     -10.373   9.081  66.920  1.00  0.00    -0.324 A  
BRANCH  16  20
HETATM   20  C   UNL     1     -10.231  10.762  65.039  1.00  0.00    -0.373 C  
BRANCH  20  21
HETATM   21  C   UNL     1     -10.876  11.986  65.630  1.00  0.00    -0.282 A  
HETATM   22  C   UNL     1     -11.903  12.123  66.541  1.00  0.00    -0.322 A  
HETATM   23  C   UNL     1     -12.008  13.463  67.040  1.00  0.00    -0.429 A  
HETATM   24  C   UNL     1     -11.053  14.316  66.509  1.00  0.00    -0.323 A  
HETATM   25  S   UNL     1     -10.207  13.518  65.241  1.00  0.00    -0.281 SA 
BRANCH  24  26
HETATM   26  C   UNL     1     -10.699  15.701  66.894  1.00  0.00    -0.307 A  
HETATM   27  C   UNL     1     -10.861  16.151  68.218  1.00  0.00    -0.326 A  
HETATM   28  C   UNL     1     -10.600  17.478  68.573  1.00  0.00    -0.312 A  
HETATM   29  C   UNL     1     -10.190  18.376  67.601  1.00  0.00    -0.379 A  
HETATM   30  F   UNL     1      -9.969  19.655  67.935  1.00  0.00    -0.405 F  
HETATM   31  C   UNL     1     -10.013  17.965  66.287  1.00  0.00    -0.333 A  
HETATM   32  C   UNL     1     -10.264  16.633  65.934  1.00  0.00    -0.358 A  
ENDBRANCH  24  26
ENDBRANCH  20  21
ENDBRANCH  16  20
ENDBRANCH   1  13
BRANCH   4  33
HETATM   33  C   UNL     1     -12.148   9.275  72.036  1.00  0.00    -0.336 C  
HETATM   34  O   UNL     1     -13.162   8.868  72.958  1.00  0.00    -0.819 OA 
HETATM   35  H   UNL     1     -13.340   9.568  73.575  1.00  0.00     0.000 HD 
ENDBRANCH   4  33
TORSDOF 5
ENDMDL
MODEL       49
REMARK 921   NORMALIZED FREE ENERGY PREDICTED BY IDOCK:   -7.24 KCAL/MOL
REMARK 922        TOTAL FREE ENERGY PREDICTED BY IDOCK:   -9.96 KCAL/MOL
REMARK 923 INTER-LIGAND FREE ENERGY PREDICTED BY IDOCK:   -8.53 KCAL/MOL
REMARK 924 INTRA-LIGAND FREE ENERGY PREDICTED BY IDOCK:   -1.44 KCAL/MOL
REMARK 927      BINDING AFFINITY PREDICTED BY RF-SCORE:    0.00 PKD
ROOT
HETATM    1  C   UNL     1      -9.706  11.471  65.162  1.00  0.00    -0.237 C  
HETATM    2  O   UNL     1      -9.731  11.597  66.601  1.00  0.00    -0.195 OA 
HETATM    3  H   UNL     1     -11.950  11.476  62.773  1.00  0.00     0.000 HD 
HETATM    4  C   UNL     1     -10.374  12.794  67.045  1.00  0.00    -0.234 C  
HETATM    5  O   UNL     1     -11.072  11.488  63.135  1.00  0.00    -0.267 OA 
HETATM    6  C   UNL     1     -11.849  12.800  66.620  1.00  0.00    -0.393 C  
HETATM    7  H   UNL     1     -13.359  12.501  63.757  1.00  0.00     0.000 HD 
HETATM    8  O   UNL     1     -13.308  12.583  64.702  1.00  0.00    -0.804 OA 
HETATM    9  O   UNL     1     -12.530  14.013  66.973  1.00  0.00    -0.530 OA 
HETATM   10  C   UNL     1     -11.931  12.668  65.098  1.00  0.00    -0.428 C  
HETATM   11  H   UNL     1     -13.442  14.016  66.711  1.00  0.00     0.000 HD 
HETATM   12  C   UNL     1     -11.135  11.454  64.573  1.00  0.00    -0.232 C  
ENDROOT
BRANCH   1  13
HETATM   13  C   UNL     1      -8.889  10.237  64.791  1.00  0.00    -0.217 A  
HETATM   14  C   UNL     1      -7.514   7.875  64.013  1.00  0.00    -0.109 A  
HETATM   15  C   UNL     1      -6.839   6.632  63.497  1.00  0.00    -0.049 C  
HETATM   16  C   UNL     1      -8.385   7.843  65.120  1.00  0.00    -0.128 A  
HETATM   17  C   UNL     1      -8.000  10.248  63.711  1.00  0.00    -0.128 A  
HETATM   18  C   UNL     1      -7.323   9.085  63.330  1.00  0.00    -0.097 A  
HETATM   19  C   UNL     1      -9.038   9.035  65.509  1.00  0.00    -0.271 A  
BRANCH  16  20
HETATM   20  C   UNL     1      -8.737   6.546  65.824  1.00  0.00    -0.129 C  
BRANCH  20  21
HETATM   21  C   UNL     1      -9.019   6.602  67.300  1.00  0.00    -0.115 A  
HETATM   22  C   UNL     1      -8.170   6.675  68.386  1.00  0.00    -0.115 A  
HETATM   23  C   UNL     1      -8.868   6.995  69.597  1.00  0.00    -0.141 A  
HETATM   24  C   UNL     1     -10.230   7.170  69.407  1.00  0.00    -0.189 A  
HETATM   25  S   UNL     1     -10.655   6.708  67.807  1.00  0.00    -0.286 SA 
BRANCH  24  26
HETATM   26  C   UNL     1     -11.258   7.687  70.340  1.00  0.00    -0.258 A  
HETATM   27  C   UNL     1     -12.271   6.847  70.842  1.00  0.00    -0.404 A  
HETATM   28  C   UNL     1     -13.288   7.344  71.663  1.00  0.00    -0.426 A  
HETATM   29  C   UNL     1     -13.314   8.694  71.976  1.00  0.00    -0.392 A  
HETATM   30  F   UNL     1     -14.306   9.175  72.738  1.00  0.00    -0.464 F  
HETATM   31  C   UNL     1     -12.328   9.548  71.504  1.00  0.00    -0.465 A  
HETATM   32  C   UNL     1     -11.302   9.048  70.691  1.00  0.00    -0.311 A  
ENDBRANCH  24  26
ENDBRANCH  20  21
ENDBRANCH  16  20
ENDBRANCH   1  13
BRANCH   4  33
HETATM   33  C   UNL     1     -10.236  12.904  68.568  1.00  0.00    -0.205 C  
HETATM   34  O   UNL     1     -10.270  14.279  68.962  1.00  0.00    -0.306 OA 
HETATM   35  H   UNL     1     -10.185  14.347  69.906  1.00  0.00     0.000 HD 
ENDBRANCH   4  33
TORSDOF 5
ENDMDL
MODEL       50
REMARK 921   NORMALIZED FREE ENERGY PREDICTED BY IDOCK:   -7.19 KCAL/MOL
REMARK 922        TOTAL FREE ENERGY PREDICTED BY IDOCK:   -9.89 KCAL/MOL
REMARK 923 INTER-LIGAND FREE ENERGY PREDICTED BY IDOCK:   -9.34 KCAL/MOL
REMARK 924 INTRA-LIGAND FREE ENERGY PREDICTED BY IDOCK:   -0.55 KCAL/MOL
REMARK 927      BINDING AFFINITY PREDICTED BY RF-SCORE:    0.00 PKD
ROOT
HETATM    1  C   UNL     1      -9.603   9.199  68.484  1.00  0.00    -0.148 C  
HETATM    2  O   UNL     1     -10.713   9.324  69.400  1.00  0.00    -0.225 OA 
HETATM    3  H   UNL     1      -6.407   9.918  68.568  1.00  0.00     0.000 HD 
HETATM    4  C   UNL     1     -10.478   8.674  70.652  1.00  0.00    -0.204 C  
HETATM    5  O   UNL     1      -7.198   9.538  68.207  1.00  0.00    -0.075 OA 
HETATM    6  C   UNL     1      -9.290   9.320  71.377  1.00  0.00    -0.067 C  
HETATM    7  H   UNL     1      -6.193   9.871  70.557  1.00  0.00     0.000 HD 
HETATM    8  O   UNL     1      -6.960   9.921  71.114  1.00  0.00    -0.338 OA 
HETATM    9  O   UNL     1      -8.958   8.660  72.608  1.00  0.00    -0.351 OA 
HETATM   10  C   UNL     1      -8.053   9.239  70.479  1.00  0.00    -0.174 C  
HETATM   11  H   UNL     1      -8.224   9.060  73.057  1.00  0.00     0.000 HD 
HETATM   12  C   UNL     1      -8.314   9.818  69.072  1.00  0.00    -0.127 C  
ENDROOT
BRANCH   1  13
HETATM   13  C   UNL     1     -10.002   9.808  67.142  1.00  0.00    -0.252 A  
HETATM   14  C   UNL     1     -10.634  11.080  64.681  1.00  0.00    -0.369 A  
HETATM   15  C   UNL     1     -10.856  11.783  63.368  1.00  0.00    -0.460 C  
HETATM   16  C   UNL     1     -11.251  11.516  65.870  1.00  0.00    -0.239 A  
HETATM   17  C   UNL     1      -9.423   9.378  65.944  1.00  0.00    -0.315 A  
HETATM   18  C   UNL     1      -9.735  10.005  64.734  1.00  0.00    -0.363 A  
HETATM   19  C   UNL     1     -10.945  10.853  67.081  1.00  0.00    -0.334 A  
BRANCH  16  20
HETATM   20  C   UNL     1     -12.131  12.752  65.909  1.00  0.00    -0.485 C  
BRANCH  20  21
HETATM   21  C   UNL     1     -11.525  14.060  65.480  1.00  0.00    -0.318 A  
HETATM   22  C   UNL     1     -11.804  14.884  64.409  1.00  0.00    -0.372 A  
HETATM   23  C   UNL     1     -11.182  16.169  64.539  1.00  0.00    -0.275 A  
HETATM   24  C   UNL     1     -10.452  16.302  65.710  1.00  0.00    -0.364 A  
HETATM   25  S   UNL     1     -10.350  14.779  66.503  1.00  0.00    -0.295 SA 
BRANCH  24  26
HETATM   26  C   UNL     1      -9.828  17.504  66.307  1.00  0.00    -0.295 A  
HETATM   27  C   UNL     1     -10.509  18.737  66.338  1.00  0.00    -0.485 A  
HETATM   28  C   UNL     1      -9.898  19.894  66.832  1.00  0.00    -0.540 A  
HETATM   29  C   UNL     1      -8.590  19.834  67.286  1.00  0.00    -0.321 A  
HETATM   30  F   UNL     1      -7.995  20.949  67.732  1.00  0.00    -0.266 F  
HETATM   31  C   UNL     1      -7.893  18.635  67.277  1.00  0.00    -0.240 A  
HETATM   32  C   UNL     1      -8.508  17.473  66.792  1.00  0.00    -0.275 A  
ENDBRANCH  24  26
ENDBRANCH  20  21
ENDBRANCH  16  20
ENDBRANCH   1  13
BRANCH   4  33
HETATM   33  C   UNL     1     -11.752   8.745  71.502  1.00  0.00    -0.309 C  
HETATM   34  O   UNL     1     -11.555   8.046  72.734  1.00  0.00    -0.456 OA 
HETATM   35  H   UNL     1     -12.343   8.090  73.261  1.00  0.00     0.000 HD 
ENDBRANCH   4  33
TORSDOF 5
ENDMDL
MODEL       51
REMARK 921   NORMALIZED FREE ENERGY PREDICTED BY IDOCK:   -7.17 KCAL/MOL
REMARK 922        TOTAL FREE ENERGY PREDICTED BY IDOCK:   -9.87 KCAL/MOL
REMARK 923 INTER-LIGAND FREE ENERGY PREDICTED BY IDOCK:   -9.03 KCAL/MOL
REMARK 924 INTRA-LIGAND FREE ENERGY PREDICTED BY IDOCK:   -0.84 KCAL/MOL
REMARK 927      BINDING AFFINITY PREDICTED BY RF-SCORE:    0.00 PKD
ROOT
HETATM    1  C   UNL     1      -9.193  17.179  67.236  1.00  0.00    -0.230 C  
HETATM    2  O   UNL     1      -8.178  17.977  66.588  1.00  0.00    -0.242 OA 
HETATM    3  H   UNL     1     -11.075  17.502  69.900  1.00  0.00     0.000 HD 
HETATM    4  C   UNL     1      -8.630  19.292  66.256  1.00  0.00    -0.325 C  
HETATM    5  O   UNL     1     -10.784  17.100  69.090  1.00  0.00    -0.301 OA 
HETATM    6  C   UNL     1      -8.995  20.071  67.527  1.00  0.00    -0.346 C  
HETATM    7  H   UNL     1     -11.024  19.500  70.002  1.00  0.00     0.000 HD 
HETATM    8  O   UNL     1     -10.355  19.978  69.527  1.00  0.00    -0.214 OA 
HETATM    9  O   UNL     1      -9.527  21.375  67.251  1.00  0.00    -0.558 OA 
HETATM   10  C   UNL     1     -10.073  19.300  68.292  1.00  0.00    -0.425 C  
HETATM   11  H   UNL     1      -9.753  21.857  68.038  1.00  0.00     0.000 HD 
HETATM   12  C   UNL     1      -9.668  17.834  68.554  1.00  0.00    -0.343 C  
ENDROOT
BRANCH   1  13
HETATM   13  C   UNL     1      -8.657  15.763  67.429  1.00  0.00    -0.192 A  
HETATM   14  C   UNL     1      -7.688  13.099  67.611  1.00  0.00    -0.168 A  
HETATM   15  C   UNL     1      -7.120  11.704  67.604  1.00  0.00    -0.095 C  
HETATM   16  C   UNL     1      -9.076  13.335  67.584  1.00  0.00    -0.204 A  
HETATM   17  C   UNL     1      -7.285  15.502  67.482  1.00  0.00    -0.222 A  
HETATM   18  C   UNL     1      -6.809  14.191  67.572  1.00  0.00    -0.151 A  
HETATM   19  C   UNL     1      -9.540  14.669  67.522  1.00  0.00    -0.206 A  
BRANCH  16  20
HETATM   20  C   UNL     1     -10.080  12.201  67.492  1.00  0.00    -0.204 C  
BRANCH  20  21
HETATM   21  C   UNL     1     -10.629  11.643  68.777  1.00  0.00    -0.212 A  
HETATM   22  C   UNL     1     -11.770  11.952  69.488  1.00  0.00    -0.410 A  
HETATM   23  C   UNL     1     -12.053  10.981  70.505  1.00  0.00    -0.470 A  
HETATM   24  C   UNL     1     -11.129   9.949  70.540  1.00  0.00    -0.332 A  
HETATM   25  S   UNL     1      -9.814  10.314  69.493  1.00  0.00    -0.189 SA 
BRANCH  24  26
HETATM   26  C   UNL     1     -11.159   8.675  71.294  1.00  0.00    -0.336 A  
HETATM   27  C   UNL     1     -12.088   7.664  70.976  1.00  0.00    -0.282 A  
HETATM   28  C   UNL     1     -12.172   6.490  71.729  1.00  0.00    -0.374 A  
HETATM   29  C   UNL     1     -11.339   6.320  72.824  1.00  0.00    -0.201 A  
HETATM   30  F   UNL     1     -11.441   5.208  73.565  1.00  0.00    -0.355 F  
HETATM   31  C   UNL     1     -10.408   7.292  73.162  1.00  0.00    -0.359 A  
HETATM   32  C   UNL     1     -10.316   8.464  72.399  1.00  0.00    -0.399 A  
ENDBRANCH  24  26
ENDBRANCH  20  21
ENDBRANCH  16  20
ENDBRANCH   1  13
BRANCH   4  33
HETATM   33  C   UNL     1      -7.536  20.013  65.460  1.00  0.00    -0.187 C  
HETATM   34  O   UNL     1      -6.953  21.047  66.259  1.00  0.00    -0.499 OA 
HETATM   35  H   UNL     1      -6.275  21.493  65.766  1.00  0.00     0.000 HD 
ENDBRANCH   4  33
TORSDOF 5
ENDMDL
MODEL       52
REMARK 921   NORMALIZED FREE ENERGY PREDICTED BY IDOCK:   -7.17 KCAL/MOL
REMARK 922        TOTAL FREE ENERGY PREDICTED BY IDOCK:   -9.87 KCAL/MOL
REMARK 923 INTER-LIGAND FREE ENERGY PREDICTED BY IDOCK:   -9.41 KCAL/MOL
REMARK 924 INTRA-LIGAND FREE ENERGY PREDICTED BY IDOCK:   -0.46 KCAL/MOL
REMARK 927      BINDING AFFINITY PREDICTED BY RF-SCORE:    0.00 PKD
ROOT
HETATM    1  C   UNL     1     -10.490  12.530  66.737  1.00  0.00    -0.225 C  
HETATM    2  O   UNL     1     -11.506  12.585  65.712  1.00  0.00    -0.328 OA 
HETATM    3  H   UNL     1      -8.124  10.423  67.576  1.00  0.00     0.000 HD 
HETATM    4  C   UNL     1     -10.972  12.474  64.390  1.00  0.00    -0.340 C  
HETATM    5  O   UNL     1      -8.605  11.242  67.609  1.00  0.00    -0.121 OA 
HETATM    6  C   UNL     1     -10.289  11.112  64.200  1.00  0.00    -0.361 C  
HETATM    7  H   UNL     1      -7.920   9.551  65.787  1.00  0.00     0.000 HD 
HETATM    8  O   UNL     1      -8.604   9.648  65.135  1.00  0.00    -0.138 OA 
HETATM    9  O   UNL     1      -9.667  10.972  62.915  1.00  0.00    -0.396 OA 
HETATM   10  C   UNL     1      -9.187  10.956  65.250  1.00  0.00    -0.210 C  
HETATM   11  H   UNL     1      -9.245  10.130  62.797  1.00  0.00     0.000 HD 
HETATM   12  C   UNL     1      -9.707  11.198  66.683  1.00  0.00    -0.196 C  
ENDROOT
BRANCH   1  13
HETATM   13  C   UNL     1     -11.144  12.788  68.092  1.00  0.00    -0.288 A  
HETATM   14  C   UNL     1     -12.207  13.210  70.693  1.00  0.00    -0.402 A  
HETATM   15  C   UNL     1     -12.666  13.474  72.103  1.00  0.00    -0.230 C  
HETATM   16  C   UNL     1     -12.186  11.910  70.150  1.00  0.00    -0.319 A  
HETATM   17  C   UNL     1     -11.199  14.072  68.644  1.00  0.00    -0.294 A  
HETATM   18  C   UNL     1     -11.723  14.278  69.923  1.00  0.00    -0.373 A  
HETATM   19  C   UNL     1     -11.679  11.724  68.844  1.00  0.00    -0.384 A  
BRANCH  16  20
HETATM   20  C   UNL     1     -12.571  10.693  70.971  1.00  0.00    -0.516 C  
BRANCH  20  21
HETATM   21  C   UNL     1     -11.611   9.536  71.006  1.00  0.00    -0.344 A  
HETATM   22  C   UNL     1     -11.094   8.815  72.062  1.00  0.00    -0.441 A  
HETATM   23  C   UNL     1     -10.437   7.616  71.628  1.00  0.00    -0.229 A  
HETATM   24  C   UNL     1     -10.477   7.444  70.253  1.00  0.00    -0.221 A  
HETATM   25  S   UNL     1     -11.105   8.862  69.511  1.00  0.00     0.094 SA 
BRANCH  24  26
HETATM   26  C   UNL     1     -10.095   6.271  69.433  1.00  0.00    -0.215 A  
HETATM   27  C   UNL     1     -10.085   6.340  68.027  1.00  0.00    -0.174 A  
HETATM   28  C   UNL     1      -9.799   5.217  67.245  1.00  0.00    -0.191 A  
HETATM   29  C   UNL     1      -9.535   4.005  67.863  1.00  0.00    -0.173 A  
HETATM   30  F   UNL     1      -9.290   2.922  67.112  1.00  0.00    -0.179 F  
HETATM   31  C   UNL     1      -9.529   3.903  69.246  1.00  0.00    -0.256 A  
HETATM   32  C   UNL     1      -9.805   5.031  70.030  1.00  0.00    -0.298 A  
ENDBRANCH  24  26
ENDBRANCH  20  21
ENDBRANCH  16  20
ENDBRANCH   1  13
BRANCH   4  33
HETATM   33  C   UNL     1     -12.101  12.675  63.373  1.00  0.00    -0.525 C  
HETATM   34  O   UNL     1     -12.409  14.067  63.255  1.00  0.00    -1.133 OA 
HETATM   35  H   UNL     1     -13.109  14.191  62.625  1.00  0.00     0.000 HD 
ENDBRANCH   4  33
TORSDOF 5
ENDMDL
MODEL       53
REMARK 921   NORMALIZED FREE ENERGY PREDICTED BY IDOCK:   -7.14 KCAL/MOL
REMARK 922        TOTAL FREE ENERGY PREDICTED BY IDOCK:   -9.83 KCAL/MOL
REMARK 923 INTER-LIGAND FREE ENERGY PREDICTED BY IDOCK:   -8.95 KCAL/MOL
REMARK 924 INTRA-LIGAND FREE ENERGY PREDICTED BY IDOCK:   -0.87 KCAL/MOL
REMARK 927      BINDING AFFINITY PREDICTED BY RF-SCORE:    0.00 PKD
ROOT
HETATM    1  C   UNL     1     -11.878   9.936  71.263  1.00  0.00    -0.395 C  
HETATM    2  O   UNL     1     -11.469   9.674  69.904  1.00  0.00    -0.203 OA 
HETATM    3  H   UNL     1     -13.740   8.403  73.484  1.00  0.00     0.000 HD 
HETATM    4  C   UNL     1     -10.819   8.409  69.751  1.00  0.00    -0.183 C  
HETATM    5  O   UNL     1     -13.132   9.063  73.172  1.00  0.00    -0.176 OA 
HETATM    6  C   UNL     1     -11.781   7.266  70.103  1.00  0.00    -0.057 C  
HETATM    7  H   UNL     1     -13.553   6.557  72.734  1.00  0.00     0.000 HD 
HETATM    8  O   UNL     1     -13.245   6.440  71.844  1.00  0.00    -0.114 OA 
HETATM    9  O   UNL     1     -11.161   5.973  70.041  1.00  0.00    -0.351 OA 
HETATM   10  C   UNL     1     -12.277   7.456  71.538  1.00  0.00    -0.337 C  
HETATM   11  H   UNL     1     -11.756   5.266  70.258  1.00  0.00     0.000 HD 
HETATM   12  C   UNL     1     -12.868   8.862  71.771  1.00  0.00    -0.365 C  
ENDROOT
BRANCH   1  13
HETATM   13  C   UNL     1     -12.438  11.354  71.344  1.00  0.00    -0.370 A  
HETATM   14  C   UNL     1     -13.591  13.950  71.358  1.00  0.00    -0.287 A  
HETATM   15  C   UNL     1     -14.307  15.276  71.347  1.00  0.00    -0.578 C  
HETATM   16  C   UNL     1     -12.611  13.628  70.400  1.00  0.00    -0.297 A  
HETATM   17  C   UNL     1     -13.395  11.707  72.300  1.00  0.00    -0.132 A  
HETATM   18  C   UNL     1     -13.962  12.985  72.306  1.00  0.00    -0.421 A  
HETATM   19  C   UNL     1     -12.028  12.340  70.426  1.00  0.00    -0.349 A  
BRANCH  16  20
HETATM   20  C   UNL     1     -12.256  14.574  69.268  1.00  0.00    -0.264 C  
BRANCH  20  21
HETATM   21  C   UNL     1     -11.172  14.152  68.313  1.00  0.00    -0.272 A  
HETATM   22  C   UNL     1      -9.799  14.135  68.447  1.00  0.00    -0.231 A  
HETATM   23  C   UNL     1      -9.163  13.391  67.399  1.00  0.00    -0.213 A  
HETATM   24  C   UNL     1     -10.064  12.848  66.496  1.00  0.00    -0.261 A  
HETATM   25  S   UNL     1     -11.640  13.457  66.816  1.00  0.00    -0.386 SA 
BRANCH  24  26
HETATM   26  C   UNL     1      -9.841  11.874  65.404  1.00  0.00    -0.258 A  
HETATM   27  C   UNL     1      -9.459  10.547  65.679  1.00  0.00    -0.259 A  
HETATM   28  C   UNL     1      -9.175   9.642  64.652  1.00  0.00    -0.293 A  
HETATM   29  C   UNL     1      -9.252  10.062  63.333  1.00  0.00    -0.281 A  
HETATM   30  F   UNL     1      -8.949   9.204  62.350  1.00  0.00    -0.224 F  
HETATM   31  C   UNL     1      -9.632  11.360  63.025  1.00  0.00    -0.397 A  
HETATM   32  C   UNL     1      -9.928  12.263  64.055  1.00  0.00    -0.285 A  
ENDBRANCH  24  26
ENDBRANCH  20  21
ENDBRANCH  16  20
ENDBRANCH   1  13
BRANCH   4  33
HETATM   33  C   UNL     1     -10.306   8.278  68.312  1.00  0.00    -0.198 C  
HETATM   34  O   UNL     1     -11.222   7.498  67.538  1.00  0.00    -0.516 OA 
HETATM   35  H   UNL     1     -10.905   7.417  66.646  1.00  0.00     0.000 HD 
ENDBRANCH   4  33
TORSDOF 5
ENDMDL
MODEL       54
REMARK 921   NORMALIZED FREE ENERGY PREDICTED BY IDOCK:   -7.14 KCAL/MOL
REMARK 922        TOTAL FREE ENERGY PREDICTED BY IDOCK:   -9.82 KCAL/MOL
REMARK 923 INTER-LIGAND FREE ENERGY PREDICTED BY IDOCK:   -9.49 KCAL/MOL
REMARK 924 INTRA-LIGAND FREE ENERGY PREDICTED BY IDOCK:   -0.33 KCAL/MOL
REMARK 927      BINDING AFFINITY PREDICTED BY RF-SCORE:    0.00 PKD
ROOT
HETATM    1  C   UNL     1      -9.230  12.469  66.351  1.00  0.00    -0.177 C  
HETATM    2  O   UNL     1      -9.903  12.169  65.110  1.00  0.00    -0.247 OA 
HETATM    3  H   UNL     1      -8.847  10.952  69.231  1.00  0.00     0.000 HD 
HETATM    4  C   UNL     1      -9.488  10.928  64.535  1.00  0.00    -0.244 C  
HETATM    5  O   UNL     1      -8.684  11.623  68.579  1.00  0.00    -0.161 OA 
HETATM    6  C   UNL     1      -9.839   9.761  65.469  1.00  0.00    -0.308 C  
HETATM    7  H   UNL     1      -9.146   9.086  68.572  1.00  0.00     0.000 HD 
HETATM    8  O   UNL     1      -9.563   8.946  67.731  1.00  0.00    -0.142 OA 
HETATM    9  O   UNL     1      -9.377   8.493  64.979  1.00  0.00    -0.394 OA 
HETATM   10  C   UNL     1      -9.167   9.988  66.825  1.00  0.00    -0.148 C  
HETATM   11  H   UNL     1      -9.595   7.771  65.556  1.00  0.00     0.000 HD 
HETATM   12  C   UNL     1      -9.493  11.377  67.414  1.00  0.00    -0.167 C  
ENDROOT
BRANCH   1  13
HETATM   13  C   UNL     1      -9.643  13.865  66.811  1.00  0.00    -0.288 A  
HETATM   14  C   UNL     1     -10.349  16.421  67.831  1.00  0.00    -0.286 A  
HETATM   15  C   UNL     1     -10.623  17.774  68.432  1.00  0.00    -0.297 C  
HETATM   16  C   UNL     1     -11.184  15.314  68.083  1.00  0.00    -0.328 A  
HETATM   17  C   UNL     1      -8.845  14.984  66.555  1.00  0.00    -0.286 A  
HETATM   18  C   UNL     1      -9.194  16.241  67.057  1.00  0.00    -0.230 A  
HETATM   19  C   UNL     1     -10.831  14.056  67.544  1.00  0.00    -0.277 A  
BRANCH  16  20
HETATM   20  C   UNL     1     -12.376  15.406  69.018  1.00  0.00    -0.047 C  
BRANCH  20  21
HETATM   21  C   UNL     1     -12.450  14.431  70.160  1.00  0.00    -0.339 A  
HETATM   22  C   UNL     1     -13.056  14.523  71.397  1.00  0.00    -0.423 A  
HETATM   23  C   UNL     1     -13.122  13.254  72.062  1.00  0.00    -0.475 A  
HETATM   24  C   UNL     1     -12.576  12.221  71.315  1.00  0.00    -0.234 A  
HETATM   25  S   UNL     1     -11.787  12.865  69.929  1.00  0.00    -0.245 SA 
BRANCH  24  26
HETATM   26  C   UNL     1     -12.615  10.760  71.548  1.00  0.00    -0.500 A  
HETATM   27  C   UNL     1     -11.569   9.925  71.108  1.00  0.00    -0.468 A  
HETATM   28  C   UNL     1     -11.634   8.537  71.258  1.00  0.00    -0.332 A  
HETATM   29  C   UNL     1     -12.757   7.964  71.834  1.00  0.00    -0.316 A  
HETATM   30  F   UNL     1     -12.832   6.631  71.949  1.00  0.00    -0.381 F  
HETATM   31  C   UNL     1     -13.803   8.757  72.285  1.00  0.00    -0.505 A  
HETATM   32  C   UNL     1     -13.732  10.149  72.145  1.00  0.00    -0.185 A  
ENDBRANCH  24  26
ENDBRANCH  20  21
ENDBRANCH  16  20
ENDBRANCH   1  13
BRANCH   4  33
HETATM   33  C   UNL     1     -10.154  10.760  63.165  1.00  0.00    -0.210 C  
HETATM   34  O   UNL     1     -11.462  11.339  63.185  1.00  0.00    -0.850 OA 
HETATM   35  H   UNL     1     -11.875  11.236  62.336  1.00  0.00     0.000 HD 
ENDBRANCH   4  33
TORSDOF 5
ENDMDL
MODEL       55
REMARK 921   NORMALIZED FREE ENERGY PREDICTED BY IDOCK:   -7.11 KCAL/MOL
REMARK 922        TOTAL FREE ENERGY PREDICTED BY IDOCK:   -9.78 KCAL/MOL
REMARK 923 INTER-LIGAND FREE ENERGY PREDICTED BY IDOCK:   -8.59 KCAL/MOL
REMARK 924 INTRA-LIGAND FREE ENERGY PREDICTED BY IDOCK:   -1.19 KCAL/MOL
REMARK 927      BINDING AFFINITY PREDICTED BY RF-SCORE:    0.00 PKD
ROOT
HETATM    1  C   UNL     1      -9.063  16.635  67.619  1.00  0.00    -0.207 C  
HETATM    2  O   UNL     1      -9.697  17.910  67.375  1.00  0.00    -0.276 OA 
HETATM    3  H   UNL     1      -6.005  15.470  67.436  1.00  0.00     0.000 HD 
HETATM    4  C   UNL     1      -9.118  18.975  68.133  1.00  0.00    -0.320 C  
HETATM    5  O   UNL     1      -6.928  15.446  67.659  1.00  0.00    -0.150 OA 
HETATM    6  C   UNL     1      -7.650  19.180  67.736  1.00  0.00    -0.253 C  
HETATM    7  H   UNL     1      -5.058  17.220  67.644  1.00  0.00     0.000 HD 
HETATM    8  O   UNL     1      -5.532  18.031  67.506  1.00  0.00    -0.134 OA 
HETATM    9  O   UNL     1      -6.994  20.188  68.519  1.00  0.00    -0.299 OA 
HETATM   10  C   UNL     1      -6.886  17.873  67.959  1.00  0.00    -0.197 C  
HETATM   11  H   UNL     1      -6.085  20.315  68.273  1.00  0.00     0.000 HD 
HETATM   12  C   UNL     1      -7.560  16.675  67.257  1.00  0.00    -0.169 C  
ENDROOT
BRANCH   1  13
HETATM   13  C   UNL     1      -9.832  15.551  66.869  1.00  0.00    -0.245 A  
HETATM   14  C   UNL     1     -11.417  13.622  65.513  1.00  0.00    -0.317 A  
HETATM   15  C   UNL     1     -12.322  12.688  64.753  1.00  0.00    -0.556 C  
HETATM   16  C   UNL     1     -11.312  13.576  66.917  1.00  0.00    -0.350 A  
HETATM   17  C   UNL     1      -9.934  15.560  65.475  1.00  0.00    -0.377 A  
HETATM   18  C   UNL     1     -10.713  14.610  64.808  1.00  0.00    -0.399 A  
HETATM   19  C   UNL     1     -10.496  14.526  67.572  1.00  0.00    -0.253 A  
BRANCH  16  20
HETATM   20  C   UNL     1     -12.144  12.619  67.751  1.00  0.00    -0.157 C  
BRANCH  20  21
HETATM   21  C   UNL     1     -11.433  11.485  68.438  1.00  0.00    -0.298 A  
HETATM   22  C   UNL     1     -11.306  11.168  69.775  1.00  0.00    -0.354 A  
HETATM   23  C   UNL     1     -10.786   9.846  69.970  1.00  0.00    -0.338 A  
HETATM   24  C   UNL     1     -10.538   9.181  68.779  1.00  0.00    -0.181 A  
HETATM   25  S   UNL     1     -10.722  10.268  67.460  1.00  0.00    -0.294 SA 
BRANCH  24  26
HETATM   26  C   UNL     1     -10.187   7.762  68.542  1.00  0.00    -0.227 A  
HETATM   27  C   UNL     1     -10.806   7.022  67.516  1.00  0.00    -0.338 A  
HETATM   28  C   UNL     1     -10.535   5.662  67.333  1.00  0.00    -0.306 A  
HETATM   29  C   UNL     1      -9.652   5.022  68.189  1.00  0.00    -0.138 A  
HETATM   30  F   UNL     1      -9.416   3.712  68.033  1.00  0.00    -0.188 F  
HETATM   31  C   UNL     1      -9.019   5.722  69.206  1.00  0.00    -0.122 A  
HETATM   32  C   UNL     1      -9.283   7.087  69.381  1.00  0.00    -0.147 A  
ENDBRANCH  24  26
ENDBRANCH  20  21
ENDBRANCH  16  20
ENDBRANCH   1  13
BRANCH   4  33
HETATM   33  C   UNL     1      -9.936  20.253  67.910  1.00  0.00    -0.352 C  
HETATM   34  O   UNL     1      -9.355  21.025  66.855  1.00  0.00    -0.648 OA 
HETATM   35  H   UNL     1      -9.861  21.816  66.717  1.00  0.00     0.000 HD 
ENDBRANCH   4  33
TORSDOF 5
ENDMDL
MODEL       56
REMARK 921   NORMALIZED FREE ENERGY PREDICTED BY IDOCK:   -7.10 KCAL/MOL
REMARK 922        TOTAL FREE ENERGY PREDICTED BY IDOCK:   -9.77 KCAL/MOL
REMARK 923 INTER-LIGAND FREE ENERGY PREDICTED BY IDOCK:   -9.30 KCAL/MOL
REMARK 924 INTRA-LIGAND FREE ENERGY PREDICTED BY IDOCK:   -0.48 KCAL/MOL
REMARK 927      BINDING AFFINITY PREDICTED BY RF-SCORE:    0.00 PKD
ROOT
HETATM    1  C   UNL     1     -10.266  14.361  66.828  1.00  0.00    -0.270 C  
HETATM    2  O   UNL     1     -10.258  13.187  65.988  1.00  0.00    -0.275 OA 
HETATM    3  H   UNL     1     -10.414  17.597  66.326  1.00  0.00     0.000 HD 
HETATM    4  C   UNL     1     -11.386  13.120  65.112  1.00  0.00    -0.296 C  
HETATM    5  O   UNL     1     -10.422  16.801  66.844  1.00  0.00    -0.306 OA 
HETATM    6  C   UNL     1     -11.379  14.305  64.137  1.00  0.00    -0.054 C  
HETATM    7  H   UNL     1     -11.294  17.531  64.530  1.00  0.00     0.000 HD 
HETATM    8  O   UNL     1     -11.290  16.721  64.033  1.00  0.00    -1.153 OA 
HETATM    9  O   UNL     1     -12.530  14.333  63.280  1.00  0.00    -1.133 OA 
HETATM   10  C   UNL     1     -11.386  15.609  64.937  1.00  0.00    -0.315 C  
HETATM   11  H   UNL     1     -12.526  15.066  62.677  1.00  0.00     0.000 HD 
HETATM   12  C   UNL     1     -10.253  15.658  65.985  1.00  0.00    -0.335 C  
ENDROOT
BRANCH   1  13
HETATM   13  C   UNL     1      -9.100  14.273  67.809  1.00  0.00    -0.195 A  
HETATM   14  C   UNL     1      -6.818  14.115  69.495  1.00  0.00    -0.084 A  
HETATM   15  C   UNL     1      -5.557  14.111  70.318  1.00  0.00    -0.124 C  
HETATM   16  C   UNL     1      -7.273  12.961  68.827  1.00  0.00    -0.081 A  
HETATM   17  C   UNL     1      -8.643  15.398  68.503  1.00  0.00    -0.172 A  
HETATM   18  C   UNL     1      -7.520  15.319  69.332  1.00  0.00    -0.212 A  
HETATM   19  C   UNL     1      -8.427  13.053  68.015  1.00  0.00    -0.181 A  
BRANCH  16  20
HETATM   20  C   UNL     1      -6.492  11.661  68.853  1.00  0.00    -0.071 C  
BRANCH  20  21
HETATM   21  C   UNL     1      -7.056  10.518  69.653  1.00  0.00    -0.141 A  
HETATM   22  C   UNL     1      -6.616   9.916  70.814  1.00  0.00    -0.069 A  
HETATM   23  C   UNL     1      -7.608   9.053  71.385  1.00  0.00    -0.078 A  
HETATM   24  C   UNL     1      -8.786   9.023  70.654  1.00  0.00    -0.213 A  
HETATM   25  S   UNL     1      -8.566   9.862  69.169  1.00  0.00    -0.170 SA 
BRANCH  24  26
HETATM   26  C   UNL     1     -10.096   8.424  70.993  1.00  0.00    -0.242 A  
HETATM   27  C   UNL     1     -10.572   7.285  70.314  1.00  0.00    -0.243 A  
HETATM   28  C   UNL     1     -11.841   6.758  70.577  1.00  0.00    -0.418 A  
HETATM   29  C   UNL     1     -12.656   7.377  71.511  1.00  0.00    -0.367 A  
HETATM   30  F   UNL     1     -13.884   6.890  71.740  1.00  0.00    -0.415 F  
HETATM   31  C   UNL     1     -12.217   8.496  72.203  1.00  0.00    -0.446 A  
HETATM   32  C   UNL     1     -10.941   9.017  71.948  1.00  0.00    -0.423 A  
ENDBRANCH  24  26
ENDBRANCH  20  21
ENDBRANCH  16  20
ENDBRANCH   1  13
BRANCH   4  33
HETATM   33  C   UNL     1     -11.359  11.784  64.359  1.00  0.00    -0.301 C  
HETATM   34  O   UNL     1     -12.587  11.601  63.648  1.00  0.00    -0.516 OA 
HETATM   35  H   UNL     1     -12.571  10.773  63.182  1.00  0.00     0.000 HD 
ENDBRANCH   4  33
TORSDOF 5
ENDMDL
MODEL       57
REMARK 921   NORMALIZED FREE ENERGY PREDICTED BY IDOCK:   -7.08 KCAL/MOL
REMARK 922        TOTAL FREE ENERGY PREDICTED BY IDOCK:   -9.75 KCAL/MOL
REMARK 923 INTER-LIGAND FREE ENERGY PREDICTED BY IDOCK:   -9.09 KCAL/MOL
REMARK 924 INTRA-LIGAND FREE ENERGY PREDICTED BY IDOCK:   -0.66 KCAL/MOL
REMARK 927      BINDING AFFINITY PREDICTED BY RF-SCORE:    0.00 PKD
ROOT
HETATM    1  C   UNL     1      -9.737   5.801  67.963  1.00  0.00    -0.124 C  
HETATM    2  O   UNL     1      -9.804   4.631  67.119  1.00  0.00    -0.182 OA 
HETATM    3  H   UNL     1      -7.708   8.358  68.261  1.00  0.00     0.000 HD 
HETATM    4  C   UNL     1      -9.808   4.949  65.725  1.00  0.00    -0.168 C  
HETATM    5  O   UNL     1      -8.496   7.855  68.429  1.00  0.00    -0.127 OA 
HETATM    6  C   UNL     1      -8.500   5.648  65.331  1.00  0.00    -0.147 C  
HETATM    7  H   UNL     1      -6.966   8.306  66.404  1.00  0.00     0.000 HD 
HETATM    8  O   UNL     1      -7.069   7.522  65.878  1.00  0.00    -0.063 OA 
HETATM    9  O   UNL     1      -8.477   6.059  63.956  1.00  0.00    -0.313 OA 
HETATM   10  C   UNL     1      -8.334   6.911  66.178  1.00  0.00    -0.130 C  
HETATM   11  H   UNL     1      -7.667   6.491  63.712  1.00  0.00     0.000 HD 
HETATM   12  C   UNL     1      -8.455   6.621  67.690  1.00  0.00    -0.121 C  
ENDROOT
BRANCH   1  13
HETATM   13  C   UNL     1      -9.871   5.365  69.420  1.00  0.00    -0.252 A  
HETATM   14  C   UNL     1     -10.297   4.533  72.103  1.00  0.00    -0.233 A  
HETATM   15  C   UNL     1     -10.598   4.012  73.484  1.00  0.00    -0.282 C  
HETATM   16  C   UNL     1     -10.594   5.858  71.728  1.00  0.00    -0.286 A  
HETATM   17  C   UNL     1      -9.561   4.063  69.824  1.00  0.00    -0.280 A  
HETATM   18  C   UNL     1      -9.771   3.655  71.144  1.00  0.00    -0.245 A  
HETATM   19  C   UNL     1     -10.348   6.262  70.396  1.00  0.00    -0.260 A  
BRANCH  16  20
HETATM   20  C   UNL     1     -11.283   6.823  72.675  1.00  0.00    -0.291 C  
BRANCH  20  21
HETATM   21  C   UNL     1     -12.133   7.909  72.075  1.00  0.00    -0.320 A  
HETATM   22  C   UNL     1     -13.497   7.998  71.889  1.00  0.00    -0.342 A  
HETATM   23  C   UNL     1     -13.910   9.327  71.541  1.00  0.00    -0.330 A  
HETATM   24  C   UNL     1     -12.855  10.224  71.480  1.00  0.00    -0.452 A  
HETATM   25  S   UNL     1     -11.366   9.374  71.616  1.00  0.00    -0.322 SA 
BRANCH  24  26
HETATM   26  C   UNL     1     -12.870  11.698  71.347  1.00  0.00    -0.461 A  
HETATM   27  C   UNL     1     -12.181  12.341  70.300  1.00  0.00    -0.342 A  
HETATM   28  C   UNL     1     -12.129  13.735  70.211  1.00  0.00    -0.425 A  
HETATM   29  C   UNL     1     -12.753  14.505  71.180  1.00  0.00    -0.338 A  
HETATM   30  F   UNL     1     -12.676  15.841  71.111  1.00  0.00    -0.432 F  
HETATM   31  C   UNL     1     -13.446  13.905  72.221  1.00  0.00    -0.623 A  
HETATM   32  C   UNL     1     -13.508  12.507  72.304  1.00  0.00    -0.490 A  
ENDBRANCH  24  26
ENDBRANCH  20  21
ENDBRANCH  16  20
ENDBRANCH   1  13
BRANCH   4  33
HETATM   33  C   UNL     1     -10.014   3.662  64.917  1.00  0.00    -0.137 C  
HETATM   34  O   UNL     1     -11.304   3.676  64.298  1.00  0.00    -0.574 OA 
HETATM   35  H   UNL     1     -11.431   2.880  63.798  1.00  0.00     0.000 HD 
ENDBRANCH   4  33
TORSDOF 5
ENDMDL
MODEL       58
REMARK 921   NORMALIZED FREE ENERGY PREDICTED BY IDOCK:   -7.07 KCAL/MOL
REMARK 922        TOTAL FREE ENERGY PREDICTED BY IDOCK:   -9.73 KCAL/MOL
REMARK 923 INTER-LIGAND FREE ENERGY PREDICTED BY IDOCK:   -8.69 KCAL/MOL
REMARK 924 INTRA-LIGAND FREE ENERGY PREDICTED BY IDOCK:   -1.04 KCAL/MOL
REMARK 927      BINDING AFFINITY PREDICTED BY RF-SCORE:    0.00 PKD
ROOT
HETATM    1  C   UNL     1     -11.665  12.604  66.964  1.00  0.00    -0.369 C  
HETATM    2  O   UNL     1     -11.867  11.904  65.717  1.00  0.00    -0.435 OA 
HETATM    3  H   UNL     1     -10.299  15.446  67.858  1.00  0.00     0.000 HD 
HETATM    4  C   UNL     1     -12.570  12.684  64.747  1.00  0.00    -0.454 C  
HETATM    5  O   UNL     1     -10.801  14.650  67.985  1.00  0.00    -0.248 OA 
HETATM    6  C   UNL     1     -11.760  13.934  64.374  1.00  0.00    -0.404 C  
HETATM    7  H   UNL     1     -10.491  16.380  66.098  1.00  0.00     0.000 HD 
HETATM    8  O   UNL     1     -10.658  15.873  65.313  1.00  0.00    -0.394 OA 
HETATM    9  O   UNL     1     -12.451  14.796  63.458  1.00  0.00    -1.053 OA 
HETATM   10  C   UNL     1     -11.491  14.750  65.640  1.00  0.00    -0.327 C  
HETATM   11  H   UNL     1     -11.950  15.569  63.227  1.00  0.00     0.000 HD 
HETATM   12  C   UNL     1     -10.848  13.900  66.757  1.00  0.00    -0.286 C  
ENDROOT
BRANCH   1  13
HETATM   13  C   UNL     1     -11.028  11.647  67.968  1.00  0.00    -0.275 A  
HETATM   14  C   UNL     1      -9.799  10.010  69.938  1.00  0.00    -0.266 A  
HETATM   15  C   UNL     1      -9.195   9.212  71.064  1.00  0.00    -0.321 C  
HETATM   16  C   UNL     1      -9.001  10.679  68.989  1.00  0.00    -0.165 A  
HETATM   17  C   UNL     1     -11.799  10.953  68.905  1.00  0.00    -0.340 A  
HETATM   18  C   UNL     1     -11.193  10.147  69.874  1.00  0.00    -0.343 A  
HETATM   19  C   UNL     1      -9.632  11.466  68.000  1.00  0.00    -0.184 A  
BRANCH  16  20
HETATM   20  C   UNL     1      -7.485  10.680  69.077  1.00  0.00    -0.117 C  
BRANCH  20  21
HETATM   21  C   UNL     1      -6.763  11.951  68.724  1.00  0.00    -0.088 A  
HETATM   22  C   UNL     1      -5.623  12.173  67.979  1.00  0.00    -0.060 A  
HETATM   23  C   UNL     1      -5.447  13.560  67.659  1.00  0.00    -0.012 A  
HETATM   24  C   UNL     1      -6.461  14.363  68.156  1.00  0.00    -0.136 A  
HETATM   25  S   UNL     1      -7.471  13.441  69.198  1.00  0.00     0.249 SA 
BRANCH  24  26
HETATM   26  C   UNL     1      -6.755  15.790  67.893  1.00  0.00    -0.162 A  
HETATM   27  C   UNL     1      -6.387  16.790  68.815  1.00  0.00    -0.158 A  
HETATM   28  C   UNL     1      -6.727  18.131  68.609  1.00  0.00    -0.240 A  
HETATM   29  C   UNL     1      -7.456  18.484  67.484  1.00  0.00    -0.220 A  
HETATM   30  F   UNL     1      -7.808  19.765  67.303  1.00  0.00    -0.269 F  
HETATM   31  C   UNL     1      -7.828  17.527  66.553  1.00  0.00    -0.312 A  
HETATM   32  C   UNL     1      -7.478  16.185  66.754  1.00  0.00    -0.246 A  
ENDBRANCH  24  26
ENDBRANCH  20  21
ENDBRANCH  16  20
ENDBRANCH   1  13
BRANCH   4  33
HETATM   33  C   UNL     1     -12.851  11.818  63.513  1.00  0.00    -0.220 C  
HETATM   34  O   UNL     1     -11.618  11.414  62.910  1.00  0.00    -0.840 OA 
HETATM   35  H   UNL     1     -11.792  10.878  62.146  1.00  0.00     0.000 HD 
ENDBRANCH   4  33
TORSDOF 5
ENDMDL
MODEL       59
REMARK 921   NORMALIZED FREE ENERGY PREDICTED BY IDOCK:   -7.05 KCAL/MOL
REMARK 922        TOTAL FREE ENERGY PREDICTED BY IDOCK:   -9.70 KCAL/MOL
REMARK 923 INTER-LIGAND FREE ENERGY PREDICTED BY IDOCK:   -8.96 KCAL/MOL
REMARK 924 INTRA-LIGAND FREE ENERGY PREDICTED BY IDOCK:   -0.74 KCAL/MOL
REMARK 927      BINDING AFFINITY PREDICTED BY RF-SCORE:    0.00 PKD
ROOT
HETATM    1  C   UNL     1     -10.561  15.761  68.167  1.00  0.00    -0.275 C  
HETATM    2  O   UNL     1     -10.337  17.081  68.708  1.00  0.00    -0.295 OA 
HETATM    3  H   UNL     1     -11.716  14.551  65.348  1.00  0.00     0.000 HD 
HETATM    4  C   UNL     1      -9.495  17.887  67.880  1.00  0.00    -0.272 C  
HETATM    5  O   UNL     1     -11.301  14.510  66.201  1.00  0.00    -0.338 OA 
HETATM    6  C   UNL     1     -10.155  18.124  66.514  1.00  0.00    -0.386 C  
HETATM    7  H   UNL     1     -11.309  16.145  64.208  1.00  0.00     0.000 HD 
HETATM    8  O   UNL     1     -11.134  16.984  64.617  1.00  0.00    -0.997 OA 
HETATM    9  O   UNL     1      -9.321  18.865  65.611  1.00  0.00    -0.289 OA 
HETATM   10  C   UNL     1     -10.437  16.772  65.855  1.00  0.00    -0.301 C  
HETATM   11  H   UNL     1      -9.729  19.012  64.766  1.00  0.00     0.000 HD 
HETATM   12  C   UNL     1     -11.236  15.827  66.778  1.00  0.00    -0.021 C  
ENDROOT
BRANCH   1  13
HETATM   13  C   UNL     1     -11.357  14.942  69.181  1.00  0.00    -0.309 A  
HETATM   14  C   UNL     1     -12.680  13.358  71.134  1.00  0.00    -0.411 A  
HETATM   15  C   UNL     1     -13.297  12.550  72.245  1.00  0.00    -0.475 C  
HETATM   16  C   UNL     1     -12.199  12.755  69.955  1.00  0.00    -0.279 A  
HETATM   17  C   UNL     1     -11.865  15.521  70.348  1.00  0.00    -0.379 A  
HETATM   18  C   UNL     1     -12.516  14.740  71.308  1.00  0.00    -0.391 A  
HETATM   19  C   UNL     1     -11.568  13.564  68.983  1.00  0.00    -0.356 A  
BRANCH  16  20
HETATM   20  C   UNL     1     -12.225  11.250  69.758  1.00  0.00    -0.343 C  
BRANCH  20  21
HETATM   21  C   UNL     1     -10.969  10.585  69.264  1.00  0.00    -0.244 A  
HETATM   22  C   UNL     1      -9.928   9.988  69.944  1.00  0.00    -0.280 A  
HETATM   23  C   UNL     1      -9.076   9.231  69.073  1.00  0.00    -0.147 A  
HETATM   24  C   UNL     1      -9.492   9.258  67.751  1.00  0.00    -0.140 A  
HETATM   25  S   UNL     1     -10.769  10.396  67.570  1.00  0.00    -0.295 SA 
BRANCH  24  26
HETATM   26  C   UNL     1      -9.016   8.470  66.591  1.00  0.00    -0.178 A  
HETATM   27  C   UNL     1      -8.759   7.090  66.706  1.00  0.00    -0.124 A  
HETATM   28  C   UNL     1      -8.238   6.355  65.636  1.00  0.00    -0.140 A  
HETATM   29  C   UNL     1      -7.952   6.998  64.442  1.00  0.00    -0.101 A  
HETATM   30  F   UNL     1      -7.424   6.300  63.428  1.00  0.00    -0.055 F  
HETATM   31  C   UNL     1      -8.199   8.355  64.292  1.00  0.00    -0.130 A  
HETATM   32  C   UNL     1      -8.732   9.089  65.361  1.00  0.00    -0.221 A  
ENDBRANCH  24  26
ENDBRANCH  20  21
ENDBRANCH  16  20
ENDBRANCH   1  13
BRANCH   4  33
HETATM   33  C   UNL     1      -9.208  19.213  68.594  1.00  0.00    -0.380 C  
HETATM   34  O   UNL     1     -10.139  20.210  68.163  1.00  0.00    -0.412 OA 
HETATM   35  H   UNL     1      -9.962  21.031  68.605  1.00  0.00     0.000 HD 
ENDBRANCH   4  33
TORSDOF 5
ENDMDL
MODEL       60
REMARK 921   NORMALIZED FREE ENERGY PREDICTED BY IDOCK:   -7.04 KCAL/MOL
REMARK 922        TOTAL FREE ENERGY PREDICTED BY IDOCK:   -9.69 KCAL/MOL
REMARK 923 INTER-LIGAND FREE ENERGY PREDICTED BY IDOCK:   -8.56 KCAL/MOL
REMARK 924 INTRA-LIGAND FREE ENERGY PREDICTED BY IDOCK:   -1.14 KCAL/MOL
REMARK 927      BINDING AFFINITY PREDICTED BY RF-SCORE:    0.00 PKD
ROOT
HETATM    1  C   UNL     1      -8.909  16.599  68.191  1.00  0.00    -0.206 C  
HETATM    2  O   UNL     1      -9.124  17.863  67.527  1.00  0.00    -0.243 OA 
HETATM    3  H   UNL     1      -6.318  15.016  69.426  1.00  0.00     0.000 HD 
HETATM    4  C   UNL     1      -8.654  18.980  68.286  1.00  0.00    -0.331 C  
HETATM    5  O   UNL     1      -7.241  15.167  69.260  1.00  0.00    -0.151 OA 
HETATM    6  C   UNL     1      -7.135  18.890  68.486  1.00  0.00    -0.278 C  
HETATM    7  H   UNL     1      -5.167  16.624  69.735  1.00  0.00     0.000 HD 
HETATM    8  O   UNL     1      -5.375  17.442  69.299  1.00  0.00    -0.161 OA 
HETATM    9  O   UNL     1      -6.615  19.946  69.308  1.00  0.00    -0.325 OA 
HETATM   10  C   UNL     1      -6.801  17.572  69.188  1.00  0.00    -0.232 C  
HETATM   11  H   UNL     1      -5.675  19.891  69.431  1.00  0.00     0.000 HD 
HETATM   12  C   UNL     1      -7.407  16.353  68.461  1.00  0.00    -0.181 C  
ENDROOT
BRANCH   1  13
HETATM   13  C   UNL     1      -9.559  15.492  67.365  1.00  0.00    -0.213 A  
HETATM   14  C   UNL     1     -10.921  13.529  65.827  1.00  0.00    -0.285 A  
HETATM   15  C   UNL     1     -11.693  12.577  64.953  1.00  0.00    -0.409 C  
HETATM   16  C   UNL     1     -11.119  13.585  67.221  1.00  0.00    -0.302 A  
HETATM   17  C   UNL     1      -9.361  15.400  65.984  1.00  0.00    -0.364 A  
HETATM   18  C   UNL     1     -10.031  14.433  65.228  1.00  0.00    -0.314 A  
HETATM   19  C   UNL     1     -10.411  14.550  67.973  1.00  0.00    -0.236 A  
BRANCH  16  20
HETATM   20  C   UNL     1     -12.161  12.727  67.916  1.00  0.00    -0.187 C  
BRANCH  20  21
HETATM   21  C   UNL     1     -11.682  11.730  68.935  1.00  0.00    -0.323 A  
HETATM   22  C   UNL     1     -11.818  11.695  70.308  1.00  0.00    -0.414 A  
HETATM   23  C   UNL     1     -11.457  10.419  70.855  1.00  0.00    -0.385 A  
HETATM   24  C   UNL     1     -11.063   9.507  69.888  1.00  0.00    -0.216 A  
HETATM   25  S   UNL     1     -10.919  10.301  68.369  1.00  0.00    -0.249 SA 
BRANCH  24  26
HETATM   26  C   UNL     1     -10.801   8.054  70.006  1.00  0.00    -0.235 A  
HETATM   27  C   UNL     1     -10.022   7.376  69.048  1.00  0.00    -0.176 A  
HETATM   28  C   UNL     1      -9.832   5.992  69.112  1.00  0.00    -0.185 A  
HETATM   29  C   UNL     1     -10.436   5.267  70.127  1.00  0.00    -0.268 A  
HETATM   30  F   UNL     1     -10.279   3.937  70.170  1.00  0.00    -0.217 F  
HETATM   31  C   UNL     1     -11.205   5.904  71.091  1.00  0.00    -0.281 A  
HETATM   32  C   UNL     1     -11.385   7.292  71.033  1.00  0.00    -0.301 A  
ENDBRANCH  24  26
ENDBRANCH  20  21
ENDBRANCH  16  20
ENDBRANCH   1  13
BRANCH   4  33
HETATM   33  C   UNL     1      -9.042  20.277  67.566  1.00  0.00    -0.346 C  
HETATM   34  O   UNL     1      -7.869  20.931  67.075  1.00  0.00    -0.544 OA 
HETATM   35  H   UNL     1      -8.109  21.734  66.629  1.00  0.00     0.000 HD 
ENDBRANCH   4  33
TORSDOF 5
ENDMDL
MODEL       61
REMARK 921   NORMALIZED FREE ENERGY PREDICTED BY IDOCK:   -7.03 KCAL/MOL
REMARK 922        TOTAL FREE ENERGY PREDICTED BY IDOCK:   -9.68 KCAL/MOL
REMARK 923 INTER-LIGAND FREE ENERGY PREDICTED BY IDOCK:   -8.44 KCAL/MOL
REMARK 924 INTRA-LIGAND FREE ENERGY PREDICTED BY IDOCK:   -1.25 KCAL/MOL
REMARK 927      BINDING AFFINITY PREDICTED BY RF-SCORE:    0.00 PKD
ROOT
HETATM    1  C   UNL     1     -10.723   6.047  69.261  1.00  0.00    -0.332 C  
HETATM    2  O   UNL     1     -11.505   7.047  69.951  1.00  0.00    -0.248 OA 
HETATM    3  H   UNL     1      -8.425   3.873  70.118  1.00  0.00     0.000 HD 
HETATM    4  C   UNL     1     -12.250   6.513  71.049  1.00  0.00    -0.177 C  
HETATM    5  O   UNL     1      -9.053   4.284  69.535  1.00  0.00    -0.098 OA 
HETATM    6  C   UNL     1     -11.302   5.946  72.114  1.00  0.00    -0.288 C  
HETATM    7  H   UNL     1      -8.925   3.729  72.050  1.00  0.00     0.000 HD 
HETATM    8  O   UNL     1      -9.472   4.398  72.446  1.00  0.00    -0.132 OA 
HETATM    9  O   UNL     1     -11.995   5.327  73.208  1.00  0.00    -0.510 OA 
HETATM   10  C   UNL     1     -10.421   4.869  71.477  1.00  0.00    -0.109 C  
HETATM   11  H   UNL     1     -11.409   4.977  73.868  1.00  0.00     0.000 HD 
HETATM   12  C   UNL     1      -9.701   5.378  70.209  1.00  0.00    -0.192 C  
ENDROOT
BRANCH   1  13
HETATM   13  C   UNL     1     -10.075   6.688  68.037  1.00  0.00    -0.175 A  
HETATM   14  C   UNL     1      -8.712   7.877  65.846  1.00  0.00    -0.180 A  
HETATM   15  C   UNL     1      -7.899   8.435  64.707  1.00  0.00    -0.128 C  
HETATM   16  C   UNL     1      -9.095   8.672  66.944  1.00  0.00    -0.175 A  
HETATM   17  C   UNL     1      -9.705   5.926  66.924  1.00  0.00    -0.168 A  
HETATM   18  C   UNL     1      -9.034   6.512  65.847  1.00  0.00    -0.103 A  
HETATM   19  C   UNL     1      -9.798   8.068  68.012  1.00  0.00    -0.198 A  
BRANCH  16  20
HETATM   20  C   UNL     1      -8.668  10.123  67.070  1.00  0.00    -0.137 C  
BRANCH  20  21
HETATM   21  C   UNL     1      -9.740  11.155  67.285  1.00  0.00    -0.166 A  
HETATM   22  C   UNL     1     -10.929  11.383  66.623  1.00  0.00    -0.341 A  
HETATM   23  C   UNL     1     -11.781  12.290  67.337  1.00  0.00    -0.405 A  
HETATM   24  C   UNL     1     -11.229  12.725  68.531  1.00  0.00    -0.279 A  
HETATM   25  S   UNL     1      -9.593  12.203  68.636  1.00  0.00     0.017 SA 
BRANCH  24  26
HETATM   26  C   UNL     1     -11.844  13.497  69.634  1.00  0.00    -0.398 A  
HETATM   27  C   UNL     1     -12.476  12.848  70.712  1.00  0.00    -0.370 A  
HETATM   28  C   UNL     1     -13.124  13.571  71.719  1.00  0.00    -0.475 A  
HETATM   29  C   UNL     1     -13.163  14.954  71.648  1.00  0.00    -0.359 A  
HETATM   30  F   UNL     1     -13.811  15.645  72.596  1.00  0.00    -0.530 F  
HETATM   31  C   UNL     1     -12.545  15.627  70.604  1.00  0.00    -0.461 A  
HETATM   32  C   UNL     1     -11.886  14.903  69.601  1.00  0.00    -0.356 A  
ENDBRANCH  24  26
ENDBRANCH  20  21
ENDBRANCH  16  20
ENDBRANCH   1  13
BRANCH   4  33
HETATM   33  C   UNL     1     -13.144   7.613  71.632  1.00  0.00    -0.353 C  
HETATM   34  O   UNL     1     -12.548   8.148  72.817  1.00  0.00    -0.610 OA 
HETATM   35  H   UNL     1     -13.101   8.830  73.179  1.00  0.00     0.000 HD 
ENDBRANCH   4  33
TORSDOF 5
ENDMDL
MODEL       62
REMARK 921   NORMALIZED FREE ENERGY PREDICTED BY IDOCK:   -7.01 KCAL/MOL
REMARK 922        TOTAL FREE ENERGY PREDICTED BY IDOCK:   -9.66 KCAL/MOL
REMARK 923 INTER-LIGAND FREE ENERGY PREDICTED BY IDOCK:   -8.36 KCAL/MOL
REMARK 924 INTRA-LIGAND FREE ENERGY PREDICTED BY IDOCK:   -1.30 KCAL/MOL
REMARK 927      BINDING AFFINITY PREDICTED BY RF-SCORE:    0.00 PKD
ROOT
HETATM    1  C   UNL     1     -10.678  11.051  66.378  1.00  0.00    -0.227 C  
HETATM    2  O   UNL     1      -9.963  11.072  65.123  1.00  0.00    -0.243 OA 
HETATM    3  H   UNL     1     -12.577  13.153  68.026  1.00  0.00     0.000 HD 
HETATM    4  C   UNL     1     -10.805  11.372  64.007  1.00  0.00    -0.383 C  
HETATM    5  O   UNL     1     -12.171  12.314  67.845  1.00  0.00    -0.409 OA 
HETATM    6  C   UNL     1     -11.401  12.779  64.148  1.00  0.00    -0.390 C  
HETATM    7  H   UNL     1     -13.158  14.249  66.456  1.00  0.00     0.000 HD 
HETATM    8  O   UNL     1     -12.671  14.199  65.641  1.00  0.00    -0.514 OA 
HETATM    9  O   UNL     1     -12.317  13.108  63.092  1.00  0.00    -0.736 OA 
HETATM   10  C   UNL     1     -12.185  12.859  65.460  1.00  0.00    -0.474 C  
HETATM   11  H   UNL     1     -12.685  13.979  63.179  1.00  0.00     0.000 HD 
HETATM   12  C   UNL     1     -11.340  12.416  66.674  1.00  0.00    -0.339 C  
ENDROOT
BRANCH   1  13
HETATM   13  C   UNL     1      -9.725  10.595  67.480  1.00  0.00    -0.189 A  
HETATM   14  C   UNL     1      -8.035   9.862  69.643  1.00  0.00    -0.166 A  
HETATM   15  C   UNL     1      -7.234   9.478  70.859  1.00  0.00    -0.063 C  
HETATM   16  C   UNL     1      -7.784  11.054  68.935  1.00  0.00    -0.140 A  
HETATM   17  C   UNL     1      -9.937   9.406  68.184  1.00  0.00    -0.202 A  
HETATM   18  C   UNL     1      -9.105   9.046  69.248  1.00  0.00    -0.145 A  
HETATM   19  C   UNL     1      -8.618  11.388  67.844  1.00  0.00    -0.140 A  
BRANCH  16  20
HETATM   20  C   UNL     1      -6.728  12.047  69.386  1.00  0.00    -0.070 C  
BRANCH  20  21
HETATM   21  C   UNL     1      -6.762  13.427  68.790  1.00  0.00    -0.106 A  
HETATM   22  C   UNL     1      -6.026  13.996  67.771  1.00  0.00    -0.115 A  
HETATM   23  C   UNL     1      -6.579  15.246  67.336  1.00  0.00    -0.120 A  
HETATM   24  C   UNL     1      -7.730  15.597  68.024  1.00  0.00    -0.126 A  
HETATM   25  S   UNL     1      -7.971  14.514  69.339  1.00  0.00     0.154 SA 
BRANCH  24  26
HETATM   26  C   UNL     1      -8.697  16.687  67.761  1.00  0.00    -0.201 A  
HETATM   27  C   UNL     1      -9.506  16.679  66.608  1.00  0.00    -0.271 A  
HETATM   28  C   UNL     1     -10.366  17.741  66.315  1.00  0.00    -0.358 A  
HETATM   29  C   UNL     1     -10.414  18.835  67.164  1.00  0.00    -0.427 A  
HETATM   30  F   UNL     1     -11.216  19.866  66.866  1.00  0.00    -0.515 F  
HETATM   31  C   UNL     1      -9.636  18.873  68.312  1.00  0.00    -0.401 A  
HETATM   32  C   UNL     1      -8.782  17.803  68.612  1.00  0.00    -0.260 A  
ENDBRANCH  24  26
ENDBRANCH  20  21
ENDBRANCH  16  20
ENDBRANCH   1  13
BRANCH   4  33
HETATM   33  C   UNL     1      -9.990  11.243  62.715  1.00  0.00    -0.154 C  
HETATM   34  O   UNL     1      -8.671  11.759  62.917  1.00  0.00    -0.636 OA 
HETATM   35  H   UNL     1      -8.166  11.679  62.117  1.00  0.00     0.000 HD 
ENDBRANCH   4  33
TORSDOF 5
ENDMDL
MODEL       63
REMARK 921   NORMALIZED FREE ENERGY PREDICTED BY IDOCK:   -7.01 KCAL/MOL
REMARK 922        TOTAL FREE ENERGY PREDICTED BY IDOCK:   -9.65 KCAL/MOL
REMARK 923 INTER-LIGAND FREE ENERGY PREDICTED BY IDOCK:   -8.76 KCAL/MOL
REMARK 924 INTRA-LIGAND FREE ENERGY PREDICTED BY IDOCK:   -0.89 KCAL/MOL
REMARK 927      BINDING AFFINITY PREDICTED BY RF-SCORE:    0.00 PKD
ROOT
HETATM    1  C   UNL     1      -9.497  16.827  68.522  1.00  0.00    -0.245 C  
HETATM    2  O   UNL     1      -8.248  16.836  69.246  1.00  0.00    -0.155 OA 
HETATM    3  H   UNL     1     -11.455  19.103  67.206  1.00  0.00     0.000 HD 
HETATM    4  C   UNL     1      -7.198  17.501  68.539  1.00  0.00    -0.240 C  
HETATM    5  O   UNL     1     -11.151  18.221  67.381  1.00  0.00    -0.241 OA 
HETATM    6  C   UNL     1      -7.546  18.982  68.331  1.00  0.00    -0.308 C  
HETATM    7  H   UNL     1     -10.065  20.523  66.971  1.00  0.00     0.000 HD 
HETATM    8  O   UNL     1      -9.244  20.461  67.446  1.00  0.00    -0.371 OA 
HETATM    9  O   UNL     1      -6.561  19.685  67.559  1.00  0.00    -0.205 OA 
HETATM   10  C   UNL     1      -8.868  19.080  67.566  1.00  0.00    -0.289 C  
HETATM   11  H   UNL     1      -6.776  20.601  67.431  1.00  0.00     0.000 HD 
HETATM   12  C   UNL     1      -9.993  18.264  68.236  1.00  0.00    -0.364 C  
ENDROOT
BRANCH   1  13
HETATM   13  C   UNL     1     -10.509  15.987  69.296  1.00  0.00    -0.257 A  
HETATM   14  C   UNL     1     -12.253  14.333  70.811  1.00  0.00    -0.423 A  
HETATM   15  C   UNL     1     -13.102  13.466  71.704  1.00  0.00    -0.463 C  
HETATM   16  C   UNL     1     -11.679  13.838  69.624  1.00  0.00    -0.379 A  
HETATM   17  C   UNL     1     -11.111  16.462  70.465  1.00  0.00    -0.214 A  
HETATM   18  C   UNL     1     -11.970  15.647  71.210  1.00  0.00    -0.467 A  
HETATM   19  C   UNL     1     -10.836  14.685  68.868  1.00  0.00    -0.257 A  
BRANCH  16  20
HETATM   20  C   UNL     1     -11.837  12.389  69.201  1.00  0.00    -0.352 C  
BRANCH  20  21
HETATM   21  C   UNL     1     -11.687  12.063  67.741  1.00  0.00    -0.309 A  
HETATM   22  C   UNL     1     -11.984  12.795  66.610  1.00  0.00    -0.411 A  
HETATM   23  C   UNL     1     -11.418  12.217  65.426  1.00  0.00    -0.387 A  
HETATM   24  C   UNL     1     -10.693  11.063  65.681  1.00  0.00    -0.148 A  
HETATM   25  S   UNL     1     -10.920  10.587  67.318  1.00  0.00    -0.207 SA 
BRANCH  24  26
HETATM   26  C   UNL     1      -9.809  10.282  64.786  1.00  0.00    -0.403 A  
HETATM   27  C   UNL     1      -9.113   9.152  65.256  1.00  0.00    -0.252 A  
HETATM   28  C   UNL     1      -8.219   8.454  64.438  1.00  0.00    -0.141 A  
HETATM   29  C   UNL     1      -7.998   8.892  63.142  1.00  0.00    -0.155 A  
HETATM   30  F   UNL     1      -7.118   8.241  62.368  1.00  0.00    -0.088 F  
HETATM   31  C   UNL     1      -8.671   9.997  62.643  1.00  0.00    -0.218 A  
HETATM   32  C   UNL     1      -9.576  10.689  63.460  1.00  0.00    -0.366 A  
ENDBRANCH  24  26
ENDBRANCH  20  21
ENDBRANCH  16  20
ENDBRANCH   1  13
BRANCH   4  33
HETATM   33  C   UNL     1      -5.888  17.345  69.321  1.00  0.00    -0.210 C  
HETATM   34  O   UNL     1      -5.687  18.481  70.166  1.00  0.00    -0.235 OA 
HETATM   35  H   UNL     1      -4.876  18.384  70.650  1.00  0.00     0.000 HD 
ENDBRANCH   4  33
TORSDOF 5
ENDMDL
MODEL       64
REMARK 921   NORMALIZED FREE ENERGY PREDICTED BY IDOCK:   -7.00 KCAL/MOL
REMARK 922        TOTAL FREE ENERGY PREDICTED BY IDOCK:   -9.64 KCAL/MOL
REMARK 923 INTER-LIGAND FREE ENERGY PREDICTED BY IDOCK:   -8.60 KCAL/MOL
REMARK 924 INTRA-LIGAND FREE ENERGY PREDICTED BY IDOCK:   -1.05 KCAL/MOL
REMARK 927      BINDING AFFINITY PREDICTED BY RF-SCORE:    0.00 PKD
ROOT
HETATM    1  C   UNL     1      -6.957  17.100  67.591  1.00  0.00    -0.142 C  
HETATM    2  O   UNL     1      -8.239  17.540  68.088  1.00  0.00    -0.234 OA 
HETATM    3  H   UNL     1      -5.186  17.639  64.886  1.00  0.00     0.000 HD 
HETATM    4  C   UNL     1      -8.354  18.964  68.152  1.00  0.00    -0.309 C  
HETATM    5  O   UNL     1      -5.348  17.311  65.763  1.00  0.00    -0.274 OA 
HETATM    6  C   UNL     1      -8.241  19.575  66.749  1.00  0.00    -0.296 C  
HETATM    7  H   UNL     1      -6.001  19.401  64.401  1.00  0.00     0.000 HD 
HETATM    8  O   UNL     1      -6.831  19.657  64.785  1.00  0.00    -0.363 OA 
HETATM    9  O   UNL     1      -8.274  21.010  66.759  1.00  0.00    -0.536 OA 
HETATM   10  C   UNL     1      -6.904  19.162  66.131  1.00  0.00    -0.232 C  
HETATM   11  H   UNL     1      -8.204  21.389  65.891  1.00  0.00     0.000 HD 
HETATM   12  C   UNL     1      -6.692  17.634  66.164  1.00  0.00    -0.285 C  
ENDROOT
BRANCH   1  13
HETATM   13  C   UNL     1      -6.889  15.578  67.684  1.00  0.00    -0.207 A  
HETATM   14  C   UNL     1      -6.777  12.739  67.677  1.00  0.00    -0.147 A  
HETATM   15  C   UNL     1      -6.651  11.241  67.578  1.00  0.00    -0.073 C  
HETATM   16  C   UNL     1      -8.022  13.388  67.565  1.00  0.00    -0.186 A  
HETATM   17  C   UNL     1      -5.668  14.909  67.818  1.00  0.00    -0.098 A  
HETATM   18  C   UNL     1      -5.615  13.512  67.815  1.00  0.00    -0.087 A  
HETATM   19  C   UNL     1      -8.061  14.801  67.599  1.00  0.00    -0.183 A  
BRANCH  16  20
HETATM   20  C   UNL     1      -9.302  12.623  67.284  1.00  0.00    -0.195 C  
BRANCH  20  21
HETATM   21  C   UNL     1     -10.196  12.297  68.450  1.00  0.00    -0.217 A  
HETATM   22  C   UNL     1     -11.202  13.022  69.055  1.00  0.00    -0.316 A  
HETATM   23  C   UNL     1     -11.984  12.219  69.949  1.00  0.00    -0.377 A  
HETATM   24  C   UNL     1     -11.565  10.898  69.999  1.00  0.00    -0.341 A  
HETATM   25  S   UNL     1     -10.087  10.728  69.137  1.00  0.00    -0.174 SA 
BRANCH  24  26
HETATM   26  C   UNL     1     -12.205   9.724  70.634  1.00  0.00    -0.283 A  
HETATM   27  C   UNL     1     -11.596   8.455  70.596  1.00  0.00    -0.205 A  
HETATM   28  C   UNL     1     -12.229   7.327  71.128  1.00  0.00    -0.376 A  
HETATM   29  C   UNL     1     -13.490   7.454  71.690  1.00  0.00    -0.366 A  
HETATM   30  F   UNL     1     -14.109   6.368  72.172  1.00  0.00    -0.342 F  
HETATM   31  C   UNL     1     -14.117   8.691  71.750  1.00  0.00    -0.499 A  
HETATM   32  C   UNL     1     -13.477   9.822  71.227  1.00  0.00    -0.362 A  
ENDBRANCH  24  26
ENDBRANCH  20  21
ENDBRANCH  16  20
ENDBRANCH   1  13
BRANCH   4  33
HETATM   33  C   UNL     1      -9.689  19.331  68.811  1.00  0.00    -0.446 C  
HETATM   34  O   UNL     1     -10.688  19.534  67.808  1.00  0.00    -0.446 OA 
HETATM   35  H   UNL     1     -11.515  19.761  68.215  1.00  0.00     0.000 HD 
ENDBRANCH   4  33
TORSDOF 5
ENDMDL
MODEL       65
REMARK 921   NORMALIZED FREE ENERGY PREDICTED BY IDOCK:   -7.00 KCAL/MOL
REMARK 922        TOTAL FREE ENERGY PREDICTED BY IDOCK:   -9.64 KCAL/MOL
REMARK 923 INTER-LIGAND FREE ENERGY PREDICTED BY IDOCK:   -9.00 KCAL/MOL
REMARK 924 INTRA-LIGAND FREE ENERGY PREDICTED BY IDOCK:   -0.65 KCAL/MOL
REMARK 927      BINDING AFFINITY PREDICTED BY RF-SCORE:    0.00 PKD
ROOT
HETATM    1  C   UNL     1      -9.462  17.404  67.812  1.00  0.00    -0.261 C  
HETATM    2  O   UNL     1      -8.802  18.246  68.782  1.00  0.00    -0.297 OA 
HETATM    3  H   UNL     1     -11.081  17.895  65.004  1.00  0.00     0.000 HD 
HETATM    4  C   UNL     1      -7.791  19.076  68.206  1.00  0.00    -0.315 C  
HETATM    5  O   UNL     1     -10.658  17.378  65.680  1.00  0.00    -0.534 OA 
HETATM    6  C   UNL     1      -8.410  20.048  67.192  1.00  0.00    -0.332 C  
HETATM    7  H   UNL     1     -10.248  19.654  64.540  1.00  0.00     0.000 HD 
HETATM    8  O   UNL     1      -9.795  20.152  65.210  1.00  0.00    -0.130 OA 
HETATM    9  O   UNL     1      -7.430  20.858  66.524  1.00  0.00    -0.515 OA 
HETATM   10  C   UNL     1      -9.139  19.246  66.112  1.00  0.00    -0.256 C  
HETATM   11  H   UNL     1      -7.813  21.460  65.897  1.00  0.00     0.000 HD 
HETATM   12  C   UNL     1     -10.149  18.245  66.711  1.00  0.00    -0.364 C  
ENDROOT
BRANCH   1  13
HETATM   13  C   UNL     1     -10.423  16.470  68.542  1.00  0.00    -0.302 A  
HETATM   14  C   UNL     1     -12.071  14.630  69.946  1.00  0.00    -0.385 A  
HETATM   15  C   UNL     1     -12.860  13.648  70.771  1.00  0.00    -0.273 C  
HETATM   16  C   UNL     1     -11.637  14.323  68.641  1.00  0.00    -0.352 A  
HETATM   17  C   UNL     1     -10.888  16.761  69.828  1.00  0.00    -0.156 A  
HETATM   18  C   UNL     1     -11.699  15.855  70.518  1.00  0.00    -0.394 A  
HETATM   19  C   UNL     1     -10.842  15.264  67.948  1.00  0.00    -0.288 A  
BRANCH  16  20
HETATM   20  C   UNL     1     -11.892  12.967  68.010  1.00  0.00    -0.390 C  
BRANCH  20  21
HETATM   21  C   UNL     1     -11.074  11.802  68.496  1.00  0.00    -0.239 A  
HETATM   22  C   UNL     1      -9.711  11.589  68.505  1.00  0.00    -0.191 A  
HETATM   23  C   UNL     1      -9.344  10.466  69.319  1.00  0.00    -0.202 A  
HETATM   24  C   UNL     1     -10.433   9.854  69.919  1.00  0.00    -0.269 A  
HETATM   25  S   UNL     1     -11.889  10.517  69.289  1.00  0.00    -0.103 SA 
BRANCH  24  26
HETATM   26  C   UNL     1     -10.473   8.806  70.964  1.00  0.00    -0.293 A  
HETATM   27  C   UNL     1      -9.612   7.693  70.912  1.00  0.00    -0.167 A  
HETATM   28  C   UNL     1      -9.696   6.662  71.853  1.00  0.00    -0.158 A  
HETATM   29  C   UNL     1     -10.657   6.725  72.850  1.00  0.00    -0.250 A  
HETATM   30  F   UNL     1     -10.756   5.723  73.733  1.00  0.00    -0.241 F  
HETATM   31  C   UNL     1     -11.517   7.810  72.936  1.00  0.00    -0.359 A  
HETATM   32  C   UNL     1     -11.425   8.848  71.999  1.00  0.00    -0.431 A  
ENDBRANCH  24  26
ENDBRANCH  20  21
ENDBRANCH  16  20
ENDBRANCH   1  13
BRANCH   4  33
HETATM   33  C   UNL     1      -7.062  19.830  69.324  1.00  0.00    -0.300 C  
HETATM   34  O   UNL     1      -5.929  19.075  69.762  1.00  0.00    -0.250 OA 
HETATM   35  H   UNL     1      -5.477  19.543  70.455  1.00  0.00     0.000 HD 
ENDBRANCH   4  33
TORSDOF 5
ENDMDL
MODEL       66
REMARK 921   NORMALIZED FREE ENERGY PREDICTED BY IDOCK:   -6.94 KCAL/MOL
REMARK 922        TOTAL FREE ENERGY PREDICTED BY IDOCK:   -9.57 KCAL/MOL
REMARK 923 INTER-LIGAND FREE ENERGY PREDICTED BY IDOCK:   -8.47 KCAL/MOL
REMARK 924 INTRA-LIGAND FREE ENERGY PREDICTED BY IDOCK:   -1.10 KCAL/MOL
REMARK 927      BINDING AFFINITY PREDICTED BY RF-SCORE:    0.00 PKD
ROOT
HETATM    1  C   UNL     1      -9.528  16.925  67.382  1.00  0.00    -0.238 C  
HETATM    2  O   UNL     1      -9.013  17.687  68.495  1.00  0.00    -0.283 OA 
HETATM    3  H   UNL     1     -11.384  17.575  64.760  1.00  0.00     0.000 HD 
HETATM    4  C   UNL     1      -8.248  18.824  68.088  1.00  0.00    -0.304 C  
HETATM    5  O   UNL     1     -10.817  17.046  65.308  1.00  0.00    -0.545 OA 
HETATM    6  C   UNL     1      -9.127  19.809  67.305  1.00  0.00    -0.326 C  
HETATM    7  H   UNL     1     -10.991  19.535  64.656  1.00  0.00     0.000 HD 
HETATM    8  O   UNL     1     -10.619  19.981  65.407  1.00  0.00    -0.382 OA 
HETATM    9  O   UNL     1      -8.394  20.937  66.803  1.00  0.00    -0.553 OA 
HETATM   10  C   UNL     1      -9.725  19.090  66.094  1.00  0.00    -0.296 C  
HETATM   11  H   UNL     1      -8.938  21.546  66.319  1.00  0.00     0.000 HD 
HETATM   12  C   UNL     1     -10.450  17.786  66.488  1.00  0.00    -0.297 C  
ENDROOT
BRANCH   1  13
HETATM   13  C   UNL     1     -10.213  15.671  67.918  1.00  0.00    -0.239 A  
HETATM   14  C   UNL     1     -11.382  13.348  69.063  1.00  0.00    -0.335 A  
HETATM   15  C   UNL     1     -11.998  12.172  69.774  1.00  0.00    -0.372 C  
HETATM   16  C   UNL     1     -10.134  13.254  68.416  1.00  0.00    -0.237 A  
HETATM   17  C   UNL     1     -11.461  15.732  68.545  1.00  0.00    -0.381 A  
HETATM   18  C   UNL     1     -12.036  14.588  69.107  1.00  0.00    -0.344 A  
HETATM   19  C   UNL     1      -9.582  14.414  67.827  1.00  0.00    -0.216 A  
BRANCH  16  20
HETATM   20  C   UNL     1      -9.313  11.978  68.442  1.00  0.00    -0.175 C  
BRANCH  20  21
HETATM   21  C   UNL     1      -9.657  10.901  67.451  1.00  0.00    -0.163 A  
HETATM   22  C   UNL     1      -9.662  10.902  66.071  1.00  0.00    -0.268 A  
HETATM   23  C   UNL     1      -9.781   9.579  65.529  1.00  0.00    -0.344 A  
HETATM   24  C   UNL     1      -9.852   8.598  66.506  1.00  0.00    -0.278 A  
HETATM   25  S   UNL     1     -10.011   9.333  68.052  1.00  0.00    -0.192 SA 
BRANCH  24  26
HETATM   26  C   UNL     1      -9.789   7.125  66.376  1.00  0.00    -0.116 A  
HETATM   27  C   UNL     1     -10.665   6.293  67.099  1.00  0.00    -0.432 A  
HETATM   28  C   UNL     1     -10.562   4.900  67.039  1.00  0.00    -0.080 A  
HETATM   29  C   UNL     1      -9.566   4.322  66.266  1.00  0.00    -0.196 A  
HETATM   30  F   UNL     1      -9.449   2.988  66.233  1.00  0.00    -0.162 F  
HETATM   31  C   UNL     1      -8.691   5.112  65.535  1.00  0.00    -0.147 A  
HETATM   32  C   UNL     1      -8.802   6.507  65.587  1.00  0.00    -0.057 A  
ENDBRANCH  24  26
ENDBRANCH  20  21
ENDBRANCH  16  20
ENDBRANCH   1  13
BRANCH   4  33
HETATM   33  C   UNL     1      -7.638  19.489  69.327  1.00  0.00    -0.202 C  
HETATM   34  O   UNL     1      -6.459  20.212  68.960  1.00  0.00    -0.309 OA 
HETATM   35  H   UNL     1      -6.080  20.625  69.727  1.00  0.00     0.000 HD 
ENDBRANCH   4  33
TORSDOF 5
ENDMDL
MODEL       67
REMARK 921   NORMALIZED FREE ENERGY PREDICTED BY IDOCK:   -6.93 KCAL/MOL
REMARK 922        TOTAL FREE ENERGY PREDICTED BY IDOCK:   -9.56 KCAL/MOL
REMARK 923 INTER-LIGAND FREE ENERGY PREDICTED BY IDOCK:   -9.05 KCAL/MOL
REMARK 924 INTRA-LIGAND FREE ENERGY PREDICTED BY IDOCK:   -0.51 KCAL/MOL
REMARK 927      BINDING AFFINITY PREDICTED BY RF-SCORE:    0.00 PKD
ROOT
HETATM    1  C   UNL     1      -9.536   9.846  64.670  1.00  0.00    -0.278 C  
HETATM    2  O   UNL     1      -9.840   9.161  65.904  1.00  0.00    -0.286 OA 
HETATM    3  H   UNL     1      -6.798  10.690  63.077  1.00  0.00     0.000 HD 
HETATM    4  C   UNL     1      -9.252   7.861  65.982  1.00  0.00    -0.104 C  
HETATM    5  O   UNL     1      -7.734  10.574  63.186  1.00  0.00    -0.133 OA 
HETATM    6  C   UNL     1      -7.721   7.963  65.952  1.00  0.00    -0.093 C  
HETATM    7  H   UNL     1      -5.602   9.303  63.883  1.00  0.00     0.000 HD 
HETATM    8  O   UNL     1      -5.868   8.858  64.679  1.00  0.00    -0.062 OA 
HETATM    9  O   UNL     1      -7.074   6.681  65.951  1.00  0.00    -0.059 OA 
HETATM   10  C   UNL     1      -7.293   8.680  64.671  1.00  0.00    -0.094 C  
HETATM   11  H   UNL     1      -6.127   6.744  65.934  1.00  0.00     0.000 HD 
HETATM   12  C   UNL     1      -8.011  10.035  64.492  1.00  0.00    -0.148 C  
ENDROOT
BRANCH   1  13
HETATM   13  C   UNL     1     -10.312  11.159  64.630  1.00  0.00    -0.393 A  
HETATM   14  C   UNL     1     -11.599  13.690  64.531  1.00  0.00    -0.415 A  
HETATM   15  C   UNL     1     -12.208  15.061  64.392  1.00  0.00    -0.353 C  
HETATM   16  C   UNL     1     -10.967  13.275  65.719  1.00  0.00    -0.284 A  
HETATM   17  C   UNL     1     -10.967  11.585  63.470  1.00  0.00    -0.453 A  
HETATM   18  C   UNL     1     -11.601  12.830  63.423  1.00  0.00    -0.506 A  
HETATM   19  C   UNL     1     -10.356  12.000  65.758  1.00  0.00    -0.289 A  
BRANCH  16  20
HETATM   20  C   UNL     1     -10.814  14.202  66.911  1.00  0.00    -0.296 C  
BRANCH  20  21
HETATM   21  C   UNL     1     -11.175  13.666  68.269  1.00  0.00    -0.273 A  
HETATM   22  C   UNL     1     -12.011  14.160  69.250  1.00  0.00    -0.382 A  
HETATM   23  C   UNL     1     -12.285  13.188  70.268  1.00  0.00    -0.376 A  
HETATM   24  C   UNL     1     -11.662  11.971  70.036  1.00  0.00    -0.267 A  
HETATM   25  S   UNL     1     -10.573  12.121  68.714  1.00  0.00    -0.161 SA 
BRANCH  24  26
HETATM   26  C   UNL     1     -11.834  10.672  70.726  1.00  0.00    -0.459 A  
HETATM   27  C   UNL     1     -10.738   9.815  70.945  1.00  0.00    -0.375 A  
HETATM   28  C   UNL     1     -10.905   8.555  71.528  1.00  0.00    -0.332 A  
HETATM   29  C   UNL     1     -12.176   8.130  71.882  1.00  0.00    -0.331 A  
HETATM   30  F   UNL     1     -12.339   6.910  72.412  1.00  0.00    -0.264 F  
HETATM   31  C   UNL     1     -13.277   8.951  71.687  1.00  0.00    -0.411 A  
HETATM   32  C   UNL     1     -13.108  10.218  71.113  1.00  0.00    -0.481 A  
ENDBRANCH  24  26
ENDBRANCH  20  21
ENDBRANCH  16  20
ENDBRANCH   1  13
BRANCH   4  33
HETATM   33  C   UNL     1      -9.736   7.165  67.260  1.00  0.00    -0.155 C  
HETATM   34  O   UNL     1     -11.128   7.429  67.460  1.00  0.00    -0.531 OA 
HETATM   35  H   UNL     1     -11.429   6.998  68.251  1.00  0.00     0.000 HD 
ENDBRANCH   4  33
TORSDOF 5
ENDMDL
MODEL       68
REMARK 921   NORMALIZED FREE ENERGY PREDICTED BY IDOCK:   -6.93 KCAL/MOL
REMARK 922        TOTAL FREE ENERGY PREDICTED BY IDOCK:   -9.55 KCAL/MOL
REMARK 923 INTER-LIGAND FREE ENERGY PREDICTED BY IDOCK:   -8.35 KCAL/MOL
REMARK 924 INTRA-LIGAND FREE ENERGY PREDICTED BY IDOCK:   -1.20 KCAL/MOL
REMARK 927      BINDING AFFINITY PREDICTED BY RF-SCORE:    0.00 PKD
ROOT
HETATM    1  C   UNL     1     -10.413   7.982  69.107  1.00  0.00    -0.208 C  
HETATM    2  O   UNL     1      -9.489   8.413  70.130  1.00  0.00    -0.162 OA 
HETATM    3  H   UNL     1     -11.167   5.125  67.689  1.00  0.00     0.000 HD 
HETATM    4  C   UNL     1      -9.653   7.708  71.363  1.00  0.00    -0.158 C  
HETATM    5  O   UNL     1     -11.274   6.048  67.885  1.00  0.00    -0.245 OA 
HETATM    6  C   UNL     1      -9.361   6.214  71.169  1.00  0.00    -0.164 C  
HETATM    7  H   UNL     1     -10.550   3.937  69.176  1.00  0.00     0.000 HD 
HETATM    8  O   UNL     1      -9.969   4.282  69.844  1.00  0.00    -0.221 OA 
HETATM    9  O   UNL     1      -9.583   5.441  72.358  1.00  0.00    -0.149 OA 
HETATM   10  C   UNL     1     -10.297   5.658  70.093  1.00  0.00    -0.271 C  
HETATM   11  H   UNL     1      -9.402   4.516  72.238  1.00  0.00     0.000 HD 
HETATM   12  C   UNL     1     -10.239   6.479  68.787  1.00  0.00    -0.171 C  
ENDROOT
BRANCH   1  13
HETATM   13  C   UNL     1     -10.246   8.879  67.883  1.00  0.00    -0.274 A  
HETATM   14  C   UNL     1      -9.854  10.669  65.712  1.00  0.00    -0.296 A  
HETATM   15  C   UNL     1      -9.540  11.641  64.606  1.00  0.00    -0.149 C  
HETATM   16  C   UNL     1     -10.919  10.882  66.609  1.00  0.00    -0.212 A  
HETATM   17  C   UNL     1      -9.211   8.675  66.965  1.00  0.00    -0.186 A  
HETATM   18  C   UNL     1      -9.020   9.557  65.897  1.00  0.00    -0.210 A  
HETATM   19  C   UNL     1     -11.115   9.965  67.666  1.00  0.00    -0.170 A  
BRANCH  16  20
HETATM   20  C   UNL     1     -11.780  12.131  66.547  1.00  0.00    -0.392 C  
BRANCH  20  21
HETATM   21  C   UNL     1     -11.360  13.315  67.375  1.00  0.00    -0.303 A  
HETATM   22  C   UNL     1     -10.573  13.401  68.505  1.00  0.00    -0.264 A  
HETATM   23  C   UNL     1     -10.198  14.753  68.801  1.00  0.00    -0.239 A  
HETATM   24  C   UNL     1     -10.696  15.666  67.885  1.00  0.00    -0.294 A  
HETATM   25  S   UNL     1     -11.801  14.880  66.827  1.00  0.00    -0.071 SA 
BRANCH  24  26
HETATM   26  C   UNL     1     -10.391  17.106  67.719  1.00  0.00    -0.347 A  
HETATM   27  C   UNL     1     -10.223  17.947  68.836  1.00  0.00    -0.331 A  
HETATM   28  C   UNL     1     -10.009  19.320  68.688  1.00  0.00    -0.506 A  
HETATM   29  C   UNL     1      -9.977  19.873  67.417  1.00  0.00    -0.423 A  
HETATM   30  F   UNL     1      -9.803  21.194  67.277  1.00  0.00    -0.622 F  
HETATM   31  C   UNL     1     -10.132  19.073  66.294  1.00  0.00    -0.479 A  
HETATM   32  C   UNL     1     -10.335  17.694  66.443  1.00  0.00    -0.345 A  
ENDBRANCH  24  26
ENDBRANCH  20  21
ENDBRANCH  16  20
ENDBRANCH   1  13
BRANCH   4  33
HETATM   33  C   UNL     1      -8.726   8.321  72.419  1.00  0.00    -0.213 C  
HETATM   34  O   UNL     1      -9.125   7.892  73.725  1.00  0.00    -0.275 OA 
HETATM   35  H   UNL     1      -8.551   8.272  74.379  1.00  0.00     0.000 HD 
ENDBRANCH   4  33
TORSDOF 5
ENDMDL
MODEL       69
REMARK 921   NORMALIZED FREE ENERGY PREDICTED BY IDOCK:   -6.89 KCAL/MOL
REMARK 922        TOTAL FREE ENERGY PREDICTED BY IDOCK:   -9.50 KCAL/MOL
REMARK 923 INTER-LIGAND FREE ENERGY PREDICTED BY IDOCK:   -8.59 KCAL/MOL
REMARK 924 INTRA-LIGAND FREE ENERGY PREDICTED BY IDOCK:   -0.92 KCAL/MOL
REMARK 927      BINDING AFFINITY PREDICTED BY RF-SCORE:    0.00 PKD
ROOT
HETATM    1  C   UNL     1     -12.655  12.158  70.305  1.00  0.00     0.034 C  
HETATM    2  O   UNL     1     -11.727  12.421  69.230  1.00  0.00    -0.295 OA 
HETATM    3  H   UNL     1     -13.704  13.797  72.943  1.00  0.00     0.000 HD 
HETATM    4  C   UNL     1     -12.028  13.620  68.512  1.00  0.00    -0.361 C  
HETATM    5  O   UNL     1     -13.702  13.091  72.307  1.00  0.00    -0.552 OA 
HETATM    6  C   UNL     1     -11.919  14.840  69.438  1.00  0.00    -0.303 C  
HETATM    7  H   UNL     1     -13.302  15.638  72.269  1.00  0.00     0.000 HD 
HETATM    8  O   UNL     1     -12.710  15.752  71.535  1.00  0.00    -0.434 OA 
HETATM    9  O   UNL     1     -12.285  16.068  68.791  1.00  0.00    -0.443 OA 
HETATM   10  C   UNL     1     -12.873  14.656  70.620  1.00  0.00    -0.342 C  
HETATM   11  H   UNL     1     -12.217  16.823  69.363  1.00  0.00     0.000 HD 
HETATM   12  C   UNL     1     -12.659  13.307  71.339  1.00  0.00    -0.271 C  
ENDROOT
BRANCH   1  13
HETATM   13  C   UNL     1     -12.327  10.800  70.918  1.00  0.00    -0.497 A  
HETATM   14  C   UNL     1     -11.621   8.358  72.187  1.00  0.00    -0.442 A  
HETATM   15  C   UNL     1     -11.263   7.117  72.963  1.00  0.00    -0.279 C  
HETATM   16  C   UNL     1     -10.696   8.995  71.336  1.00  0.00    -0.401 A  
HETATM   17  C   UNL     1     -13.235  10.135  71.748  1.00  0.00    -0.542 A  
HETATM   18  C   UNL     1     -12.887   8.934  72.372  1.00  0.00    -0.446 A  
HETATM   19  C   UNL     1     -11.076  10.194  70.691  1.00  0.00    -0.397 A  
BRANCH  16  20
HETATM   20  C   UNL     1      -9.269   8.500  71.192  1.00  0.00    -0.248 C  
BRANCH  20  21
HETATM   21  C   UNL     1      -8.835   7.989  69.845  1.00  0.00    -0.144 A  
HETATM   22  C   UNL     1      -7.611   8.026  69.210  1.00  0.00    -0.096 A  
HETATM   23  C   UNL     1      -7.574   7.171  68.058  1.00  0.00    -0.111 A  
HETATM   24  C   UNL     1      -8.765   6.495  67.847  1.00  0.00    -0.116 A  
HETATM   25  S   UNL     1      -9.969   7.097  68.916  1.00  0.00    -0.168 SA 
BRANCH  24  26
HETATM   26  C   UNL     1      -9.077   5.396  66.905  1.00  0.00    -0.114 A  
HETATM   27  C   UNL     1      -8.116   4.418  66.585  1.00  0.00    -0.102 A  
HETATM   28  C   UNL     1      -8.378   3.421  65.640  1.00  0.00    -0.102 A  
HETATM   29  C   UNL     1      -9.601   3.403  64.989  1.00  0.00    -0.141 A  
HETATM   30  F   UNL     1      -9.841   2.466  64.061  1.00  0.00    -0.131 F  
HETATM   31  C   UNL     1     -10.574   4.347  65.285  1.00  0.00    -0.181 A  
HETATM   32  C   UNL     1     -10.315   5.339  66.240  1.00  0.00    -0.287 A  
ENDBRANCH  24  26
ENDBRANCH  20  21
ENDBRANCH  16  20
ENDBRANCH   1  13
BRANCH   4  33
HETATM   33  C   UNL     1     -11.076  13.744  67.317  1.00  0.00    -0.304 C  
HETATM   34  O   UNL     1     -11.665  14.570  66.309  1.00  0.00    -0.371 OA 
HETATM   35  H   UNL     1     -11.075  14.647  65.568  1.00  0.00     0.000 HD 
ENDBRANCH   4  33
TORSDOF 5
ENDMDL
MODEL       70
REMARK 921   NORMALIZED FREE ENERGY PREDICTED BY IDOCK:   -6.88 KCAL/MOL
REMARK 922        TOTAL FREE ENERGY PREDICTED BY IDOCK:   -9.48 KCAL/MOL
REMARK 923 INTER-LIGAND FREE ENERGY PREDICTED BY IDOCK:   -8.86 KCAL/MOL
REMARK 924 INTRA-LIGAND FREE ENERGY PREDICTED BY IDOCK:   -0.63 KCAL/MOL
REMARK 927      BINDING AFFINITY PREDICTED BY RF-SCORE:    0.00 PKD
ROOT
HETATM    1  C   UNL     1      -9.463  15.057  68.396  1.00  0.00    -0.201 C  
HETATM    2  O   UNL     1      -8.197  15.153  69.085  1.00  0.00    -0.188 OA 
HETATM    3  H   UNL     1     -11.003  16.790  66.079  1.00  0.00     0.000 HD 
HETATM    4  C   UNL     1      -7.079  15.182  68.195  1.00  0.00    -0.118 C  
HETATM    5  O   UNL     1     -10.870  16.052  66.662  1.00  0.00    -0.285 OA 
HETATM    6  C   UNL     1      -7.138  16.427  67.300  1.00  0.00    -0.181 C  
HETATM    7  H   UNL     1      -9.374  17.621  65.265  1.00  0.00     0.000 HD 
HETATM    8  O   UNL     1      -8.557  17.625  65.749  1.00  0.00    -0.516 OA 
HETATM    9  O   UNL     1      -6.079  16.471  66.332  1.00  0.00    -0.236 OA 
HETATM   10  C   UNL     1      -8.455  16.419  66.521  1.00  0.00    -0.301 C  
HETATM   11  H   UNL     1      -6.115  17.242  65.778  1.00  0.00     0.000 HD 
HETATM   12  C   UNL     1      -9.680  16.258  67.447  1.00  0.00    -0.234 C  
ENDROOT
BRANCH   1  13
HETATM   13  C   UNL     1     -10.575  14.901  69.430  1.00  0.00    -0.255 A  
HETATM   14  C   UNL     1     -12.534  14.508  71.451  1.00  0.00    -0.423 A  
HETATM   15  C   UNL     1     -13.486  14.310  72.601  1.00  0.00    -0.623 C  
HETATM   16  C   UNL     1     -12.310  13.501  70.490  1.00  0.00    -0.412 A  
HETATM   17  C   UNL     1     -10.834  15.894  70.380  1.00  0.00    -0.325 A  
HETATM   18  C   UNL     1     -11.798  15.699  71.373  1.00  0.00    -0.482 A  
HETATM   19  C   UNL     1     -11.352  13.727  69.476  1.00  0.00    -0.283 A  
BRANCH  16  20
HETATM   20  C   UNL     1     -12.974  12.140  70.588  1.00  0.00     0.121 C  
BRANCH  20  21
HETATM   21  C   UNL     1     -12.087  10.924  70.581  1.00  0.00    -0.371 A  
HETATM   22  C   UNL     1     -10.798  10.742  70.125  1.00  0.00    -0.148 A  
HETATM   23  C   UNL     1     -10.237   9.500  70.573  1.00  0.00    -0.349 A  
HETATM   24  C   UNL     1     -11.106   8.769  71.367  1.00  0.00    -0.291 A  
HETATM   25  S   UNL     1     -12.661   9.503  71.351  1.00  0.00    -0.378 SA 
BRANCH  24  26
HETATM   26  C   UNL     1     -10.857   7.551  72.172  1.00  0.00    -0.282 A  
HETATM   27  C   UNL     1     -11.326   6.292  71.749  1.00  0.00    -0.346 A  
HETATM   28  C   UNL     1     -11.160   5.150  72.539  1.00  0.00    -0.257 A  
HETATM   29  C   UNL     1     -10.536   5.259  73.772  1.00  0.00    -0.287 A  
HETATM   30  F   UNL     1     -10.405   4.170  74.542  1.00  0.00    -0.194 F  
HETATM   31  C   UNL     1     -10.055   6.482  74.216  1.00  0.00    -0.379 A  
HETATM   32  C   UNL     1     -10.212   7.624  73.419  1.00  0.00    -0.375 A  
ENDBRANCH  24  26
ENDBRANCH  20  21
ENDBRANCH  16  20
ENDBRANCH   1  13
BRANCH   4  33
HETATM   33  C   UNL     1      -5.783  15.150  69.015  1.00  0.00    -0.097 C  
HETATM   34  O   UNL     1      -5.948  15.910  70.216  1.00  0.00    -0.161 OA 
HETATM   35  H   UNL     1      -5.146  15.891  70.724  1.00  0.00     0.000 HD 
ENDBRANCH   4  33
TORSDOF 5
ENDMDL
MODEL       71
REMARK 921   NORMALIZED FREE ENERGY PREDICTED BY IDOCK:   -6.84 KCAL/MOL
REMARK 922        TOTAL FREE ENERGY PREDICTED BY IDOCK:   -9.44 KCAL/MOL
REMARK 923 INTER-LIGAND FREE ENERGY PREDICTED BY IDOCK:   -8.49 KCAL/MOL
REMARK 924 INTRA-LIGAND FREE ENERGY PREDICTED BY IDOCK:   -0.95 KCAL/MOL
REMARK 927      BINDING AFFINITY PREDICTED BY RF-SCORE:    0.00 PKD
ROOT
HETATM    1  C   UNL     1     -10.287  12.791  66.440  1.00  0.00    -0.258 C  
HETATM    2  O   UNL     1     -10.772  12.148  65.242  1.00  0.00    -0.270 OA 
HETATM    3  H   UNL     1      -9.274  15.806  67.233  1.00  0.00     0.000 HD 
HETATM    4  C   UNL     1     -11.907  12.808  64.675  1.00  0.00    -0.374 C  
HETATM    5  O   UNL     1      -9.536  14.909  67.403  1.00  0.00    -0.201 OA 
HETATM    6  C   UNL     1     -11.538  14.232  64.240  1.00  0.00    -0.282 C  
HETATM    7  H   UNL     1     -10.247  16.785  65.783  1.00  0.00     0.000 HD 
HETATM    8  O   UNL     1     -10.576  16.307  65.032  1.00  0.00    -0.620 OA 
HETATM    9  O   UNL     1     -12.659  14.971  63.731  1.00  0.00    -0.997 OA 
HETATM   10  C   UNL     1     -11.007  15.002  65.451  1.00  0.00    -0.373 C  
HETATM   11  H   UNL     1     -12.430  15.852  63.461  1.00  0.00     0.000 HD 
HETATM   12  C   UNL     1      -9.862  14.252  66.164  1.00  0.00    -0.316 C  
ENDROOT
BRANCH   1  13
HETATM   13  C   UNL     1      -9.167  11.943  67.035  1.00  0.00    -0.191 A  
HETATM   14  C   UNL     1      -7.173  10.216  68.093  1.00  0.00    -0.081 A  
HETATM   15  C   UNL     1      -6.133   9.232  68.559  1.00  0.00    -0.045 C  
HETATM   16  C   UNL     1      -8.345  10.466  68.834  1.00  0.00    -0.138 A  
HETATM   17  C   UNL     1      -7.984  11.697  66.331  1.00  0.00     0.005 A  
HETATM   18  C   UNL     1      -7.004  10.848  66.852  1.00  0.00    -0.119 A  
HETATM   19  C   UNL     1      -9.313  11.350  68.304  1.00  0.00    -0.187 A  
BRANCH  16  20
HETATM   20  C   UNL     1      -8.654   9.719  70.119  1.00  0.00    -0.214 C  
BRANCH  20  21
HETATM   21  C   UNL     1      -9.238   8.337  70.005  1.00  0.00    -0.151 A  
HETATM   22  C   UNL     1      -9.207   7.419  68.976  1.00  0.00    -0.146 A  
HETATM   23  C   UNL     1      -9.647   6.120  69.396  1.00  0.00    -0.159 A  
HETATM   24  C   UNL     1      -9.992   6.074  70.738  1.00  0.00    -0.191 A  
HETATM   25  S   UNL     1      -9.997   7.665  71.389  1.00  0.00    -0.181 SA 
BRANCH  24  26
HETATM   26  C   UNL     1     -10.305   4.908  71.596  1.00  0.00    -0.241 A  
HETATM   27  C   UNL     1     -10.956   5.071  72.834  1.00  0.00    -0.342 A  
HETATM   28  C   UNL     1     -11.187   3.984  73.683  1.00  0.00    -0.305 A  
HETATM   29  C   UNL     1     -10.753   2.722  73.310  1.00  0.00    -0.175 A  
HETATM   30  F   UNL     1     -10.948   1.687  74.138  1.00  0.00    -0.165 F  
HETATM   31  C   UNL     1     -10.114   2.525  72.094  1.00  0.00    -0.213 A  
HETATM   32  C   UNL     1      -9.893   3.612  71.239  1.00  0.00    -0.211 A  
ENDBRANCH  24  26
ENDBRANCH  20  21
ENDBRANCH  16  20
ENDBRANCH   1  13
BRANCH   4  33
HETATM   33  C   UNL     1     -12.428  11.984  63.491  1.00  0.00    -0.540 C  
HETATM   34  O   UNL     1     -11.373  11.179  62.957  1.00  0.00    -0.812 OA 
HETATM   35  H   UNL     1     -11.696  10.668  62.224  1.00  0.00     0.000 HD 
ENDBRANCH   4  33
TORSDOF 5
ENDMDL
MODEL       72
REMARK 921   NORMALIZED FREE ENERGY PREDICTED BY IDOCK:   -6.84 KCAL/MOL
REMARK 922        TOTAL FREE ENERGY PREDICTED BY IDOCK:   -9.44 KCAL/MOL
REMARK 923 INTER-LIGAND FREE ENERGY PREDICTED BY IDOCK:   -8.20 KCAL/MOL
REMARK 924 INTRA-LIGAND FREE ENERGY PREDICTED BY IDOCK:   -1.24 KCAL/MOL
REMARK 927      BINDING AFFINITY PREDICTED BY RF-SCORE:    0.00 PKD
ROOT
HETATM    1  C   UNL     1      -9.355   9.306  65.617  1.00  0.00    -0.244 C  
HETATM    2  O   UNL     1     -10.243   8.335  66.213  1.00  0.00    -0.189 OA 
HETATM    3  H   UNL     1      -6.473  10.644  66.421  1.00  0.00     0.000 HD 
HETATM    4  C   UNL     1      -9.604   7.086  66.484  1.00  0.00    -0.144 C  
HETATM    5  O   UNL     1      -7.211  10.456  65.854  1.00  0.00    -0.124 OA 
HETATM    6  C   UNL     1      -8.475   7.272  67.508  1.00  0.00    -0.119 C  
HETATM    7  H   UNL     1      -5.840   9.171  67.619  1.00  0.00     0.000 HD 
HETATM    8  O   UNL     1      -6.462   8.538  67.955  1.00  0.00    -0.055 OA 
HETATM    9  O   UNL     1      -7.746   6.063  67.763  1.00  0.00    -0.098 OA 
HETATM   10  C   UNL     1      -7.473   8.293  66.965  1.00  0.00    -0.088 C  
HETATM   11  H   UNL     1      -7.048   6.177  68.397  1.00  0.00     0.000 HD 
HETATM   12  C   UNL     1      -8.153   9.612  66.540  1.00  0.00    -0.119 C  
ENDROOT
BRANCH   1  13
HETATM   13  C   UNL     1     -10.160  10.549  65.249  1.00  0.00    -0.369 A  
HETATM   14  C   UNL     1     -11.512  12.963  64.603  1.00  0.00    -0.369 A  
HETATM   15  C   UNL     1     -12.129  14.280  64.210  1.00  0.00    -0.467 C  
HETATM   16  C   UNL     1     -11.376  12.579  65.951  1.00  0.00    -0.380 A  
HETATM   17  C   UNL     1     -10.330  10.941  63.917  1.00  0.00    -0.397 A  
HETATM   18  C   UNL     1     -10.996  12.129  63.601  1.00  0.00    -0.527 A  
HETATM   19  C   UNL     1     -10.725  11.361  66.252  1.00  0.00    -0.322 A  
BRANCH  16  20
HETATM   20  C   UNL     1     -11.794  13.492  67.090  1.00  0.00    -0.430 C  
BRANCH  20  21
HETATM   21  C   UNL     1     -10.742  14.375  67.703  1.00  0.00    -0.263 A  
HETATM   22  C   UNL     1      -9.698  14.087  68.559  1.00  0.00    -0.215 A  
HETATM   23  C   UNL     1      -8.771  15.176  68.666  1.00  0.00    -0.174 A  
HETATM   24  C   UNL     1      -9.122  16.266  67.884  1.00  0.00    -0.196 A  
HETATM   25  S   UNL     1     -10.691  16.022  67.225  1.00  0.00    -0.258 SA 
BRANCH  24  26
HETATM   26  C   UNL     1      -8.353  17.491  67.566  1.00  0.00    -0.220 A  
HETATM   27  C   UNL     1      -8.273  18.557  68.482  1.00  0.00    -0.360 A  
HETATM   28  C   UNL     1      -7.612  19.746  68.159  1.00  0.00    -0.339 A  
HETATM   29  C   UNL     1      -7.038  19.889  66.906  1.00  0.00    -0.222 A  
HETATM   30  F   UNL     1      -6.432  21.040  66.586  1.00  0.00    -0.279 F  
HETATM   31  C   UNL     1      -7.093  18.856  65.981  1.00  0.00    -0.297 A  
HETATM   32  C   UNL     1      -7.745  17.660  66.309  1.00  0.00    -0.324 A  
ENDBRANCH  24  26
ENDBRANCH  20  21
ENDBRANCH  16  20
ENDBRANCH   1  13
BRANCH   4  33
HETATM   33  C   UNL     1     -10.650   6.085  66.988  1.00  0.00    -0.316 C  
HETATM   34  O   UNL     1     -10.928   6.327  68.371  1.00  0.00    -0.295 OA 
HETATM   35  H   UNL     1     -11.576   5.707  68.683  1.00  0.00     0.000 HD 
ENDBRANCH   4  33
TORSDOF 5
ENDMDL
MODEL       73
REMARK 921   NORMALIZED FREE ENERGY PREDICTED BY IDOCK:   -6.81 KCAL/MOL
REMARK 922        TOTAL FREE ENERGY PREDICTED BY IDOCK:   -9.40 KCAL/MOL
REMARK 923 INTER-LIGAND FREE ENERGY PREDICTED BY IDOCK:   -8.48 KCAL/MOL
REMARK 924 INTRA-LIGAND FREE ENERGY PREDICTED BY IDOCK:   -0.93 KCAL/MOL
REMARK 927      BINDING AFFINITY PREDICTED BY RF-SCORE:    0.00 PKD
ROOT
HETATM    1  C   UNL     1      -8.283  16.763  67.214  1.00  0.00    -0.176 C  
HETATM    2  O   UNL     1      -7.280  17.768  66.952  1.00  0.00    -0.179 OA 
HETATM    3  H   UNL     1     -11.378  16.772  68.295  1.00  0.00     0.000 HD 
HETATM    4  C   UNL     1      -7.723  18.773  66.036  1.00  0.00    -0.199 C  
HETATM    5  O   UNL     1     -10.593  16.388  67.922  1.00  0.00    -0.299 OA 
HETATM    6  C   UNL     1      -8.914  19.544  66.621  1.00  0.00    -0.351 C  
HETATM    7  H   UNL     1     -11.823  18.648  67.763  1.00  0.00     0.000 HD 
HETATM    8  O   UNL     1     -11.124  19.260  67.567  1.00  0.00    -0.423 OA 
HETATM    9  O   UNL     1      -9.451  20.518  65.713  1.00  0.00    -0.614 OA 
HETATM   10  C   UNL     1     -10.040  18.558  66.937  1.00  0.00    -0.370 C  
HETATM   11  H   UNL     1     -10.188  20.995  66.075  1.00  0.00     0.000 HD 
HETATM   12  C   UNL     1      -9.561  17.387  67.821  1.00  0.00    -0.264 C  
ENDROOT
BRANCH   1  13
HETATM   13  C   UNL     1      -7.672  15.675  68.093  1.00  0.00    -0.127 A  
HETATM   14  C   UNL     1      -6.387  13.655  69.623  1.00  0.00    -0.110 A  
HETATM   15  C   UNL     1      -5.606  12.644  70.421  1.00  0.00    -0.167 C  
HETATM   16  C   UNL     1      -7.011  13.317  68.405  1.00  0.00    -0.105 A  
HETATM   17  C   UNL     1      -7.066  15.979  69.316  1.00  0.00    -0.220 A  
HETATM   18  C   UNL     1      -6.435  14.983  70.068  1.00  0.00    -0.160 A  
HETATM   19  C   UNL     1      -7.669  14.331  67.672  1.00  0.00    -0.190 A  
BRANCH  16  20
HETATM   20  C   UNL     1      -6.888  11.931  67.800  1.00  0.00    -0.094 C  
BRANCH  20  21
HETATM   21  C   UNL     1      -7.679  10.817  68.430  1.00  0.00    -0.113 A  
HETATM   22  C   UNL     1      -7.277   9.628  69.002  1.00  0.00    -0.071 A  
HETATM   23  C   UNL     1      -8.336   8.994  69.733  1.00  0.00    -0.129 A  
HETATM   24  C   UNL     1      -9.518   9.719  69.711  1.00  0.00    -0.228 A  
HETATM   25  S   UNL     1      -9.372  11.029  68.606  1.00  0.00    -0.181 SA 
BRANCH  24  26
HETATM   26  C   UNL     1     -10.766   9.519  70.481  1.00  0.00    -0.359 A  
HETATM   27  C   UNL     1     -11.737  10.535  70.569  1.00  0.00    -0.443 A  
HETATM   28  C   UNL     1     -12.883  10.382  71.355  1.00  0.00    -0.556 A  
HETATM   29  C   UNL     1     -13.063   9.213  72.078  1.00  0.00    -0.429 A  
HETATM   30  F   UNL     1     -14.146   9.078  72.855  1.00  0.00    -0.475 F  
HETATM   31  C   UNL     1     -12.130   8.188  72.009  1.00  0.00    -0.388 A  
HETATM   32  C   UNL     1     -10.988   8.338  71.212  1.00  0.00    -0.290 A  
ENDBRANCH  24  26
ENDBRANCH  20  21
ENDBRANCH  16  20
ENDBRANCH   1  13
BRANCH   4  33
HETATM   33  C   UNL     1      -6.555  19.714  65.719  1.00  0.00    -0.242 C  
HETATM   34  O   UNL     1      -7.024  20.835  64.964  1.00  0.00    -0.523 OA 
HETATM   35  H   UNL     1      -6.301  21.419  64.768  1.00  0.00     0.000 HD 
ENDBRANCH   4  33
TORSDOF 5
ENDMDL
MODEL       74
REMARK 921   NORMALIZED FREE ENERGY PREDICTED BY IDOCK:   -6.81 KCAL/MOL
REMARK 922        TOTAL FREE ENERGY PREDICTED BY IDOCK:   -9.40 KCAL/MOL
REMARK 923 INTER-LIGAND FREE ENERGY PREDICTED BY IDOCK:   -8.77 KCAL/MOL
REMARK 924 INTRA-LIGAND FREE ENERGY PREDICTED BY IDOCK:   -0.63 KCAL/MOL
REMARK 927      BINDING AFFINITY PREDICTED BY RF-SCORE:    0.00 PKD
ROOT
HETATM    1  C   UNL     1      -9.437   9.002  65.798  1.00  0.00    -0.236 C  
HETATM    2  O   UNL     1     -10.129   7.950  66.505  1.00  0.00    -0.246 OA 
HETATM    3  H   UNL     1      -6.389  10.209  65.795  1.00  0.00     0.000 HD 
HETATM    4  C   UNL     1      -9.497   6.676  66.367  1.00  0.00    -0.123 C  
HETATM    5  O   UNL     1      -7.280  10.108  65.481  1.00  0.00    -0.129 OA 
HETATM    6  C   UNL     1      -8.089   6.706  66.978  1.00  0.00    -0.113 C  
HETATM    7  H   UNL     1      -5.472   8.572  66.491  1.00  0.00     0.000 HD 
HETATM    8  O   UNL     1      -5.981   7.893  66.917  1.00  0.00    -0.048 OA 
HETATM    9  O   UNL     1      -7.375   5.473  66.801  1.00  0.00    -0.080 OA 
HETATM   10  C   UNL     1      -7.270   7.799  66.290  1.00  0.00    -0.074 C  
HETATM   11  H   UNL     1      -6.505   5.491  67.180  1.00  0.00     0.000 HD 
HETATM   12  C   UNL     1      -7.987   9.166  66.309  1.00  0.00    -0.103 C  
ENDROOT
BRANCH   1  13
HETATM   13  C   UNL     1     -10.257  10.286  65.899  1.00  0.00    -0.293 A  
HETATM   14  C   UNL     1     -11.629  12.764  66.117  1.00  0.00    -0.431 A  
HETATM   15  C   UNL     1     -12.268  14.127  66.172  1.00  0.00    -0.465 C  
HETATM   16  C   UNL     1     -11.229  12.084  67.283  1.00  0.00    -0.371 A  
HETATM   17  C   UNL     1     -10.687  10.969  64.757  1.00  0.00    -0.304 A  
HETATM   18  C   UNL     1     -11.362  12.189  64.866  1.00  0.00    -0.378 A  
HETATM   19  C   UNL     1     -10.572  10.838  67.156  1.00  0.00    -0.306 A  
BRANCH  16  20
HETATM   20  C   UNL     1     -11.368  12.706  68.661  1.00  0.00    -0.331 C  
BRANCH  20  21
HETATM   21  C   UNL     1     -11.632  11.787  69.823  1.00  0.00    -0.299 A  
HETATM   22  C   UNL     1     -12.654  11.764  70.749  1.00  0.00    -0.344 A  
HETATM   23  C   UNL     1     -12.668  10.547  71.509  1.00  0.00    -0.558 A  
HETATM   24  C   UNL     1     -11.664   9.666  71.138  1.00  0.00    -0.372 A  
HETATM   25  S   UNL     1     -10.590  10.442  70.041  1.00  0.00    -0.162 SA 
BRANCH  24  26
HETATM   26  C   UNL     1     -11.450   8.255  71.530  1.00  0.00    -0.325 A  
HETATM   27  C   UNL     1     -11.102   7.912  72.851  1.00  0.00    -0.442 A  
HETATM   28  C   UNL     1     -10.825   6.589  73.211  1.00  0.00    -0.276 A  
HETATM   29  C   UNL     1     -10.876   5.595  72.247  1.00  0.00    -0.242 A  
HETATM   30  F   UNL     1     -10.580   4.333  72.586  1.00  0.00    -0.231 F  
HETATM   31  C   UNL     1     -11.221   5.896  70.938  1.00  0.00    -0.278 A  
HETATM   32  C   UNL     1     -11.510   7.220  70.580  1.00  0.00    -0.310 A  
ENDBRANCH  24  26
ENDBRANCH  20  21
ENDBRANCH  16  20
ENDBRANCH   1  13
BRANCH   4  33
HETATM   33  C   UNL     1     -10.369   5.607  67.036  1.00  0.00    -0.254 C  
HETATM   34  O   UNL     1     -11.046   4.836  66.039  1.00  0.00    -0.642 OA 
HETATM   35  H   UNL     1     -11.586   4.174  66.454  1.00  0.00     0.000 HD 
ENDBRANCH   4  33
TORSDOF 5
ENDMDL
MODEL       75
REMARK 921   NORMALIZED FREE ENERGY PREDICTED BY IDOCK:   -6.80 KCAL/MOL
REMARK 922        TOTAL FREE ENERGY PREDICTED BY IDOCK:   -9.39 KCAL/MOL
REMARK 923 INTER-LIGAND FREE ENERGY PREDICTED BY IDOCK:   -8.35 KCAL/MOL
REMARK 924 INTRA-LIGAND FREE ENERGY PREDICTED BY IDOCK:   -1.05 KCAL/MOL
REMARK 927      BINDING AFFINITY PREDICTED BY RF-SCORE:    0.00 PKD
ROOT
HETATM    1  C   UNL     1     -10.080   8.702  68.273  1.00  0.00    -0.192 C  
HETATM    2  O   UNL     1      -8.914   9.151  68.997  1.00  0.00    -0.139 OA 
HETATM    3  H   UNL     1     -11.165   5.825  67.135  1.00  0.00     0.000 HD 
HETATM    4  C   UNL     1      -8.720   8.455  70.230  1.00  0.00    -0.140 C  
HETATM    5  O   UNL     1     -11.224   6.749  67.349  1.00  0.00    -0.313 OA 
HETATM    6  C   UNL     1      -8.476   6.962  69.971  1.00  0.00    -0.140 C  
HETATM    7  H   UNL     1     -10.144   4.657  68.399  1.00  0.00     0.000 HD 
HETATM    8  O   UNL     1      -9.405   5.013  68.877  1.00  0.00    -0.113 OA 
HETATM    9  O   UNL     1      -8.349   6.197  71.179  1.00  0.00    -0.121 OA 
HETATM   10  C   UNL     1      -9.667   6.388  69.201  1.00  0.00    -0.136 C  
HETATM   11  H   UNL     1      -8.198   5.273  71.018  1.00  0.00     0.000 HD 
HETATM   12  C   UNL     1      -9.984   7.198  67.926  1.00  0.00    -0.154 C  
ENDROOT
BRANCH   1  13
HETATM   13  C   UNL     1     -10.271   9.590  67.046  1.00  0.00    -0.321 A  
HETATM   14  C   UNL     1     -10.513  11.362  64.839  1.00  0.00    -0.363 A  
HETATM   15  C   UNL     1     -10.526  12.323  63.679  1.00  0.00    -0.483 C  
HETATM   16  C   UNL     1     -11.253  11.605  66.013  1.00  0.00    -0.299 A  
HETATM   17  C   UNL     1      -9.566   9.358  65.861  1.00  0.00    -0.338 A  
HETATM   18  C   UNL     1      -9.687  10.231  64.775  1.00  0.00    -0.397 A  
HETATM   19  C   UNL     1     -11.141  10.697  67.090  1.00  0.00    -0.267 A  
BRANCH  16  20
HETATM   20  C   UNL     1     -12.064  12.874  66.200  1.00  0.00    -0.458 C  
BRANCH  20  21
HETATM   21  C   UNL     1     -11.594  13.861  67.234  1.00  0.00    -0.365 A  
HETATM   22  C   UNL     1     -11.310  13.708  68.575  1.00  0.00    -0.325 A  
HETATM   23  C   UNL     1     -10.621  14.844  69.115  1.00  0.00    -0.248 A  
HETATM   24  C   UNL     1     -10.385  15.832  68.173  1.00  0.00    -0.242 A  
HETATM   25  S   UNL     1     -11.216  15.453  66.716  1.00  0.00    -0.122 SA 
BRANCH  24  26
HETATM   26  C   UNL     1      -9.553  17.054  68.269  1.00  0.00    -0.273 A  
HETATM   27  C   UNL     1     -10.107  18.330  68.049  1.00  0.00    -0.381 A  
HETATM   28  C   UNL     1      -9.313  19.480  68.064  1.00  0.00    -0.411 A  
HETATM   29  C   UNL     1      -7.949  19.365  68.282  1.00  0.00    -0.331 A  
HETATM   30  F   UNL     1      -7.184  20.465  68.265  1.00  0.00    -0.320 F  
HETATM   31  C   UNL     1      -7.371  18.125  68.508  1.00  0.00    -0.285 A  
HETATM   32  C   UNL     1      -8.169  16.973  68.504  1.00  0.00    -0.259 A  
ENDBRANCH  24  26
ENDBRANCH  20  21
ENDBRANCH  16  20
ENDBRANCH   1  13
BRANCH   4  33
HETATM   33  C   UNL     1      -7.544   9.086  70.984  1.00  0.00    -0.115 C  
HETATM   34  O   UNL     1      -7.563   8.669  72.353  1.00  0.00    -0.296 OA 
HETATM   35  H   UNL     1      -6.834   9.060  72.820  1.00  0.00     0.000 HD 
ENDBRANCH   4  33
TORSDOF 5
ENDMDL
MODEL       76
REMARK 921   NORMALIZED FREE ENERGY PREDICTED BY IDOCK:   -6.79 KCAL/MOL
REMARK 922        TOTAL FREE ENERGY PREDICTED BY IDOCK:   -9.38 KCAL/MOL
REMARK 923 INTER-LIGAND FREE ENERGY PREDICTED BY IDOCK:   -8.43 KCAL/MOL
REMARK 924 INTRA-LIGAND FREE ENERGY PREDICTED BY IDOCK:   -0.95 KCAL/MOL
REMARK 927      BINDING AFFINITY PREDICTED BY RF-SCORE:    0.00 PKD
ROOT
HETATM    1  C   UNL     1     -11.606  10.500  70.664  1.00  0.00    -0.352 C  
HETATM    2  O   UNL     1     -11.192   9.302  69.972  1.00  0.00    -0.235 OA 
HETATM    3  H   UNL     1     -14.196  11.384  72.467  1.00  0.00     0.000 HD 
HETATM    4  C   UNL     1     -11.141   8.155  70.823  1.00  0.00    -0.259 C  
HETATM    5  O   UNL     1     -13.330  11.484  72.090  1.00  0.00    -0.477 OA 
HETATM    6  C   UNL     1     -12.537   7.833  71.374  1.00  0.00    -0.317 C  
HETATM    7  H   UNL     1     -14.739   9.546  73.042  1.00  0.00     0.000 HD 
HETATM    8  O   UNL     1     -14.409   8.790  72.572  1.00  0.00    -0.562 OA 
HETATM    9  O   UNL     1     -12.535   6.734  72.297  1.00  0.00    -0.517 OA 
HETATM   10  C   UNL     1     -13.068   9.052  72.131  1.00  0.00    -0.435 C  
HETATM   11  H   UNL     1     -13.399   6.535  72.638  1.00  0.00     0.000 HD 
HETATM   12  C   UNL     1     -13.015  10.338  71.278  1.00  0.00    -0.420 C  
ENDROOT
BRANCH   1  13
HETATM   13  C   UNL     1     -11.502  11.683  69.705  1.00  0.00    -0.339 A  
HETATM   14  C   UNL     1     -11.440  13.810  67.823  1.00  0.00    -0.354 A  
HETATM   15  C   UNL     1     -11.524  14.932  66.821  1.00  0.00    -0.304 C  
HETATM   16  C   UNL     1     -10.790  12.596  67.525  1.00  0.00    -0.267 A  
HETATM   17  C   UNL     1     -12.117  12.907  69.987  1.00  0.00    -0.357 A  
HETATM   18  C   UNL     1     -12.086  13.953  69.060  1.00  0.00    -0.365 A  
HETATM   19  C   UNL     1     -10.808  11.559  68.486  1.00  0.00    -0.254 A  
BRANCH  16  20
HETATM   20  C   UNL     1     -10.185  12.326  66.160  1.00  0.00    -0.263 C  
BRANCH  20  21
HETATM   21  C   UNL     1      -9.240  11.162  66.029  1.00  0.00    -0.205 A  
HETATM   22  C   UNL     1      -7.917  11.019  66.394  1.00  0.00    -0.161 A  
HETATM   23  C   UNL     1      -7.487   9.652  66.345  1.00  0.00    -0.094 A  
HETATM   24  C   UNL     1      -8.493   8.782  65.954  1.00  0.00    -0.143 A  
HETATM   25  S   UNL     1      -9.863   9.680  65.431  1.00  0.00    -0.138 SA 
BRANCH  24  26
HETATM   26  C   UNL     1      -8.521   7.301  65.960  1.00  0.00    -0.148 A  
HETATM   27  C   UNL     1      -7.398   6.552  65.560  1.00  0.00    -0.076 A  
HETATM   28  C   UNL     1      -7.441   5.156  65.491  1.00  0.00    -0.077 A  
HETATM   29  C   UNL     1      -8.618   4.494  65.806  1.00  0.00    -0.116 A  
HETATM   30  F   UNL     1      -8.668   3.158  65.711  1.00  0.00    -0.107 F  
HETATM   31  C   UNL     1      -9.741   5.200  66.211  1.00  0.00    -0.188 A  
HETATM   32  C   UNL     1      -9.693   6.598  66.291  1.00  0.00    -0.057 A  
ENDBRANCH  24  26
ENDBRANCH  20  21
ENDBRANCH  16  20
ENDBRANCH   1  13
BRANCH   4  33
HETATM   33  C   UNL     1     -10.569   6.969  70.037  1.00  0.00    -0.230 C  
HETATM   34  O   UNL     1     -11.604   6.352  69.265  1.00  0.00    -0.611 OA 
HETATM   35  H   UNL     1     -11.250   5.618  68.777  1.00  0.00     0.000 HD 
ENDBRANCH   4  33
TORSDOF 5
ENDMDL
MODEL       77
REMARK 921   NORMALIZED FREE ENERGY PREDICTED BY IDOCK:   -6.75 KCAL/MOL
REMARK 922        TOTAL FREE ENERGY PREDICTED BY IDOCK:   -9.32 KCAL/MOL
REMARK 923 INTER-LIGAND FREE ENERGY PREDICTED BY IDOCK:   -8.56 KCAL/MOL
REMARK 924 INTRA-LIGAND FREE ENERGY PREDICTED BY IDOCK:   -0.76 KCAL/MOL
REMARK 927      BINDING AFFINITY PREDICTED BY RF-SCORE:    0.00 PKD
ROOT
HETATM    1  C   UNL     1     -10.667  11.115  66.153  1.00  0.00    -0.225 C  
HETATM    2  O   UNL     1     -10.860  11.658  64.828  1.00  0.00    -0.297 OA 
HETATM    3  H   UNL     1     -10.673  12.324  69.200  1.00  0.00     0.000 HD 
HETATM    4  C   UNL     1     -12.106  12.343  64.682  1.00  0.00    -0.415 C  
HETATM    5  O   UNL     1     -10.657  11.640  68.540  1.00  0.00    -0.200 OA 
HETATM    6  C   UNL     1     -12.164  13.556  65.620  1.00  0.00    -0.458 C  
HETATM    7  H   UNL     1     -11.809  13.929  68.829  1.00  0.00     0.000 HD 
HETATM    8  O   UNL     1     -11.932  14.222  67.934  1.00  0.00    -0.356 OA 
HETATM    9  O   UNL     1     -13.424  14.241  65.571  1.00  0.00    -0.683 OA 
HETATM   10  C   UNL     1     -11.967  13.083  67.061  1.00  0.00    -0.347 C  
HETATM   11  H   UNL     1     -13.460  14.992  66.151  1.00  0.00     0.000 HD 
HETATM   12  C   UNL     1     -10.693  12.228  67.227  1.00  0.00    -0.231 C  
ENDROOT
BRANCH   1  13
HETATM   13  C   UNL     1      -9.378  10.298  66.168  1.00  0.00    -0.211 A  
HETATM   14  C   UNL     1      -6.985   8.773  66.014  1.00  0.00    -0.080 A  
HETATM   15  C   UNL     1      -5.686   8.031  65.841  1.00  0.00    -0.037 C  
HETATM   16  C   UNL     1      -8.232   8.132  65.870  1.00  0.00    -0.122 A  
HETATM   17  C   UNL     1      -8.130  10.905  66.332  1.00  0.00    -0.164 A  
HETATM   18  C   UNL     1      -6.953  10.154  66.257  1.00  0.00    -0.109 A  
HETATM   19  C   UNL     1      -9.412   8.902  65.978  1.00  0.00    -0.320 A  
BRANCH  16  20
HETATM   20  C   UNL     1      -8.339   6.670  65.479  1.00  0.00    -0.144 C  
BRANCH  20  21
HETATM   21  C   UNL     1      -8.680   5.677  66.557  1.00  0.00    -0.121 A  
HETATM   22  C   UNL     1      -8.129   4.453  66.873  1.00  0.00    -0.102 A  
HETATM   23  C   UNL     1      -8.572   3.974  68.151  1.00  0.00    -0.111 A  
HETATM   24  C   UNL     1      -9.442   4.847  68.785  1.00  0.00    -0.145 A  
HETATM   25  S   UNL     1      -9.879   6.113  67.705  1.00  0.00    -0.131 SA 
BRANCH  24  26
HETATM   26  C   UNL     1      -9.968   4.824  70.169  1.00  0.00    -0.321 A  
HETATM   27  C   UNL     1     -10.635   5.938  70.712  1.00  0.00    -0.330 A  
HETATM   28  C   UNL     1     -11.068   5.951  72.041  1.00  0.00    -0.329 A  
HETATM   29  C   UNL     1     -10.822   4.852  72.849  1.00  0.00    -0.248 A  
HETATM   30  F   UNL     1     -11.210   4.876  74.132  1.00  0.00    -0.322 F  
HETATM   31  C   UNL     1     -10.173   3.734  72.345  1.00  0.00    -0.219 A  
HETATM   32  C   UNL     1      -9.750   3.717  71.009  1.00  0.00    -0.248 A  
ENDBRANCH  24  26
ENDBRANCH  20  21
ENDBRANCH  16  20
ENDBRANCH   1  13
BRANCH   4  33
HETATM   33  C   UNL     1     -12.278  12.765  63.218  1.00  0.00    -0.410 C  
HETATM   34  O   UNL     1     -12.469  14.181  63.139  1.00  0.00    -1.126 OA 
HETATM   35  H   UNL     1     -12.575  14.443  62.232  1.00  0.00     0.000 HD 
ENDBRANCH   4  33
TORSDOF 5
ENDMDL
MODEL       78
REMARK 921   NORMALIZED FREE ENERGY PREDICTED BY IDOCK:   -6.75 KCAL/MOL
REMARK 922        TOTAL FREE ENERGY PREDICTED BY IDOCK:   -9.32 KCAL/MOL
REMARK 923 INTER-LIGAND FREE ENERGY PREDICTED BY IDOCK:   -8.38 KCAL/MOL
REMARK 924 INTRA-LIGAND FREE ENERGY PREDICTED BY IDOCK:   -0.93 KCAL/MOL
REMARK 927      BINDING AFFINITY PREDICTED BY RF-SCORE:    0.00 PKD
ROOT
HETATM    1  C   UNL     1     -12.535  12.080  70.194  1.00  0.00    -0.048 C  
HETATM    2  O   UNL     1     -11.604  12.297  69.111  1.00  0.00    -0.275 OA 
HETATM    3  H   UNL     1     -13.564  13.813  72.779  1.00  0.00     0.000 HD 
HETATM    4  C   UNL     1     -11.892  13.476  68.356  1.00  0.00    -0.373 C  
HETATM    5  O   UNL     1     -13.571  13.087  72.166  1.00  0.00    -0.523 OA 
HETATM    6  C   UNL     1     -11.768  14.724  69.243  1.00  0.00    -0.316 C  
HETATM    7  H   UNL     1     -13.141  15.627  72.047  1.00  0.00     0.000 HD 
HETATM    8  O   UNL     1     -12.548  15.710  71.310  1.00  0.00    -0.409 OA 
HETATM    9  O   UNL     1     -12.120  15.935  68.557  1.00  0.00    -0.469 OA 
HETATM   10  C   UNL     1     -12.723  14.589  70.430  1.00  0.00    -0.322 C  
HETATM   11  H   UNL     1     -12.043  16.706  69.105  1.00  0.00     0.000 HD 
HETATM   12  C   UNL     1     -12.525  13.261  71.192  1.00  0.00    -0.308 C  
ENDROOT
BRANCH   1  13
HETATM   13  C   UNL     1     -12.223  10.738  70.850  1.00  0.00    -0.487 A  
HETATM   14  C   UNL     1     -11.557   8.330  72.204  1.00  0.00    -0.428 A  
HETATM   15  C   UNL     1     -11.227   7.109  73.022  1.00  0.00    -0.279 C  
HETATM   16  C   UNL     1     -10.589   8.973  71.407  1.00  0.00    -0.393 A  
HETATM   17  C   UNL     1     -13.172  10.066  71.627  1.00  0.00    -0.518 A  
HETATM   18  C   UNL     1     -12.843   8.882  72.292  1.00  0.00    -0.475 A  
HETATM   19  C   UNL     1     -10.947  10.154  70.719  1.00  0.00    -0.313 A  
BRANCH  16  20
HETATM   20  C   UNL     1      -9.145   8.506  71.368  1.00  0.00    -0.266 C  
BRANCH  20  21
HETATM   21  C   UNL     1      -8.545   8.191  70.025  1.00  0.00    -0.129 A  
HETATM   22  C   UNL     1      -8.337   6.988  69.382  1.00  0.00    -0.133 A  
HETATM   23  C   UNL     1      -8.000   7.165  67.999  1.00  0.00    -0.119 A  
HETATM   24  C   UNL     1      -7.969   8.497  67.615  1.00  0.00    -0.107 A  
HETATM   25  S   UNL     1      -8.119   9.502  69.003  1.00  0.00    -0.106 SA 
BRANCH  24  26
HETATM   26  C   UNL     1      -7.856   9.092  66.264  1.00  0.00    -0.099 A  
HETATM   27  C   UNL     1      -8.927   9.032  65.351  1.00  0.00    -0.249 A  
HETATM   28  C   UNL     1      -8.801   9.524  64.049  1.00  0.00    -0.243 A  
HETATM   29  C   UNL     1      -7.594  10.068  63.638  1.00  0.00    -0.143 A  
HETATM   30  F   UNL     1      -7.465  10.512  62.381  1.00  0.00    -0.134 F  
HETATM   31  C   UNL     1      -6.521  10.149  64.514  1.00  0.00    -0.124 A  
HETATM   32  C   UNL     1      -6.651   9.666  65.822  1.00  0.00    -0.081 A  
ENDBRANCH  24  26
ENDBRANCH  20  21
ENDBRANCH  16  20
ENDBRANCH   1  13
BRANCH   4  33
HETATM   33  C   UNL     1     -10.938  13.551  67.158  1.00  0.00    -0.291 C  
HETATM   34  O   UNL     1      -9.961  14.573  67.377  1.00  0.00    -0.226 OA 
HETATM   35  H   UNL     1      -9.370  14.619  66.635  1.00  0.00     0.000 HD 
ENDBRANCH   4  33
TORSDOF 5
ENDMDL
MODEL       79
REMARK 921   NORMALIZED FREE ENERGY PREDICTED BY IDOCK:   -6.72 KCAL/MOL
REMARK 922        TOTAL FREE ENERGY PREDICTED BY IDOCK:   -9.28 KCAL/MOL
REMARK 923 INTER-LIGAND FREE ENERGY PREDICTED BY IDOCK:   -8.32 KCAL/MOL
REMARK 924 INTRA-LIGAND FREE ENERGY PREDICTED BY IDOCK:   -0.97 KCAL/MOL
REMARK 927      BINDING AFFINITY PREDICTED BY RF-SCORE:    0.00 PKD
ROOT
HETATM    1  C   UNL     1      -8.851   5.272  67.663  1.00  0.00    -0.105 C  
HETATM    2  O   UNL     1      -9.911   4.797  66.805  1.00  0.00    -0.170 OA 
HETATM    3  H   UNL     1      -6.151   3.969  68.989  1.00  0.00     0.000 HD 
HETATM    4  C   UNL     1      -9.429   4.246  65.577  1.00  0.00    -0.176 C  
HETATM    5  O   UNL     1      -6.750   4.669  68.759  1.00  0.00    -0.047 OA 
HETATM    6  C   UNL     1      -8.555   3.014  65.847  1.00  0.00    -0.117 C  
HETATM    7  H   UNL     1      -5.901   2.501  67.653  1.00  0.00     0.000 HD 
HETATM    8  O   UNL     1      -6.622   2.251  67.087  1.00  0.00    -0.037 OA 
HETATM    9  O   UNL     1      -7.980   2.462  64.653  1.00  0.00    -0.076 OA 
HETATM   10  C   UNL     1      -7.393   3.417  66.758  1.00  0.00    -0.075 C  
HETATM   11  H   UNL     1      -7.439   1.700  64.821  1.00  0.00     0.000 HD 
HETATM   12  C   UNL     1      -7.875   4.133  68.038  1.00  0.00    -0.078 C  
ENDROOT
BRANCH   1  13
HETATM   13  C   UNL     1      -9.471   5.954  68.880  1.00  0.00    -0.146 A  
HETATM   14  C   UNL     1     -10.745   7.303  71.032  1.00  0.00    -0.247 A  
HETATM   15  C   UNL     1     -11.522   7.996  72.120  1.00  0.00    -0.393 C  
HETATM   16  C   UNL     1      -9.820   7.995  70.224  1.00  0.00    -0.184 A  
HETATM   17  C   UNL     1     -10.374   5.284  69.711  1.00  0.00    -0.369 A  
HETATM   18  C   UNL     1     -10.999   5.949  70.770  1.00  0.00    -0.343 A  
HETATM   19  C   UNL     1      -9.176   7.299  69.176  1.00  0.00    -0.139 A  
BRANCH  16  20
HETATM   20  C   UNL     1      -9.593   9.488  70.367  1.00  0.00    -0.326 C  
BRANCH  20  21
HETATM   21  C   UNL     1     -10.524  10.414  69.631  1.00  0.00    -0.243 A  
HETATM   22  C   UNL     1     -11.677  11.055  70.036  1.00  0.00    -0.437 A  
HETATM   23  C   UNL     1     -12.089  12.064  69.104  1.00  0.00    -0.241 A  
HETATM   24  C   UNL     1     -11.238  12.178  68.017  1.00  0.00    -0.264 A  
HETATM   25  S   UNL     1     -10.094  10.895  68.041  1.00  0.00    -0.183 SA 
BRANCH  24  26
HETATM   26  C   UNL     1     -11.196  13.203  66.949  1.00  0.00    -0.328 A  
HETATM   27  C   UNL     1     -10.301  14.288  67.017  1.00  0.00    -0.267 A  
HETATM   28  C   UNL     1     -10.307  15.299  66.051  1.00  0.00    -0.327 A  
HETATM   29  C   UNL     1     -11.225  15.245  65.013  1.00  0.00    -0.403 A  
HETATM   30  F   UNL     1     -11.251  16.230  64.105  1.00  0.00    -0.447 F  
HETATM   31  C   UNL     1     -12.117  14.188  64.912  1.00  0.00    -0.438 A  
HETATM   32  C   UNL     1     -12.102  13.169  65.874  1.00  0.00    -0.501 A  
ENDBRANCH  24  26
ENDBRANCH  20  21
ENDBRANCH  16  20
ENDBRANCH   1  13
BRANCH   4  33
HETATM   33  C   UNL     1     -10.623   3.893  64.682  1.00  0.00    -0.154 C  
HETATM   34  O   UNL     1     -11.772   4.646  65.083  1.00  0.00    -1.054 OA 
HETATM   35  H   UNL     1     -12.511   4.427  64.528  1.00  0.00     0.000 HD 
ENDBRANCH   4  33
TORSDOF 5
ENDMDL
MODEL       80
REMARK 921   NORMALIZED FREE ENERGY PREDICTED BY IDOCK:   -6.71 KCAL/MOL
REMARK 922        TOTAL FREE ENERGY PREDICTED BY IDOCK:   -9.27 KCAL/MOL
REMARK 923 INTER-LIGAND FREE ENERGY PREDICTED BY IDOCK:   -7.95 KCAL/MOL
REMARK 924 INTRA-LIGAND FREE ENERGY PREDICTED BY IDOCK:   -1.32 KCAL/MOL
REMARK 927      BINDING AFFINITY PREDICTED BY RF-SCORE:    0.00 PKD
ROOT
HETATM    1  C   UNL     1     -10.478  12.639  67.099  1.00  0.00    -0.235 C  
HETATM    2  O   UNL     1     -10.428  11.987  65.811  1.00  0.00    -0.239 OA 
HETATM    3  H   UNL     1     -10.351  15.737  68.161  1.00  0.00     0.000 HD 
HETATM    4  C   UNL     1     -11.425  12.464  64.905  1.00  0.00    -0.332 C  
HETATM    5  O   UNL     1     -10.481  14.800  68.242  1.00  0.00    -0.233 OA 
HETATM    6  C   UNL     1     -11.208  13.954  64.605  1.00  0.00    -0.378 C  
HETATM    7  H   UNL     1     -10.975  16.606  66.470  1.00  0.00     0.000 HD 
HETATM    8  O   UNL     1     -10.953  16.119  65.655  1.00  0.00    -0.253 OA 
HETATM    9  O   UNL     1     -12.225  14.509  63.757  1.00  0.00    -0.947 OA 
HETATM   10  C   UNL     1     -11.244  14.738  65.918  1.00  0.00    -0.340 C  
HETATM   11  H   UNL     1     -12.091  15.430  63.571  1.00  0.00     0.000 HD 
HETATM   12  C   UNL     1     -10.267  14.165  66.968  1.00  0.00    -0.260 C  
ENDROOT
BRANCH   1  13
HETATM   13  C   UNL     1      -9.469  11.971  68.029  1.00  0.00    -0.199 A  
HETATM   14  C   UNL     1      -7.590  10.586  69.649  1.00  0.00    -0.134 A  
HETATM   15  C   UNL     1      -6.544   9.813  70.409  1.00  0.00    -0.114 C  
HETATM   16  C   UNL     1      -8.961  10.279  69.752  1.00  0.00    -0.079 A  
HETATM   17  C   UNL     1      -8.105  12.274  67.963  1.00  0.00    -0.156 A  
HETATM   18  C   UNL     1      -7.182  11.592  68.761  1.00  0.00    -0.112 A  
HETATM   19  C   UNL     1      -9.884  10.998  68.959  1.00  0.00    -0.165 A  
BRANCH  16  20
HETATM   20  C   UNL     1      -9.460   9.118  70.592  1.00  0.00    -0.316 C  
BRANCH  20  21
HETATM   21  C   UNL     1      -9.851   7.852  69.880  1.00  0.00    -0.182 A  
HETATM   22  C   UNL     1     -11.069   7.214  69.761  1.00  0.00    -0.239 A  
HETATM   23  C   UNL     1     -11.048   6.190  68.757  1.00  0.00    -0.398 A  
HETATM   24  C   UNL     1      -9.819   6.077  68.125  1.00  0.00    -0.131 A  
HETATM   25  S   UNL     1      -8.660   7.057  68.934  1.00  0.00    -0.128 SA 
BRANCH  24  26
HETATM   26  C   UNL     1      -9.437   5.294  66.927  1.00  0.00    -0.138 A  
HETATM   27  C   UNL     1      -8.087   5.021  66.637  1.00  0.00    -0.108 A  
HETATM   28  C   UNL     1      -7.715   4.348  65.470  1.00  0.00    -0.086 A  
HETATM   29  C   UNL     1      -8.691   3.954  64.568  1.00  0.00    -0.120 A  
HETATM   30  F   UNL     1      -8.332   3.336  63.435  1.00  0.00    -0.085 F  
HETATM   31  C   UNL     1     -10.032   4.201  64.826  1.00  0.00    -0.196 A  
HETATM   32  C   UNL     1     -10.405   4.865  66.001  1.00  0.00    -0.307 A  
ENDBRANCH  24  26
ENDBRANCH  20  21
ENDBRANCH  16  20
ENDBRANCH   1  13
BRANCH   4  33
HETATM   33  C   UNL     1     -11.378  11.628  63.620  1.00  0.00    -0.394 C  
HETATM   34  O   UNL     1     -12.658  11.647  62.980  1.00  0.00    -0.950 OA 
HETATM   35  H   UNL     1     -12.629  11.129  62.185  1.00  0.00     0.000 HD 
ENDBRANCH   4  33
TORSDOF 5
ENDMDL
MODEL       81
REMARK 921   NORMALIZED FREE ENERGY PREDICTED BY IDOCK:   -6.69 KCAL/MOL
REMARK 922        TOTAL FREE ENERGY PREDICTED BY IDOCK:   -9.25 KCAL/MOL
REMARK 923 INTER-LIGAND FREE ENERGY PREDICTED BY IDOCK:   -8.96 KCAL/MOL
REMARK 924 INTRA-LIGAND FREE ENERGY PREDICTED BY IDOCK:   -0.29 KCAL/MOL
REMARK 927      BINDING AFFINITY PREDICTED BY RF-SCORE:    0.00 PKD
ROOT
HETATM    1  C   UNL     1     -12.204  10.405  70.721  1.00  0.00    -0.359 C  
HETATM    2  O   UNL     1     -11.244  11.268  70.073  1.00  0.00    -0.238 OA 
HETATM    3  H   UNL     1     -14.301  10.701  73.223  1.00  0.00     0.000 HD 
HETATM    4  C   UNL     1     -11.820  12.489  69.601  1.00  0.00    -0.314 C  
HETATM    5  O   UNL     1     -13.906  10.276  72.471  1.00  0.00    -0.042 OA 
HETATM    6  C   UNL     1     -12.365  13.313  70.776  1.00  0.00    -0.344 C  
HETATM    7  H   UNL     1     -14.489  12.693  73.157  1.00  0.00     0.000 HD 
HETATM    8  O   UNL     1     -13.847  13.210  72.686  1.00  0.00    -0.691 OA 
HETATM    9  O   UNL     1     -13.024  14.517  70.356  1.00  0.00    -0.492 OA 
HETATM   10  C   UNL     1     -13.399  12.479  71.534  1.00  0.00    -0.089 C  
HETATM   11  H   UNL     1     -13.361  15.028  71.083  1.00  0.00     0.000 HD 
HETATM   12  C   UNL     1     -12.847  11.097  71.946  1.00  0.00    -0.294 C  
ENDROOT
BRANCH   1  13
HETATM   13  C   UNL     1     -11.523   9.084  71.068  1.00  0.00    -0.358 A  
HETATM   14  C   UNL     1     -10.113   6.719  71.771  1.00  0.00    -0.195 A  
HETATM   15  C   UNL     1      -9.328   5.522  72.239  1.00  0.00    -0.159 C  
HETATM   16  C   UNL     1      -9.816   7.375  70.559  1.00  0.00    -0.180 A  
HETATM   17  C   UNL     1     -11.816   8.401  72.252  1.00  0.00    -0.456 A  
HETATM   18  C   UNL     1     -11.121   7.237  72.597  1.00  0.00    -0.355 A  
HETATM   19  C   UNL     1     -10.548   8.534  70.213  1.00  0.00    -0.238 A  
BRANCH  16  20
HETATM   20  C   UNL     1      -8.654   6.948  69.682  1.00  0.00    -0.134 C  
BRANCH  20  21
HETATM   21  C   UNL     1      -8.651   7.405  68.248  1.00  0.00    -0.124 A  
HETATM   22  C   UNL     1      -8.639   6.693  67.067  1.00  0.00    -0.113 A  
HETATM   23  C   UNL     1      -8.929   7.521  65.933  1.00  0.00    -0.128 A  
HETATM   24  C   UNL     1      -9.167   8.843  66.275  1.00  0.00    -0.207 A  
HETATM   25  S   UNL     1      -8.798   9.086  67.937  1.00  0.00    -0.128 SA 
BRANCH  24  26
HETATM   26  C   UNL     1      -9.679   9.959  65.447  1.00  0.00    -0.375 A  
HETATM   27  C   UNL     1     -10.524  10.943  65.995  1.00  0.00    -0.287 A  
HETATM   28  C   UNL     1     -11.071  11.957  65.203  1.00  0.00    -0.360 A  
HETATM   29  C   UNL     1     -10.792  11.987  63.845  1.00  0.00    -0.399 A  
HETATM   30  F   UNL     1     -11.341  12.941  63.081  1.00  0.00    -0.500 F  
HETATM   31  C   UNL     1      -9.957  11.038  63.274  1.00  0.00    -0.414 A  
HETATM   32  C   UNL     1      -9.400  10.029  64.070  1.00  0.00    -0.324 A  
ENDBRANCH  24  26
ENDBRANCH  20  21
ENDBRANCH  16  20
ENDBRANCH   1  13
BRANCH   4  33
HETATM   33  C   UNL     1     -10.762  13.274  68.817  1.00  0.00    -0.227 C  
HETATM   34  O   UNL     1     -10.263  14.350  69.616  1.00  0.00    -0.433 OA 
HETATM   35  H   UNL     1      -9.607  14.837  69.131  1.00  0.00     0.000 HD 
ENDBRANCH   4  33
TORSDOF 5
ENDMDL
MODEL       82
REMARK 921   NORMALIZED FREE ENERGY PREDICTED BY IDOCK:   -6.67 KCAL/MOL
REMARK 922        TOTAL FREE ENERGY PREDICTED BY IDOCK:   -9.22 KCAL/MOL
REMARK 923 INTER-LIGAND FREE ENERGY PREDICTED BY IDOCK:   -8.31 KCAL/MOL
REMARK 924 INTRA-LIGAND FREE ENERGY PREDICTED BY IDOCK:   -0.92 KCAL/MOL
REMARK 927      BINDING AFFINITY PREDICTED BY RF-SCORE:    0.00 PKD
ROOT
HETATM    1  C   UNL     1     -11.684  13.117  69.443  1.00  0.00    -0.327 C  
HETATM    2  O   UNL     1     -12.394  11.948  69.904  1.00  0.00    -0.201 OA 
HETATM    3  H   UNL     1     -12.095  16.359  69.704  1.00  0.00     0.000 HD 
HETATM    4  C   UNL     1     -12.580  11.930  71.321  1.00  0.00    -0.277 C  
HETATM    5  O   UNL     1     -11.631  15.561  69.479  1.00  0.00    -0.302 OA 
HETATM    6  C   UNL     1     -13.443  13.119  71.764  1.00  0.00    -0.335 C  
HETATM    7  H   UNL     1     -13.199  16.337  71.373  1.00  0.00     0.000 HD 
HETATM    8  O   UNL     1     -13.617  15.530  71.650  1.00  0.00    -0.474 OA 
HETATM    9  O   UNL     1     -13.602  13.196  73.189  1.00  0.00    -0.473 OA 
HETATM   10  C   UNL     1     -12.770  14.418  71.317  1.00  0.00    -0.344 C  
HETATM   11  H   UNL     1     -14.136  13.932  73.463  1.00  0.00     0.000 HD 
HETATM   12  C   UNL     1     -12.438  14.416  69.810  1.00  0.00    -0.217 C  
ENDROOT
BRANCH   1  13
HETATM   13  C   UNL     1     -11.424  12.978  67.945  1.00  0.00    -0.352 A  
HETATM   14  C   UNL     1     -10.983  12.542  65.172  1.00  0.00    -0.332 A  
HETATM   15  C   UNL     1     -10.843  12.241  63.703  1.00  0.00    -0.522 C  
HETATM   16  C   UNL     1      -9.987  12.183  66.102  1.00  0.00    -0.253 A  
HETATM   17  C   UNL     1     -12.386  13.348  67.000  1.00  0.00    -0.231 A  
HETATM   18  C   UNL     1     -12.167  13.133  65.636  1.00  0.00    -0.521 A  
HETATM   19  C   UNL     1     -10.213  12.433  67.475  1.00  0.00    -0.214 A  
BRANCH  16  20
HETATM   20  C   UNL     1      -8.740  11.423  65.687  1.00  0.00    -0.016 C  
BRANCH  20  21
HETATM   21  C   UNL     1      -8.864   9.942  65.457  1.00  0.00    -0.159 A  
HETATM   22  C   UNL     1      -8.304   9.120  64.501  1.00  0.00    -0.175 A  
HETATM   23  C   UNL     1      -8.462   7.731  64.821  1.00  0.00     0.015 A  
HETATM   24  C   UNL     1      -9.129   7.524  66.018  1.00  0.00    -0.094 A  
HETATM   25  S   UNL     1      -9.751   9.019  66.599  1.00  0.00    -0.252 SA 
BRANCH  24  26
HETATM   26  C   UNL     1      -9.326   6.276  66.790  1.00  0.00    -0.158 A  
HETATM   27  C   UNL     1      -9.310   6.282  68.198  1.00  0.00    -0.115 A  
HETATM   28  C   UNL     1      -9.420   5.098  68.933  1.00  0.00    -0.184 A  
HETATM   29  C   UNL     1      -9.529   3.888  68.265  1.00  0.00    -0.151 A  
HETATM   30  F   UNL     1      -9.604   2.751  68.969  1.00  0.00    -0.223 F  
HETATM   31  C   UNL     1      -9.556   3.846  66.878  1.00  0.00    -0.226 A  
HETATM   32  C   UNL     1      -9.457   5.035  66.143  1.00  0.00    -0.166 A  
ENDBRANCH  24  26
ENDBRANCH  20  21
ENDBRANCH  16  20
ENDBRANCH   1  13
BRANCH   4  33
HETATM   33  C   UNL     1     -13.221  10.598  71.728  1.00  0.00    -0.421 C  
HETATM   34  O   UNL     1     -13.525   9.828  70.561  1.00  0.00    -0.606 OA 
HETATM   35  H   UNL     1     -13.922   9.002  70.812  1.00  0.00     0.000 HD 
ENDBRANCH   4  33
TORSDOF 5
ENDMDL
MODEL       83
REMARK 921   NORMALIZED FREE ENERGY PREDICTED BY IDOCK:   -6.66 KCAL/MOL
REMARK 922        TOTAL FREE ENERGY PREDICTED BY IDOCK:   -9.21 KCAL/MOL
REMARK 923 INTER-LIGAND FREE ENERGY PREDICTED BY IDOCK:   -8.14 KCAL/MOL
REMARK 924 INTRA-LIGAND FREE ENERGY PREDICTED BY IDOCK:   -1.07 KCAL/MOL
REMARK 927      BINDING AFFINITY PREDICTED BY RF-SCORE:    0.00 PKD
ROOT
HETATM    1  C   UNL     1     -10.848  12.886  68.354  1.00  0.00    -0.254 C  
HETATM    2  O   UNL     1     -10.553  14.139  69.009  1.00  0.00    -0.246 OA 
HETATM    3  H   UNL     1     -12.445  11.985  65.637  1.00  0.00     0.000 HD 
HETATM    4  C   UNL     1      -9.874  15.066  68.159  1.00  0.00    -0.216 C  
HETATM    5  O   UNL     1     -11.892  11.855  66.399  1.00  0.00    -0.561 OA 
HETATM    6  C   UNL     1     -10.758  15.443  66.962  1.00  0.00    -0.321 C  
HETATM    7  H   UNL     1     -12.259  13.716  64.652  1.00  0.00     0.000 HD 
HETATM    8  O   UNL     1     -12.028  14.506  65.128  1.00  0.00    -0.369 OA 
HETATM    9  O   UNL     1     -10.099  16.315  66.032  1.00  0.00    -0.315 OA 
HETATM   10  C   UNL     1     -11.129  14.171  66.196  1.00  0.00    -0.312 C  
HETATM   11  H   UNL     1     -10.646  16.548  65.291  1.00  0.00     0.000 HD 
HETATM   12  C   UNL     1     -11.748  13.096  67.115  1.00  0.00    -0.377 C  
ENDROOT
BRANCH   1  13
HETATM   13  C   UNL     1     -11.449  11.926  69.377  1.00  0.00    -0.366 A  
HETATM   14  C   UNL     1     -12.416  10.152  71.375  1.00  0.00    -0.524 A  
HETATM   15  C   UNL     1     -12.878   9.281  72.514  1.00  0.00    -0.351 C  
HETATM   16  C   UNL     1     -11.533   9.675  70.386  1.00  0.00    -0.325 A  
HETATM   17  C   UNL     1     -12.346  12.368  70.355  1.00  0.00    -0.307 A  
HETATM   18  C   UNL     1     -12.821  11.494  71.337  1.00  0.00    -0.489 A  
HETATM   19  C   UNL     1     -11.085  10.565  69.384  1.00  0.00    -0.310 A  
BRANCH  16  20
HETATM   20  C   UNL     1     -10.952   8.273  70.440  1.00  0.00    -0.244 C  
BRANCH  20  21
HETATM   21  C   UNL     1     -10.075   7.832  69.300  1.00  0.00    -0.199 A  
HETATM   22  C   UNL     1      -8.704   7.848  69.149  1.00  0.00    -0.138 A  
HETATM   23  C   UNL     1      -8.275   7.071  68.022  1.00  0.00    -0.119 A  
HETATM   24  C   UNL     1      -9.326   6.473  67.345  1.00  0.00    -0.121 A  
HETATM   25  S   UNL     1     -10.820   7.064  67.958  1.00  0.00    -0.125 SA 
BRANCH  24  26
HETATM   26  C   UNL     1      -9.304   5.458  66.268  1.00  0.00    -0.163 A  
HETATM   27  C   UNL     1      -8.110   5.138  65.594  1.00  0.00    -0.115 A  
HETATM   28  C   UNL     1      -8.095   4.236  64.526  1.00  0.00    -0.095 A  
HETATM   29  C   UNL     1      -9.282   3.655  64.107  1.00  0.00    -0.132 A  
HETATM   30  F   UNL     1      -9.272   2.813  63.064  1.00  0.00    -0.094 F  
HETATM   31  C   UNL     1     -10.476   3.941  64.753  1.00  0.00    -0.164 A  
HETATM   32  C   UNL     1     -10.488   4.837  65.830  1.00  0.00    -0.313 A  
ENDBRANCH  24  26
ENDBRANCH  20  21
ENDBRANCH  16  20
ENDBRANCH   1  13
BRANCH   4  33
HETATM   33  C   UNL     1      -9.488  16.306  68.974  1.00  0.00    -0.258 C  
HETATM   34  O   UNL     1      -8.305  16.898  68.430  1.00  0.00    -0.218 OA 
HETATM   35  H   UNL     1      -8.066  17.666  68.935  1.00  0.00     0.000 HD 
ENDBRANCH   4  33
TORSDOF 5
ENDMDL
MODEL       84
REMARK 921   NORMALIZED FREE ENERGY PREDICTED BY IDOCK:   -6.65 KCAL/MOL
REMARK 922        TOTAL FREE ENERGY PREDICTED BY IDOCK:   -9.19 KCAL/MOL
REMARK 923 INTER-LIGAND FREE ENERGY PREDICTED BY IDOCK:   -8.09 KCAL/MOL
REMARK 924 INTRA-LIGAND FREE ENERGY PREDICTED BY IDOCK:   -1.09 KCAL/MOL
REMARK 927      BINDING AFFINITY PREDICTED BY RF-SCORE:    0.00 PKD
ROOT
HETATM    1  C   UNL     1     -10.162  16.629  66.192  1.00  0.00    -0.348 C  
HETATM    2  O   UNL     1      -8.765  16.872  65.916  1.00  0.00    -0.516 OA 
HETATM    3  H   UNL     1     -11.991  16.304  68.892  1.00  0.00     0.000 HD 
HETATM    4  C   UNL     1      -8.272  18.062  66.537  1.00  0.00    -0.271 C  
HETATM    5  O   UNL     1     -11.834  16.397  67.960  1.00  0.00     0.040 OA 
HETATM    6  C   UNL     1      -8.360  17.945  68.065  1.00  0.00    -0.258 C  
HETATM    7  H   UNL     1     -10.793  17.322  70.130  1.00  0.00     0.000 HD 
HETATM    8  O   UNL     1      -9.890  17.485  69.883  1.00  0.00     0.415 OA 
HETATM    9  O   UNL     1      -7.949  19.141  68.743  1.00  0.00    -0.345 OA 
HETATM   10  C   UNL     1      -9.815  17.683  68.462  1.00  0.00    -0.346 C  
HETATM   11  H   UNL     1      -8.003  19.069  69.688  1.00  0.00     0.000 HD 
HETATM   12  C   UNL     1     -10.419  16.479  67.709  1.00  0.00    -0.308 C  
ENDROOT
BRANCH   1  13
HETATM   13  C   UNL     1     -10.620  15.419  65.383  1.00  0.00    -0.430 A  
HETATM   14  C   UNL     1     -11.558  13.105  64.026  1.00  0.00    -0.481 A  
HETATM   15  C   UNL     1     -12.156  11.892  63.364  1.00  0.00    -0.539 C  
HETATM   16  C   UNL     1     -10.428  13.013  64.864  1.00  0.00    -0.358 A  
HETATM   17  C   UNL     1     -11.724  15.488  64.527  1.00  0.00    -0.253 A  
HETATM   18  C   UNL     1     -12.184  14.349  63.860  1.00  0.00    -0.178 A  
HETATM   19  C   UNL     1      -9.960  14.181  65.508  1.00  0.00    -0.323 A  
BRANCH  16  20
HETATM   20  C   UNL     1      -9.781  11.680  65.192  1.00  0.00    -0.245 C  
BRANCH  20  21
HETATM   21  C   UNL     1     -10.101  11.052  66.520  1.00  0.00    -0.226 A  
HETATM   22  C   UNL     1     -11.167  11.233  67.378  1.00  0.00    -0.370 A  
HETATM   23  C   UNL     1     -11.218  10.224  68.397  1.00  0.00    -0.284 A  
HETATM   24  C   UNL     1     -10.198   9.292  68.287  1.00  0.00    -0.201 A  
HETATM   25  S   UNL     1      -9.072   9.804  67.092  1.00  0.00    -0.135 SA 
BRANCH  24  26
HETATM   26  C   UNL     1     -10.004   8.011  69.004  1.00  0.00    -0.186 A  
HETATM   27  C   UNL     1     -10.392   6.787  68.425  1.00  0.00    -0.214 A  
HETATM   28  C   UNL     1     -10.281   5.583  69.126  1.00  0.00    -0.309 A  
HETATM   29  C   UNL     1      -9.795   5.591  70.424  1.00  0.00    -0.197 A  
HETATM   30  F   UNL     1      -9.717   4.439  71.106  1.00  0.00    -0.201 F  
HETATM   31  C   UNL     1      -9.396   6.777  71.023  1.00  0.00    -0.160 A  
HETATM   32  C   UNL     1      -9.497   7.983  70.316  1.00  0.00    -0.167 A  
ENDBRANCH  24  26
ENDBRANCH  20  21
ENDBRANCH  16  20
ENDBRANCH   1  13
BRANCH   4  33
HETATM   33  C   UNL     1      -6.828  18.305  66.083  1.00  0.00    -0.256 C  
HETATM   34  O   UNL     1      -6.821  19.046  64.859  1.00  0.00    -0.446 OA 
HETATM   35  H   UNL     1      -5.927  19.197  64.577  1.00  0.00     0.000 HD 
ENDBRANCH   4  33
TORSDOF 5
ENDMDL
MODEL       85
REMARK 921   NORMALIZED FREE ENERGY PREDICTED BY IDOCK:   -6.63 KCAL/MOL
REMARK 922        TOTAL FREE ENERGY PREDICTED BY IDOCK:   -9.17 KCAL/MOL
REMARK 923 INTER-LIGAND FREE ENERGY PREDICTED BY IDOCK:   -8.16 KCAL/MOL
REMARK 924 INTRA-LIGAND FREE ENERGY PREDICTED BY IDOCK:   -1.01 KCAL/MOL
REMARK 927      BINDING AFFINITY PREDICTED BY RF-SCORE:    0.00 PKD
ROOT
HETATM    1  C   UNL     1     -10.716   7.608  69.393  1.00  0.00    -0.184 C  
HETATM    2  O   UNL     1     -10.855   8.948  69.914  1.00  0.00    -0.229 OA 
HETATM    3  H   UNL     1     -10.658   4.592  70.676  1.00  0.00     0.000 HD 
HETATM    4  C   UNL     1     -12.044   9.125  70.689  1.00  0.00    -0.068 C  
HETATM    5  O   UNL     1     -10.689   5.234  69.977  1.00  0.00    -0.287 OA 
HETATM    6  C   UNL     1     -12.018   8.218  71.927  1.00  0.00    -0.330 C  
HETATM    7  H   UNL     1     -11.665   5.015  72.353  1.00  0.00     0.000 HD 
HETATM    8  O   UNL     1     -11.756   5.918  72.632  1.00  0.00    -0.280 OA 
HETATM    9  O   UNL     1     -13.222   8.297  72.704  1.00  0.00    -0.582 OA 
HETATM   10  C   UNL     1     -11.871   6.763  71.476  1.00  0.00    -0.333 C  
HETATM   11  H   UNL     1     -13.205   7.737  73.471  1.00  0.00     0.000 HD 
HETATM   12  C   UNL     1     -10.667   6.563  70.531  1.00  0.00    -0.254 C  
ENDROOT
BRANCH   1  13
HETATM   13  C   UNL     1      -9.494   7.559  68.480  1.00  0.00    -0.146 A  
HETATM   14  C   UNL     1      -7.207   7.647  66.797  1.00  0.00    -0.088 A  
HETATM   15  C   UNL     1      -5.951   7.775  65.976  1.00  0.00    -0.038 C  
HETATM   16  C   UNL     1      -8.474   7.971  66.271  1.00  0.00    -0.138 A  
HETATM   17  C   UNL     1      -8.230   7.218  68.971  1.00  0.00    -0.125 A  
HETATM   18  C   UNL     1      -7.105   7.261  68.141  1.00  0.00    -0.081 A  
HETATM   19  C   UNL     1      -9.604   7.895  67.117  1.00  0.00    -0.222 A  
BRANCH  16  20
HETATM   20  C   UNL     1      -8.641   8.520  64.866  1.00  0.00    -0.135 C  
BRANCH  20  21
HETATM   21  C   UNL     1      -9.161   9.924  64.717  1.00  0.00    -0.237 A  
HETATM   22  C   UNL     1      -9.913  10.514  63.723  1.00  0.00    -0.324 A  
HETATM   23  C   UNL     1     -10.426  11.793  64.120  1.00  0.00    -0.394 A  
HETATM   24  C   UNL     1     -10.063  12.145  65.410  1.00  0.00    -0.255 A  
HETATM   25  S   UNL     1      -8.915  11.018  66.016  1.00  0.00    -0.200 SA 
BRANCH  24  26
HETATM   26  C   UNL     1     -10.532  13.269  66.254  1.00  0.00    -0.289 A  
HETATM   27  C   UNL     1     -10.035  14.573  66.069  1.00  0.00    -0.343 A  
HETATM   28  C   UNL     1     -10.416  15.624  66.909  1.00  0.00    -0.307 A  
HETATM   29  C   UNL     1     -11.287  15.376  67.958  1.00  0.00    -0.341 A  
HETATM   30  F   UNL     1     -11.629  16.377  68.781  1.00  0.00    -0.345 F  
HETATM   31  C   UNL     1     -11.802  14.105  68.165  1.00  0.00    -0.387 A  
HETATM   32  C   UNL     1     -11.429  13.055  67.316  1.00  0.00    -0.380 A  
ENDBRANCH  24  26
ENDBRANCH  20  21
ENDBRANCH  16  20
ENDBRANCH   1  13
BRANCH   4  33
HETATM   33  C   UNL     1     -12.170  10.601  71.085  1.00  0.00    -0.374 C  
HETATM   34  O   UNL     1     -11.197  11.379  70.381  1.00  0.00    -0.463 OA 
HETATM   35  H   UNL     1     -11.275  12.293  70.627  1.00  0.00     0.000 HD 
ENDBRANCH   4  33
TORSDOF 5
ENDMDL
MODEL       86
REMARK 921   NORMALIZED FREE ENERGY PREDICTED BY IDOCK:   -6.62 KCAL/MOL
REMARK 922        TOTAL FREE ENERGY PREDICTED BY IDOCK:   -9.15 KCAL/MOL
REMARK 923 INTER-LIGAND FREE ENERGY PREDICTED BY IDOCK:   -8.38 KCAL/MOL
REMARK 924 INTRA-LIGAND FREE ENERGY PREDICTED BY IDOCK:   -0.77 KCAL/MOL
REMARK 927      BINDING AFFINITY PREDICTED BY RF-SCORE:    0.00 PKD
ROOT
HETATM    1  C   UNL     1     -10.785  11.639  67.841  1.00  0.00    -0.202 C  
HETATM    2  O   UNL     1     -11.846  12.054  66.954  1.00  0.00    -0.580 OA 
HETATM    3  H   UNL     1      -7.976   9.980  67.514  1.00  0.00     0.000 HD 
HETATM    4  C   UNL     1     -11.378  12.831  65.849  1.00  0.00    -0.324 C  
HETATM    5  O   UNL     1      -8.619  10.511  67.969  1.00  0.00    -0.118 OA 
HETATM    6  C   UNL     1     -10.431  12.000  64.973  1.00  0.00    -0.287 C  
HETATM    7  H   UNL     1      -7.694  10.350  65.567  1.00  0.00     0.000 HD 
HETATM    8  O   UNL     1      -8.419  10.656  65.036  1.00  0.00    -0.177 OA 
HETATM    9  O   UNL     1      -9.868  12.752  63.887  1.00  0.00    -0.670 OA 
HETATM   10  C   UNL     1      -9.262  11.508  65.829  1.00  0.00    -0.196 C  
HETATM   11  H   UNL     1      -9.283  12.238  63.344  1.00  0.00     0.000 HD 
HETATM   12  C   UNL     1      -9.738  10.774  67.101  1.00  0.00    -0.170 C  
ENDROOT
BRANCH   1  13
HETATM   13  C   UNL     1     -11.399  10.934  69.048  1.00  0.00    -0.348 A  
HETATM   14  C   UNL     1     -12.385   9.646  71.380  1.00  0.00    -0.468 A  
HETATM   15  C   UNL     1     -12.850   9.043  72.680  1.00  0.00    -0.315 C  
HETATM   16  C   UNL     1     -11.565   8.933  70.483  1.00  0.00    -0.189 A  
HETATM   17  C   UNL     1     -12.234  11.611  69.942  1.00  0.00    -0.310 A  
HETATM   18  C   UNL     1     -12.719  10.976  71.089  1.00  0.00    -0.521 A  
HETATM   19  C   UNL     1     -11.107   9.582  69.314  1.00  0.00    -0.109 A  
BRANCH  16  20
HETATM   20  C   UNL     1     -11.058   7.537  70.798  1.00  0.00    -0.280 C  
BRANCH  20  21
HETATM   21  C   UNL     1     -10.148   6.879  69.797  1.00  0.00    -0.184 A  
HETATM   22  C   UNL     1      -8.808   6.558  69.861  1.00  0.00    -0.143 A  
HETATM   23  C   UNL     1      -8.410   5.683  68.796  1.00  0.00    -0.103 A  
HETATM   24  C   UNL     1      -9.457   5.348  67.951  1.00  0.00    -0.120 A  
HETATM   25  S   UNL     1     -10.839   6.294  68.340  1.00  0.00    -0.320 SA 
BRANCH  24  26
HETATM   26  C   UNL     1      -9.514   4.341  66.867  1.00  0.00    -0.205 A  
HETATM   27  C   UNL     1      -8.985   3.048  67.046  1.00  0.00    -0.176 A  
HETATM   28  C   UNL     1      -8.969   2.117  66.003  1.00  0.00    -0.103 A  
HETATM   29  C   UNL     1      -9.467   2.476  64.761  1.00  0.00    -0.102 A  
HETATM   30  F   UNL     1      -9.423   1.593  63.753  1.00  0.00    -0.096 F  
HETATM   31  C   UNL     1     -10.002   3.738  64.551  1.00  0.00    -0.201 A  
HETATM   32  C   UNL     1     -10.029   4.667  65.599  1.00  0.00    -0.228 A  
ENDBRANCH  24  26
ENDBRANCH  20  21
ENDBRANCH  16  20
ENDBRANCH   1  13
BRANCH   4  33
HETATM   33  C   UNL     1     -12.581  13.334  65.043  1.00  0.00    -0.423 C  
HETATM   34  O   UNL     1     -12.801  12.483  63.914  1.00  0.00    -0.714 OA 
HETATM   35  H   UNL     1     -13.546  12.794  63.414  1.00  0.00     0.000 HD 
ENDBRANCH   4  33
TORSDOF 5
ENDMDL
MODEL       87
REMARK 921   NORMALIZED FREE ENERGY PREDICTED BY IDOCK:   -6.61 KCAL/MOL
REMARK 922        TOTAL FREE ENERGY PREDICTED BY IDOCK:   -9.14 KCAL/MOL
REMARK 923 INTER-LIGAND FREE ENERGY PREDICTED BY IDOCK:   -8.41 KCAL/MOL
REMARK 924 INTRA-LIGAND FREE ENERGY PREDICTED BY IDOCK:   -0.74 KCAL/MOL
REMARK 927      BINDING AFFINITY PREDICTED BY RF-SCORE:    0.00 PKD
ROOT
HETATM    1  C   UNL     1      -9.501  15.923  69.004  1.00  0.00    -0.247 C  
HETATM    2  O   UNL     1      -8.276  15.686  69.730  1.00  0.00    -0.164 OA 
HETATM    3  H   UNL     1     -10.957  18.533  67.658  1.00  0.00     0.000 HD 
HETATM    4  C   UNL     1      -7.113  16.116  69.018  1.00  0.00    -0.187 C  
HETATM    5  O   UNL     1     -10.838  17.609  67.844  1.00  0.00    -0.374 OA 
HETATM    6  C   UNL     1      -7.154  17.634  68.791  1.00  0.00    -0.263 C  
HETATM    7  H   UNL     1      -9.308  19.638  67.409  1.00  0.00     0.000 HD 
HETATM    8  O   UNL     1      -8.517  19.416  67.886  1.00  0.00    -0.296 OA 
HETATM    9  O   UNL     1      -6.047  18.113  68.013  1.00  0.00    -0.169 OA 
HETATM   10  C   UNL     1      -8.428  17.989  68.023  1.00  0.00    -0.261 C  
HETATM   11  H   UNL     1      -6.072  19.052  67.874  1.00  0.00     0.000 HD 
HETATM   12  C   UNL     1      -9.696  17.426  68.701  1.00  0.00    -0.308 C  
ENDROOT
BRANCH   1  13
HETATM   13  C   UNL     1     -10.662  15.314  69.786  1.00  0.00    -0.295 A  
HETATM   14  C   UNL     1     -12.705  14.068  71.320  1.00  0.00    -0.439 A  
HETATM   15  C   UNL     1     -13.712  13.405  72.222  1.00  0.00    -0.705 C  
HETATM   16  C   UNL     1     -12.233  13.445  70.147  1.00  0.00    -0.385 A  
HETATM   17  C   UNL     1     -11.165  15.924  70.940  1.00  0.00    -0.389 A  
HETATM   18  C   UNL     1     -12.170  15.310  71.693  1.00  0.00    -0.433 A  
HETATM   19  C   UNL     1     -11.237  14.093  69.382  1.00  0.00    -0.298 A  
BRANCH  16  20
HETATM   20  C   UNL     1     -12.671  12.046  69.753  1.00  0.00     0.383 C  
BRANCH  20  21
HETATM   21  C   UNL     1     -12.119  10.889  70.541  1.00  0.00    -0.371 A  
HETATM   22  C   UNL     1     -12.563  10.283  71.699  1.00  0.00    -0.534 A  
HETATM   23  C   UNL     1     -11.898   9.037  71.946  1.00  0.00    -0.447 A  
HETATM   24  C   UNL     1     -10.971   8.715  70.967  1.00  0.00    -0.260 A  
HETATM   25  S   UNL     1     -10.767  10.049  69.902  1.00  0.00    -0.305 SA 
BRANCH  24  26
HETATM   26  C   UNL     1     -10.224   7.455  70.747  1.00  0.00    -0.200 A  
HETATM   27  C   UNL     1     -10.879   6.290  70.301  1.00  0.00    -0.366 A  
HETATM   28  C   UNL     1     -10.195   5.079  70.162  1.00  0.00    -0.329 A  
HETATM   29  C   UNL     1      -8.849   5.014  70.487  1.00  0.00    -0.121 A  
HETATM   30  F   UNL     1      -8.202   3.845  70.383  1.00  0.00    -0.056 F  
HETATM   31  C   UNL     1      -8.171   6.143  70.922  1.00  0.00    -0.126 A  
HETATM   32  C   UNL     1      -8.854   7.360  71.050  1.00  0.00    -0.143 A  
ENDBRANCH  24  26
ENDBRANCH  20  21
ENDBRANCH  16  20
ENDBRANCH   1  13
BRANCH   4  33
HETATM   33  C   UNL     1      -5.862  15.706  69.803  1.00  0.00    -0.145 C  
HETATM   34  O   UNL     1      -6.170  14.615  70.676  1.00  0.00    -0.175 OA 
HETATM   35  H   UNL     1      -5.395  14.361  71.162  1.00  0.00     0.000 HD 
ENDBRANCH   4  33
TORSDOF 5
ENDMDL
MODEL       88
REMARK 921   NORMALIZED FREE ENERGY PREDICTED BY IDOCK:   -6.61 KCAL/MOL
REMARK 922        TOTAL FREE ENERGY PREDICTED BY IDOCK:   -9.14 KCAL/MOL
REMARK 923 INTER-LIGAND FREE ENERGY PREDICTED BY IDOCK:   -8.22 KCAL/MOL
REMARK 924 INTRA-LIGAND FREE ENERGY PREDICTED BY IDOCK:   -0.93 KCAL/MOL
REMARK 927      BINDING AFFINITY PREDICTED BY RF-SCORE:    0.00 PKD
ROOT
HETATM    1  C   UNL     1     -11.410   9.384  69.476  1.00  0.00     0.057 C  
HETATM    2  O   UNL     1     -11.731  10.533  70.291  1.00  0.00    -0.278 OA 
HETATM    3  H   UNL     1     -10.580   6.266  70.051  1.00  0.00     0.000 HD 
HETATM    4  C   UNL     1     -12.806  10.289  71.200  1.00  0.00    -0.408 C  
HETATM    5  O   UNL     1     -10.836   7.008  69.517  1.00  0.00    -0.236 OA 
HETATM    6  C   UNL     1     -12.425   9.188  72.199  1.00  0.00    -0.366 C  
HETATM    7  H   UNL     1     -11.397   6.122  71.872  1.00  0.00     0.000 HD 
HETATM    8  O   UNL     1     -11.621   6.911  72.351  1.00  0.00    -0.270 OA 
HETATM    9  O   UNL     1     -13.496   8.847  73.092  1.00  0.00    -0.968 OA 
HETATM   10  C   UNL     1     -12.064   7.917  71.427  1.00  0.00    -0.307 C  
HETATM   11  H   UNL     1     -13.260   8.166  73.711  1.00  0.00     0.000 HD 
HETATM   12  C   UNL     1     -10.994   8.175  70.345  1.00  0.00    -0.247 C  
ENDROOT
BRANCH   1  13
HETATM   13  C   UNL     1     -10.347   9.784  68.457  1.00  0.00    -0.228 A  
HETATM   14  C   UNL     1      -8.260  10.403  66.630  1.00  0.00    -0.128 A  
HETATM   15  C   UNL     1      -7.133  10.616  65.654  1.00  0.00    -0.076 C  
HETATM   16  C   UNL     1      -8.211  10.909  67.944  1.00  0.00    -0.114 A  
HETATM   17  C   UNL     1     -10.385   9.315  67.140  1.00  0.00    -0.330 A  
HETATM   18  C   UNL     1      -9.358   9.620  66.242  1.00  0.00    -0.238 A  
HETATM   19  C   UNL     1      -9.272  10.614  68.830  1.00  0.00    -0.189 A  
BRANCH  16  20
HETATM   20  C   UNL     1      -6.996  11.652  68.471  1.00  0.00    -0.085 C  
BRANCH  20  21
HETATM   21  C   UNL     1      -6.969  13.149  68.320  1.00  0.00    -0.105 A  
HETATM   22  C   UNL     1      -5.997  13.995  67.828  1.00  0.00    -0.115 A  
HETATM   23  C   UNL     1      -6.497  15.321  67.604  1.00  0.00    -0.188 A  
HETATM   24  C   UNL     1      -7.841  15.453  67.919  1.00  0.00    -0.133 A  
HETATM   25  S   UNL     1      -8.394  14.025  68.701  1.00  0.00    -0.054 SA 
BRANCH  24  26
HETATM   26  C   UNL     1      -8.769  16.577  67.659  1.00  0.00    -0.195 A  
HETATM   27  C   UNL     1      -9.288  16.808  66.370  1.00  0.00    -0.305 A  
HETATM   28  C   UNL     1     -10.105  17.910  66.101  1.00  0.00    -0.322 A  
HETATM   29  C   UNL     1     -10.399  18.805  67.117  1.00  0.00    -0.404 A  
HETATM   30  F   UNL     1     -11.157  19.878  66.852  1.00  0.00    -0.554 F  
HETATM   31  C   UNL     1      -9.911  18.604  68.400  1.00  0.00    -0.428 A  
HETATM   32  C   UNL     1      -9.101  17.494  68.672  1.00  0.00    -0.263 A  
ENDBRANCH  24  26
ENDBRANCH  20  21
ENDBRANCH  16  20
ENDBRANCH   1  13
BRANCH   4  33
HETATM   33  C   UNL     1     -13.159  11.595  71.923  1.00  0.00    -0.385 C  
HETATM   34  O   UNL     1     -12.732  12.714  71.141  1.00  0.00    -0.358 OA 
HETATM   35  H   UNL     1     -12.951  13.523  71.588  1.00  0.00     0.000 HD 
ENDBRANCH   4  33
TORSDOF 5
ENDMDL
MODEL       89
REMARK 921   NORMALIZED FREE ENERGY PREDICTED BY IDOCK:   -6.58 KCAL/MOL
REMARK 922        TOTAL FREE ENERGY PREDICTED BY IDOCK:   -9.10 KCAL/MOL
REMARK 923 INTER-LIGAND FREE ENERGY PREDICTED BY IDOCK:   -7.86 KCAL/MOL
REMARK 924 INTRA-LIGAND FREE ENERGY PREDICTED BY IDOCK:   -1.24 KCAL/MOL
REMARK 927      BINDING AFFINITY PREDICTED BY RF-SCORE:    0.00 PKD
ROOT
HETATM    1  C   UNL     1      -9.624  15.700  68.963  1.00  0.00    -0.243 C  
HETATM    2  O   UNL     1      -8.369  15.546  69.661  1.00  0.00    -0.234 OA 
HETATM    3  H   UNL     1     -11.234  18.191  67.566  1.00  0.00     0.000 HD 
HETATM    4  C   UNL     1      -7.248  16.000  68.900  1.00  0.00    -0.168 C  
HETATM    5  O   UNL     1     -11.067  17.281  67.782  1.00  0.00    -0.257 OA 
HETATM    6  C   UNL     1      -7.364  17.505  68.620  1.00  0.00    -0.256 C  
HETATM    7  H   UNL     1      -9.643  19.358  67.229  1.00  0.00     0.000 HD 
HETATM    8  O   UNL     1      -8.830  19.190  67.691  1.00  0.00    -0.288 OA 
HETATM    9  O   UNL     1      -6.301  18.004  67.793  1.00  0.00    -0.174 OA 
HETATM   10  C   UNL     1      -8.673  17.774  67.877  1.00  0.00    -0.251 C  
HETATM   11  H   UNL     1      -6.373  18.934  67.620  1.00  0.00     0.000 HD 
HETATM   12  C   UNL     1      -9.895  17.181  68.611  1.00  0.00    -0.300 C  
ENDROOT
BRANCH   1  13
HETATM   13  C   UNL     1     -10.734  15.070  69.800  1.00  0.00    -0.260 A  
HETATM   14  C   UNL     1     -12.676  13.787  71.429  1.00  0.00    -0.450 A  
HETATM   15  C   UNL     1     -13.626  13.104  72.378  1.00  0.00    -0.667 C  
HETATM   16  C   UNL     1     -12.257  13.176  70.230  1.00  0.00    -0.376 A  
HETATM   17  C   UNL     1     -11.185  15.666  70.982  1.00  0.00    -0.411 A  
HETATM   18  C   UNL     1     -12.141  15.034  71.782  1.00  0.00    -0.428 A  
HETATM   19  C   UNL     1     -11.311  13.843  69.419  1.00  0.00    -0.311 A  
BRANCH  16  20
HETATM   20  C   UNL     1     -12.695  11.773  69.851  1.00  0.00     0.198 C  
BRANCH  20  21
HETATM   21  C   UNL     1     -11.636  10.707  69.763  1.00  0.00    -0.309 A  
HETATM   22  C   UNL     1     -10.924  10.050  70.745  1.00  0.00    -0.375 A  
HETATM   23  C   UNL     1     -10.223   8.909  70.232  1.00  0.00    -0.230 A  
HETATM   24  C   UNL     1     -10.423   8.715  68.874  1.00  0.00    -0.192 A  
HETATM   25  S   UNL     1     -11.268  10.062  68.217  1.00  0.00    -0.048 SA 
BRANCH  24  26
HETATM   26  C   UNL     1     -10.045   7.571  68.014  1.00  0.00    -0.221 A  
HETATM   27  C   UNL     1      -8.711   7.378  67.606  1.00  0.00    -0.125 A  
HETATM   28  C   UNL     1      -8.359   6.344  66.733  1.00  0.00    -0.111 A  
HETATM   29  C   UNL     1      -9.343   5.499  66.244  1.00  0.00    -0.156 A  
HETATM   30  F   UNL     1      -9.010   4.527  65.384  1.00  0.00    -0.123 F  
HETATM   31  C   UNL     1     -10.666   5.656  66.631  1.00  0.00    -0.339 A  
HETATM   32  C   UNL     1     -11.017   6.686  67.514  1.00  0.00    -0.416 A  
ENDBRANCH  24  26
ENDBRANCH  20  21
ENDBRANCH  16  20
ENDBRANCH   1  13
BRANCH   4  33
HETATM   33  C   UNL     1      -5.958  15.676  69.663  1.00  0.00    -0.137 C  
HETATM   34  O   UNL     1      -5.500  16.838  70.361  1.00  0.00    -0.207 OA 
HETATM   35  H   UNL     1      -4.701  16.637  70.834  1.00  0.00     0.000 HD 
ENDBRANCH   4  33
TORSDOF 5
ENDMDL
MODEL       90
REMARK 921   NORMALIZED FREE ENERGY PREDICTED BY IDOCK:   -6.57 KCAL/MOL
REMARK 922        TOTAL FREE ENERGY PREDICTED BY IDOCK:   -9.09 KCAL/MOL
REMARK 923 INTER-LIGAND FREE ENERGY PREDICTED BY IDOCK:   -8.09 KCAL/MOL
REMARK 924 INTRA-LIGAND FREE ENERGY PREDICTED BY IDOCK:   -1.00 KCAL/MOL
REMARK 927      BINDING AFFINITY PREDICTED BY RF-SCORE:    0.00 PKD
ROOT
HETATM    1  C   UNL     1     -11.049  12.816  68.493  1.00  0.00    -0.266 C  
HETATM    2  O   UNL     1     -10.933  14.073  69.195  1.00  0.00    -0.245 OA 
HETATM    3  H   UNL     1     -12.446  11.816  65.702  1.00  0.00     0.000 HD 
HETATM    4  C   UNL     1     -10.355  15.107  68.395  1.00  0.00    -0.229 C  
HETATM    5  O   UNL     1     -11.901  11.731  66.475  1.00  0.00    -0.550 OA 
HETATM    6  C   UNL     1     -11.247  15.411  67.184  1.00  0.00    -0.256 C  
HETATM    7  H   UNL     1     -12.455  13.590  64.777  1.00  0.00     0.000 HD 
HETATM    8  O   UNL     1     -12.339  14.385  65.283  1.00  0.00    -0.404 OA 
HETATM    9  O   UNL     1     -10.680  16.391  66.302  1.00  0.00    -0.266 OA 
HETATM   10  C   UNL     1     -11.433  14.130  66.368  1.00  0.00    -0.354 C  
HETATM   11  H   UNL     1     -11.232  16.579  65.553  1.00  0.00     0.000 HD 
HETATM   12  C   UNL     1     -11.935  12.954  67.233  1.00  0.00    -0.309 C  
ENDROOT
BRANCH   1  13
HETATM   13  C   UNL     1     -11.551  11.753  69.466  1.00  0.00    -0.398 A  
HETATM   14  C   UNL     1     -12.326   9.783  71.362  1.00  0.00    -0.480 A  
HETATM   15  C   UNL     1     -12.682   8.804  72.449  1.00  0.00    -0.433 C  
HETATM   16  C   UNL     1     -11.507   9.421  70.274  1.00  0.00    -0.223 A  
HETATM   17  C   UNL     1     -12.383  12.081  70.541  1.00  0.00    -0.369 A  
HETATM   18  C   UNL     1     -12.764  11.111  71.473  1.00  0.00    -0.499 A  
HETATM   19  C   UNL     1     -11.155  10.408  69.326  1.00  0.00    -0.303 A  
BRANCH  16  20
HETATM   20  C   UNL     1     -10.891   8.038  70.162  1.00  0.00    -0.242 C  
BRANCH  20  21
HETATM   21  C   UNL     1     -10.300   7.638  68.837  1.00  0.00    -0.212 A  
HETATM   22  C   UNL     1     -10.818   6.890  67.800  1.00  0.00    -0.312 A  
HETATM   23  C   UNL     1     -10.024   6.994  66.610  1.00  0.00    -0.224 A  
HETATM   24  C   UNL     1      -8.926   7.827  66.762  1.00  0.00    -0.139 A  
HETATM   25  S   UNL     1      -8.762   8.270  68.416  1.00  0.00    -0.133 SA 
BRANCH  24  26
HETATM   26  C   UNL     1      -7.982   8.346  65.746  1.00  0.00    -0.108 A  
HETATM   27  C   UNL     1      -6.590   8.219  65.915  1.00  0.00    -0.053 A  
HETATM   28  C   UNL     1      -5.691   8.772  64.998  1.00  0.00    -0.051 A  
HETATM   29  C   UNL     1      -6.177   9.477  63.908  1.00  0.00    -0.098 A  
HETATM   30  F   UNL     1      -5.315  10.033  63.045  1.00  0.00    -0.082 F  
HETATM   31  C   UNL     1      -7.543   9.616  63.707  1.00  0.00    -0.126 A  
HETATM   32  C   UNL     1      -8.443   9.051  64.620  1.00  0.00    -0.194 A  
ENDBRANCH  24  26
ENDBRANCH  20  21
ENDBRANCH  16  20
ENDBRANCH   1  13
BRANCH   4  33
HETATM   33  C   UNL     1     -10.152  16.357  69.260  1.00  0.00    -0.271 C  
HETATM   34  O   UNL     1      -9.246  17.255  68.613  1.00  0.00    -0.265 OA 
HETATM   35  H   UNL     1      -9.120  18.030  69.149  1.00  0.00     0.000 HD 
ENDBRANCH   4  33
TORSDOF 5
ENDMDL
MODEL       91
REMARK 921   NORMALIZED FREE ENERGY PREDICTED BY IDOCK:   -6.57 KCAL/MOL
REMARK 922        TOTAL FREE ENERGY PREDICTED BY IDOCK:   -9.09 KCAL/MOL
REMARK 923 INTER-LIGAND FREE ENERGY PREDICTED BY IDOCK:   -8.38 KCAL/MOL
REMARK 924 INTRA-LIGAND FREE ENERGY PREDICTED BY IDOCK:   -0.71 KCAL/MOL
REMARK 927      BINDING AFFINITY PREDICTED BY RF-SCORE:    0.00 PKD
ROOT
HETATM    1  C   UNL     1      -9.839  16.780  66.797  1.00  0.00    -0.276 C  
HETATM    2  O   UNL     1      -9.383  17.406  68.016  1.00  0.00    -0.262 OA 
HETATM    3  H   UNL     1     -11.724  17.677  64.270  1.00  0.00     0.000 HD 
HETATM    4  C   UNL     1      -8.695  18.638  67.787  1.00  0.00    -0.279 C  
HETATM    5  O   UNL     1     -11.124  17.113  64.745  1.00  0.00    -0.909 OA 
HETATM    6  C   UNL     1      -9.636  19.665  67.141  1.00  0.00    -0.348 C  
HETATM    7  H   UNL     1     -11.465  19.652  64.454  1.00  0.00     0.000 HD 
HETATM    8  O   UNL     1     -11.127  20.009  65.267  1.00  0.00    -0.301 OA 
HETATM    9  O   UNL     1      -8.979  20.900  66.817  1.00  0.00    -0.577 OA 
HETATM   10  C   UNL     1     -10.178  19.090  65.831  1.00  0.00    -0.311 C  
HETATM   11  H   UNL     1      -9.561  21.535  66.418  1.00  0.00     0.000 HD 
HETATM   12  C   UNL     1     -10.814  17.697  66.024  1.00  0.00     0.037 C  
ENDROOT
BRANCH   1  13
HETATM   13  C   UNL     1     -10.439  15.418  67.138  1.00  0.00    -0.290 A  
HETATM   14  C   UNL     1     -11.417  12.857  67.885  1.00  0.00    -0.362 A  
HETATM   15  C   UNL     1     -11.902  11.524  68.391  1.00  0.00    -0.353 C  
HETATM   16  C   UNL     1     -10.378  12.959  66.938  1.00  0.00    -0.247 A  
HETATM   17  C   UNL     1     -11.486  15.291  68.057  1.00  0.00    -0.351 A  
HETATM   18  C   UNL     1     -11.966  14.030  68.423  1.00  0.00    -0.378 A  
HETATM   19  C   UNL     1      -9.924  14.242  66.558  1.00  0.00    -0.289 A  
BRANCH  16  20
HETATM   20  C   UNL     1      -9.651  11.735  66.413  1.00  0.00    -0.234 C  
BRANCH  20  21
HETATM   21  C   UNL     1      -9.053  10.788  67.418  1.00  0.00    -0.143 A  
HETATM   22  C   UNL     1      -8.157  10.999  68.445  1.00  0.00    -0.134 A  
HETATM   23  C   UNL     1      -8.078   9.876  69.334  1.00  0.00    -0.139 A  
HETATM   24  C   UNL     1      -8.923   8.838  68.971  1.00  0.00    -0.137 A  
HETATM   25  S   UNL     1      -9.612   9.166  67.430  1.00  0.00    -0.159 SA 
BRANCH  24  26
HETATM   26  C   UNL     1      -9.280   7.605  69.709  1.00  0.00    -0.147 A  
HETATM   27  C   UNL     1     -10.540   6.999  69.544  1.00  0.00    -0.253 A  
HETATM   28  C   UNL     1     -10.913   5.878  70.293  1.00  0.00    -0.390 A  
HETATM   29  C   UNL     1     -10.033   5.361  71.230  1.00  0.00    -0.193 A  
HETATM   30  F   UNL     1     -10.402   4.306  71.969  1.00  0.00    -0.244 F  
HETATM   31  C   UNL     1      -8.781   5.929  71.414  1.00  0.00    -0.133 A  
HETATM   32  C   UNL     1      -8.403   7.045  70.656  1.00  0.00    -0.127 A  
ENDBRANCH  24  26
ENDBRANCH  20  21
ENDBRANCH  16  20
ENDBRANCH   1  13
BRANCH   4  33
HETATM   33  C   UNL     1      -8.137  19.158  69.117  1.00  0.00    -0.137 C  
HETATM   34  O   UNL     1      -6.849  19.745  68.908  1.00  0.00    -0.316 OA 
HETATM   35  H   UNL     1      -6.503  20.067  69.732  1.00  0.00     0.000 HD 
ENDBRANCH   4  33
TORSDOF 5
ENDMDL
MODEL       92
REMARK 921   NORMALIZED FREE ENERGY PREDICTED BY IDOCK:   -6.57 KCAL/MOL
REMARK 922        TOTAL FREE ENERGY PREDICTED BY IDOCK:   -9.09 KCAL/MOL
REMARK 923 INTER-LIGAND FREE ENERGY PREDICTED BY IDOCK:   -8.31 KCAL/MOL
REMARK 924 INTRA-LIGAND FREE ENERGY PREDICTED BY IDOCK:   -0.78 KCAL/MOL
REMARK 927      BINDING AFFINITY PREDICTED BY RF-SCORE:    0.00 PKD
ROOT
HETATM    1  C   UNL     1     -11.591  13.238  67.432  1.00  0.00    -0.353 C  
HETATM    2  O   UNL     1     -10.911  14.509  67.518  1.00  0.00    -0.279 OA 
HETATM    3  H   UNL     1     -12.572  10.960  69.576  1.00  0.00     0.000 HD 
HETATM    4  C   UNL     1     -11.570  15.437  68.384  1.00  0.00    -0.354 C  
HETATM    5  O   UNL     1     -12.510  11.378  68.725  1.00  0.00    -0.396 OA 
HETATM    6  C   UNL     1     -11.594  14.903  69.823  1.00  0.00    -0.303 C  
HETATM    7  H   UNL     1     -12.685  12.156  71.176  1.00  0.00     0.000 HD 
HETATM    8  O   UNL     1     -12.247  12.999  71.166  1.00  0.00    -0.268 OA 
HETATM    9  O   UNL     1     -12.310  15.759  70.725  1.00  0.00    -0.410 OA 
HETATM   10  C   UNL     1     -12.299  13.545  69.839  1.00  0.00    -0.224 C  
HETATM   11  H   UNL     1     -12.325  15.429  71.616  1.00  0.00     0.000 HD 
HETATM   12  C   UNL     1     -11.693  12.559  68.818  1.00  0.00    -0.327 C  
ENDROOT
BRANCH   1  13
HETATM   13  C   UNL     1     -10.888  12.372  66.391  1.00  0.00    -0.291 A  
HETATM   14  C   UNL     1      -9.720  10.649  64.457  1.00  0.00    -0.367 A  
HETATM   15  C   UNL     1      -9.208   9.722  63.385  1.00  0.00    -0.217 C  
HETATM   16  C   UNL     1      -9.646  10.316  65.824  1.00  0.00    -0.279 A  
HETATM   17  C   UNL     1     -10.926  12.692  65.030  1.00  0.00    -0.323 A  
HETATM   18  C   UNL     1     -10.351  11.843  64.079  1.00  0.00    -0.403 A  
HETATM   19  C   UNL     1     -10.207  11.200  66.773  1.00  0.00    -0.272 A  
BRANCH  16  20
HETATM   20  C   UNL     1      -9.095   8.982  66.295  1.00  0.00    -0.224 C  
BRANCH  20  21
HETATM   21  C   UNL     1      -9.888   8.216  67.318  1.00  0.00    -0.197 A  
HETATM   22  C   UNL     1     -10.978   7.381  67.183  1.00  0.00    -0.225 A  
HETATM   23  C   UNL     1     -11.241   6.638  68.382  1.00  0.00    -0.215 A  
HETATM   24  C   UNL     1     -10.340   6.915  69.399  1.00  0.00    -0.204 A  
HETATM   25  S   UNL     1      -9.347   8.243  68.945  1.00  0.00    -0.147 SA 
BRANCH  24  26
HETATM   26  C   UNL     1     -10.145   6.239  70.702  1.00  0.00    -0.230 A  
HETATM   27  C   UNL     1     -10.001   4.841  70.781  1.00  0.00    -0.291 A  
HETATM   28  C   UNL     1      -9.891   4.189  72.013  1.00  0.00    -0.242 A  
HETATM   29  C   UNL     1      -9.942   4.929  73.184  1.00  0.00    -0.156 A  
HETATM   30  F   UNL     1      -9.867   4.301  74.365  1.00  0.00    -0.124 F  
HETATM   31  C   UNL     1     -10.076   6.310  73.142  1.00  0.00    -0.203 A  
HETATM   32  C   UNL     1     -10.175   6.964  71.907  1.00  0.00    -0.206 A  
ENDBRANCH  24  26
ENDBRANCH  20  21
ENDBRANCH  16  20
ENDBRANCH   1  13
BRANCH   4  33
HETATM   33  C   UNL     1     -10.854  16.791  68.307  1.00  0.00    -0.366 C  
HETATM   34  O   UNL     1      -9.453  16.590  68.098  1.00  0.00    -0.215 OA 
HETATM   35  H   UNL     1      -9.009  17.428  68.051  1.00  0.00     0.000 HD 
ENDBRANCH   4  33
TORSDOF 5
ENDMDL
MODEL       93
REMARK 921   NORMALIZED FREE ENERGY PREDICTED BY IDOCK:   -6.56 KCAL/MOL
REMARK 922        TOTAL FREE ENERGY PREDICTED BY IDOCK:   -9.08 KCAL/MOL
REMARK 923 INTER-LIGAND FREE ENERGY PREDICTED BY IDOCK:   -8.29 KCAL/MOL
REMARK 924 INTRA-LIGAND FREE ENERGY PREDICTED BY IDOCK:   -0.79 KCAL/MOL
REMARK 927      BINDING AFFINITY PREDICTED BY RF-SCORE:    0.00 PKD
ROOT
HETATM    1  C   UNL     1     -10.078  11.469  66.238  1.00  0.00    -0.226 C  
HETATM    2  O   UNL     1      -9.433  11.398  64.947  1.00  0.00    -0.223 OA 
HETATM    3  H   UNL     1     -12.649  13.076  67.483  1.00  0.00     0.000 HD 
HETATM    4  C   UNL     1     -10.327  11.023  63.897  1.00  0.00    -0.372 C  
HETATM    5  O   UNL     1     -11.944  12.439  67.483  1.00  0.00    -0.482 OA 
HETATM    6  C   UNL     1     -11.431  12.076  63.731  1.00  0.00    -0.461 C  
HETATM    7  H   UNL     1     -13.619  13.370  65.757  1.00  0.00     0.000 HD 
HETATM    8  O   UNL     1     -13.155  13.275  64.934  1.00  0.00    -0.737 OA 
HETATM    9  O   UNL     1     -12.404  11.716  62.739  1.00  0.00    -0.807 OA 
HETATM   10  C   UNL     1     -12.179  12.228  65.057  1.00  0.00    -0.304 C  
HETATM   11  H   UNL     1     -13.087  12.368  62.636  1.00  0.00     0.000 HD 
HETATM   12  C   UNL     1     -11.225  12.506  66.238  1.00  0.00    -0.315 C  
ENDROOT
BRANCH   1  13
HETATM   13  C   UNL     1      -9.019  11.745  67.302  1.00  0.00    -0.172 A  
HETATM   14  C   UNL     1      -6.934  12.161  69.186  1.00  0.00    -0.053 A  
HETATM   15  C   UNL     1      -5.754  12.392  70.094  1.00  0.00    -0.157 C  
HETATM   16  C   UNL     1      -7.654  10.950  69.199  1.00  0.00    -0.133 A  
HETATM   17  C   UNL     1      -8.305  12.947  67.327  1.00  0.00    -0.185 A  
HETATM   18  C   UNL     1      -7.280  13.151  68.255  1.00  0.00    -0.107 A  
HETATM   19  C   UNL     1      -8.707  10.773  68.272  1.00  0.00    -0.136 A  
BRANCH  16  20
HETATM   20  C   UNL     1      -7.252   9.788  70.088  1.00  0.00    -0.146 C  
BRANCH  20  21
HETATM   21  C   UNL     1      -8.085   8.537  70.028  1.00  0.00    -0.111 A  
HETATM   22  C   UNL     1      -8.238   7.594  69.032  1.00  0.00    -0.127 A  
HETATM   23  C   UNL     1      -8.907   6.415  69.503  1.00  0.00    -0.136 A  
HETATM   24  C   UNL     1      -9.239   6.480  70.847  1.00  0.00    -0.154 A  
HETATM   25  S   UNL     1      -8.939   8.067  71.440  1.00  0.00    -0.150 SA 
BRANCH  24  26
HETATM   26  C   UNL     1      -9.753   5.425  71.748  1.00  0.00    -0.206 A  
HETATM   27  C   UNL     1      -9.577   4.061  71.445  1.00  0.00    -0.241 A  
HETATM   28  C   UNL     1     -10.124   3.059  72.253  1.00  0.00    -0.219 A  
HETATM   29  C   UNL     1     -10.871   3.412  73.366  1.00  0.00    -0.214 A  
HETATM   30  F   UNL     1     -11.421   2.452  74.122  1.00  0.00    -0.220 F  
HETATM   31  C   UNL     1     -11.059   4.746  73.698  1.00  0.00    -0.380 A  
HETATM   32  C   UNL     1     -10.500   5.749  72.895  1.00  0.00    -0.244 A  
ENDBRANCH  24  26
ENDBRANCH  20  21
ENDBRANCH  16  20
ENDBRANCH   1  13
BRANCH   4  33
HETATM   33  C   UNL     1      -9.531  10.845  62.598  1.00  0.00    -0.293 C  
HETATM   34  O   UNL     1      -8.308  11.584  62.672  1.00  0.00    -0.578 OA 
HETATM   35  H   UNL     1      -7.815  11.474  61.868  1.00  0.00     0.000 HD 
ENDBRANCH   4  33
TORSDOF 5
ENDMDL
MODEL       94
REMARK 921   NORMALIZED FREE ENERGY PREDICTED BY IDOCK:   -6.55 KCAL/MOL
REMARK 922        TOTAL FREE ENERGY PREDICTED BY IDOCK:   -9.06 KCAL/MOL
REMARK 923 INTER-LIGAND FREE ENERGY PREDICTED BY IDOCK:   -8.66 KCAL/MOL
REMARK 924 INTRA-LIGAND FREE ENERGY PREDICTED BY IDOCK:   -0.41 KCAL/MOL
REMARK 927      BINDING AFFINITY PREDICTED BY RF-SCORE:    0.00 PKD
ROOT
HETATM    1  C   UNL     1     -11.434  12.034  66.303  1.00  0.00    -0.345 C  
HETATM    2  O   UNL     1     -10.034  11.698  66.188  1.00  0.00    -0.209 OA 
HETATM    3  H   UNL     1     -13.597  13.702  64.492  1.00  0.00     0.000 HD 
HETATM    4  C   UNL     1      -9.722  11.015  64.972  1.00  0.00    -0.254 C  
HETATM    5  O   UNL     1     -13.317  13.137  65.202  1.00  0.00    -0.618 OA 
HETATM    6  C   UNL     1     -10.016  11.913  63.762  1.00  0.00    -0.355 C  
HETATM    7  H   UNL     1     -12.662  13.495  62.734  1.00  0.00     0.000 HD 
HETATM    8  O   UNL     1     -11.748  13.238  62.715  1.00  0.00     0.218 OA 
HETATM    9  O   UNL     1      -9.793  11.252  62.507  1.00  0.00    -0.584 OA 
HETATM   10  C   UNL     1     -11.488  12.327  63.794  1.00  0.00    -0.466 C  
HETATM   11  H   UNL     1      -9.974  11.807  61.759  1.00  0.00     0.000 HD 
HETATM   12  C   UNL     1     -11.890  12.952  65.146  1.00  0.00    -0.380 C  
ENDROOT
BRANCH   1  13
HETATM   13  C   UNL     1     -11.684  12.637  67.683  1.00  0.00    -0.420 A  
HETATM   14  C   UNL     1     -11.977  13.724  70.292  1.00  0.00    -0.397 A  
HETATM   15  C   UNL     1     -12.025  14.346  71.662  1.00  0.00    -0.257 C  
HETATM   16  C   UNL     1     -12.029  12.328  70.107  1.00  0.00    -0.377 A  
HETATM   17  C   UNL     1     -11.661  14.020  67.890  1.00  0.00    -0.377 A  
HETATM   18  C   UNL     1     -11.805  14.553  69.174  1.00  0.00    -0.354 A  
HETATM   19  C   UNL     1     -11.909  11.808  68.798  1.00  0.00    -0.380 A  
BRANCH  16  20
HETATM   20  C   UNL     1     -12.081  11.367  71.281  1.00  0.00    -0.087 C  
BRANCH  20  21
HETATM   21  C   UNL     1     -11.681   9.937  71.036  1.00  0.00    -0.382 A  
HETATM   22  C   UNL     1     -12.155   8.756  71.569  1.00  0.00    -0.388 A  
HETATM   23  C   UNL     1     -11.685   7.610  70.846  1.00  0.00    -0.291 A  
HETATM   24  C   UNL     1     -10.872   7.942  69.774  1.00  0.00    -0.202 A  
HETATM   25  S   UNL     1     -10.513   9.623  69.819  1.00  0.00    -0.257 SA 
BRANCH  24  26
HETATM   26  C   UNL     1     -10.348   7.090  68.682  1.00  0.00    -0.200 A  
HETATM   27  C   UNL     1      -8.990   7.135  68.313  1.00  0.00    -0.125 A  
HETATM   28  C   UNL     1      -8.503   6.389  67.235  1.00  0.00    -0.111 A  
HETATM   29  C   UNL     1      -9.376   5.600  66.502  1.00  0.00    -0.150 A  
HETATM   30  F   UNL     1      -8.914   4.910  65.450  1.00  0.00    -0.133 F  
HETATM   31  C   UNL     1     -10.718   5.526  66.842  1.00  0.00    -0.310 A  
HETATM   32  C   UNL     1     -11.203   6.265  67.929  1.00  0.00    -0.216 A  
ENDBRANCH  24  26
ENDBRANCH  20  21
ENDBRANCH  16  20
ENDBRANCH   1  13
BRANCH   4  33
HETATM   33  C   UNL     1      -8.250  10.586  64.999  1.00  0.00    -0.120 C  
HETATM   34  O   UNL     1      -7.969   9.738  63.882  1.00  0.00    -0.131 OA 
HETATM   35  H   UNL     1      -7.057   9.473  63.899  1.00  0.00     0.000 HD 
ENDBRANCH   4  33
TORSDOF 5
ENDMDL
MODEL       95
REMARK 921   NORMALIZED FREE ENERGY PREDICTED BY IDOCK:   -6.54 KCAL/MOL
REMARK 922        TOTAL FREE ENERGY PREDICTED BY IDOCK:   -9.06 KCAL/MOL
REMARK 923 INTER-LIGAND FREE ENERGY PREDICTED BY IDOCK:   -7.85 KCAL/MOL
REMARK 924 INTRA-LIGAND FREE ENERGY PREDICTED BY IDOCK:   -1.20 KCAL/MOL
REMARK 927      BINDING AFFINITY PREDICTED BY RF-SCORE:    0.00 PKD
ROOT
HETATM    1  C   UNL     1     -11.121  14.522  68.278  1.00  0.00    -0.261 C  
HETATM    2  O   UNL     1     -11.144  14.252  66.860  1.00  0.00    -0.298 OA 
HETATM    3  H   UNL     1      -9.126  16.131  70.321  1.00  0.00     0.000 HD 
HETATM    4  C   UNL     1     -11.092  15.438  66.064  1.00  0.00    -0.233 C  
HETATM    5  O   UNL     1      -9.917  15.668  70.070  1.00  0.00    -0.290 OA 
HETATM    6  C   UNL     1      -9.773  16.186  66.304  1.00  0.00    -0.307 C  
HETATM    7  H   UNL     1      -8.306  17.349  68.961  1.00  0.00     0.000 HD 
HETATM    8  O   UNL     1      -8.381  17.141  68.038  1.00  0.00    -0.206 OA 
HETATM    9  O   UNL     1      -9.695  17.428  65.587  1.00  0.00    -0.533 OA 
HETATM   10  C   UNL     1      -9.653  16.521  67.792  1.00  0.00    -0.232 C  
HETATM   11  H   UNL     1      -8.879  17.890  65.735  1.00  0.00     0.000 HD 
HETATM   12  C   UNL     1      -9.835  15.276  68.687  1.00  0.00    -0.211 C  
ENDROOT
BRANCH   1  13
HETATM   13  C   UNL     1     -11.313  13.210  69.033  1.00  0.00    -0.332 A  
HETATM   14  C   UNL     1     -11.536  10.817  70.549  1.00  0.00    -0.425 A  
HETATM   15  C   UNL     1     -11.637   9.614  71.449  1.00  0.00    -0.472 C  
HETATM   16  C   UNL     1     -10.522  10.936  69.579  1.00  0.00    -0.176 A  
HETATM   17  C   UNL     1     -12.326  13.057  69.985  1.00  0.00    -0.222 A  
HETATM   18  C   UNL     1     -12.435  11.879  70.730  1.00  0.00    -0.384 A  
HETATM   19  C   UNL     1     -10.444  12.123  68.815  1.00  0.00    -0.201 A  
BRANCH  16  20
HETATM   20  C   UNL     1      -9.439   9.885  69.419  1.00  0.00    -0.226 C  
BRANCH  20  21
HETATM   21  C   UNL     1      -9.545   8.939  68.254  1.00  0.00    -0.146 A  
HETATM   22  C   UNL     1     -10.468   8.856  67.231  1.00  0.00    -0.348 A  
HETATM   23  C   UNL     1     -10.030   7.987  66.178  1.00  0.00     0.021 A  
HETATM   24  C   UNL     1      -8.781   7.435  66.414  1.00  0.00    -0.142 A  
HETATM   25  S   UNL     1      -8.280   7.805  68.017  1.00  0.00    -0.124 SA 
BRANCH  24  26
HETATM   26  C   UNL     1      -7.903   6.656  65.512  1.00  0.00    -0.108 A  
HETATM   27  C   UNL     1      -8.317   5.417  64.986  1.00  0.00    -0.145 A  
HETATM   28  C   UNL     1      -7.465   4.641  64.194  1.00  0.00    -0.066 A  
HETATM   29  C   UNL     1      -6.179   5.088  63.935  1.00  0.00    -0.022 A  
HETATM   30  F   UNL     1      -5.353   4.329  63.201  1.00  0.00    -0.008 F  
HETATM   31  C   UNL     1      -5.741   6.307  64.431  1.00  0.00    -0.022 A  
HETATM   32  C   UNL     1      -6.598   7.090  65.215  1.00  0.00    -0.047 A  
ENDBRANCH  24  26
ENDBRANCH  20  21
ENDBRANCH  16  20
ENDBRANCH   1  13
BRANCH   4  33
HETATM   33  C   UNL     1     -11.254  15.061  64.587  1.00  0.00    -0.332 C  
HETATM   34  O   UNL     1     -11.893  16.127  63.879  1.00  0.00    -1.359 OA 
HETATM   35  H   UNL     1     -11.993  15.893  62.964  1.00  0.00     0.000 HD 
ENDBRANCH   4  33
TORSDOF 5
ENDMDL
MODEL       96
REMARK 921   NORMALIZED FREE ENERGY PREDICTED BY IDOCK:   -6.52 KCAL/MOL
REMARK 922        TOTAL FREE ENERGY PREDICTED BY IDOCK:   -9.03 KCAL/MOL
REMARK 923 INTER-LIGAND FREE ENERGY PREDICTED BY IDOCK:   -7.74 KCAL/MOL
REMARK 924 INTRA-LIGAND FREE ENERGY PREDICTED BY IDOCK:   -1.29 KCAL/MOL
REMARK 927      BINDING AFFINITY PREDICTED BY RF-SCORE:    0.00 PKD
ROOT
HETATM    1  C   UNL     1      -8.885  10.457  67.203  1.00  0.00    -0.136 C  
HETATM    2  O   UNL     1      -9.656   9.824  68.247  1.00  0.00    -0.142 OA 
HETATM    3  H   UNL     1      -6.392  12.582  67.095  1.00  0.00     0.000 HD 
HETATM    4  C   UNL     1      -8.846   9.105  69.181  1.00  0.00    -0.146 C  
HETATM    5  O   UNL     1      -7.015  11.961  66.737  1.00  0.00    -0.107 OA 
HETATM    6  C   UNL     1      -7.895  10.061  69.913  1.00  0.00    -0.174 C  
HETATM    7  H   UNL     1      -5.659  12.199  68.917  1.00  0.00     0.000 HD 
HETATM    8  O   UNL     1      -6.197  11.748  69.556  1.00  0.00    -0.091 OA 
HETATM    9  O   UNL     1      -7.003   9.384  70.811  1.00  0.00    -0.100 OA 
HETATM   10  C   UNL     1      -7.027  10.788  68.884  1.00  0.00    -0.077 C  
HETATM   11  H   UNL     1      -6.415   9.976  71.265  1.00  0.00     0.000 HD 
HETATM   12  C   UNL     1      -7.871  11.468  67.785  1.00  0.00    -0.126 C  
ENDROOT
BRANCH   1  13
HETATM   13  C   UNL     1      -9.843  11.082  66.193  1.00  0.00    -0.268 A  
HETATM   14  C   UNL     1     -11.520  12.391  64.310  1.00  0.00    -0.427 A  
HETATM   15  C   UNL     1     -12.312  13.124  63.258  1.00  0.00    -0.366 C  
HETATM   16  C   UNL     1     -11.605  12.731  65.674  1.00  0.00    -0.410 A  
HETATM   17  C   UNL     1      -9.796  10.746  64.836  1.00  0.00    -0.350 A  
HETATM   18  C   UNL     1     -10.622  11.391  63.911  1.00  0.00    -0.452 A  
HETATM   19  C   UNL     1     -10.783  12.049  66.600  1.00  0.00    -0.280 A  
BRANCH  16  20
HETATM   20  C   UNL     1     -12.457  13.890  66.159  1.00  0.00    -0.478 C  
BRANCH  20  21
HETATM   21  C   UNL     1     -11.860  14.823  67.176  1.00  0.00    -0.286 A  
HETATM   22  C   UNL     1     -11.953  14.850  68.552  1.00  0.00    -0.275 A  
HETATM   23  C   UNL     1     -10.996  15.739  69.143  1.00  0.00    -0.265 A  
HETATM   24  C   UNL     1     -10.187  16.363  68.206  1.00  0.00    -0.255 A  
HETATM   25  S   UNL     1     -10.772  16.029  66.623  1.00  0.00    -0.189 SA 
BRANCH  24  26
HETATM   26  C   UNL     1      -8.974  17.190  68.401  1.00  0.00    -0.259 A  
HETATM   27  C   UNL     1      -7.709  16.595  68.572  1.00  0.00    -0.215 A  
HETATM   28  C   UNL     1      -6.571  17.366  68.831  1.00  0.00    -0.218 A  
HETATM   29  C   UNL     1      -6.690  18.742  68.941  1.00  0.00    -0.280 A  
HETATM   30  F   UNL     1      -5.605  19.477  69.220  1.00  0.00    -0.210 F  
HETATM   31  C   UNL     1      -7.920  19.362  68.771  1.00  0.00    -0.391 A  
HETATM   32  C   UNL     1      -9.058  18.590  68.500  1.00  0.00    -0.353 A  
ENDBRANCH  24  26
ENDBRANCH  20  21
ENDBRANCH  16  20
ENDBRANCH   1  13
BRANCH   4  33
HETATM   33  C   UNL     1      -9.755   8.364  70.168  1.00  0.00    -0.173 C  
HETATM   34  O   UNL     1     -10.622   9.294  70.825  1.00  0.00    -0.238 OA 
HETATM   35  H   UNL     1     -11.185   8.835  71.436  1.00  0.00     0.000 HD 
ENDBRANCH   4  33
TORSDOF 5
ENDMDL
MODEL       97
REMARK 921   NORMALIZED FREE ENERGY PREDICTED BY IDOCK:   -6.51 KCAL/MOL
REMARK 922        TOTAL FREE ENERGY PREDICTED BY IDOCK:   -9.01 KCAL/MOL
REMARK 923 INTER-LIGAND FREE ENERGY PREDICTED BY IDOCK:   -8.63 KCAL/MOL
REMARK 924 INTRA-LIGAND FREE ENERGY PREDICTED BY IDOCK:   -0.38 KCAL/MOL
REMARK 927      BINDING AFFINITY PREDICTED BY RF-SCORE:    0.00 PKD
ROOT
HETATM    1  C   UNL     1     -11.030   9.360  68.057  1.00  0.00    -0.059 C  
HETATM    2  O   UNL     1     -10.771   8.402  69.106  1.00  0.00    -0.200 OA 
HETATM    3  H   UNL     1      -9.489  10.314  65.325  1.00  0.00     0.000 HD 
HETATM    4  C   UNL     1     -10.571   7.075  68.613  1.00  0.00    -0.210 C  
HETATM    5  O   UNL     1     -10.211  10.271  65.941  1.00  0.00    -0.254 OA 
HETATM    6  C   UNL     1      -9.331   7.020  67.710  1.00  0.00    -0.125 C  
HETATM    7  H   UNL     1      -8.426   8.642  65.042  1.00  0.00     0.000 HD 
HETATM    8  O   UNL     1      -8.315   8.028  65.758  1.00  0.00    -0.123 OA 
HETATM    9  O   UNL     1      -9.122   5.726  67.123  1.00  0.00    -0.113 OA 
HETATM   10  C   UNL     1      -9.509   8.010  66.557  1.00  0.00    -0.214 C  
HETATM   11  H   UNL     1      -8.355   5.692  66.565  1.00  0.00     0.000 HD 
HETATM   12  C   UNL     1      -9.855   9.430  67.054  1.00  0.00    -0.201 C  
ENDROOT
BRANCH   1  13
HETATM   13  C   UNL     1     -11.358  10.709  68.691  1.00  0.00    -0.345 A  
HETATM   14  C   UNL     1     -12.135  13.203  69.808  1.00  0.00    -0.336 A  
HETATM   15  C   UNL     1     -12.650  14.475  70.428  1.00  0.00    -0.405 C  
HETATM   16  C   UNL     1     -11.811  13.122  68.439  1.00  0.00    -0.386 A  
HETATM   17  C   UNL     1     -11.661  10.821  70.052  1.00  0.00    -0.417 A  
HETATM   18  C   UNL     1     -12.043  12.049  70.600  1.00  0.00    -0.369 A  
HETATM   19  C   UNL     1     -11.399  11.879  67.908  1.00  0.00    -0.358 A  
BRANCH  16  20
HETATM   20  C   UNL     1     -12.012  14.296  67.498  1.00  0.00    -0.411 C  
BRANCH  20  21
HETATM   21  C   UNL     1     -10.801  15.098  67.108  1.00  0.00    -0.320 A  
HETATM   22  C   UNL     1     -10.293  15.433  65.870  1.00  0.00    -0.359 A  
HETATM   23  C   UNL     1      -9.283  16.449  65.957  1.00  0.00    -0.328 A  
HETATM   24  C   UNL     1      -9.052  16.873  67.256  1.00  0.00    -0.218 A  
HETATM   25  S   UNL     1      -9.900  15.858  68.355  1.00  0.00    -0.218 SA 
BRANCH  24  26
HETATM   26  C   UNL     1      -8.248  18.013  67.751  1.00  0.00    -0.238 A  
HETATM   27  C   UNL     1      -8.272  19.259  67.096  1.00  0.00    -0.292 A  
HETATM   28  C   UNL     1      -7.460  20.318  67.513  1.00  0.00    -0.347 A  
HETATM   29  C   UNL     1      -6.598  20.135  68.584  1.00  0.00    -0.299 A  
HETATM   30  F   UNL     1      -5.798  21.140  68.964  1.00  0.00    -0.384 F  
HETATM   31  C   UNL     1      -6.554  18.923  69.257  1.00  0.00    -0.311 A  
HETATM   32  C   UNL     1      -7.377  17.866  68.845  1.00  0.00    -0.251 A  
ENDBRANCH  24  26
ENDBRANCH  20  21
ENDBRANCH  16  20
ENDBRANCH   1  13
BRANCH   4  33
HETATM   33  C   UNL     1     -10.435   6.113  69.799  1.00  0.00    -0.239 C  
HETATM   34  O   UNL     1     -11.298   6.528  70.863  1.00  0.00    -0.298 OA 
HETATM   35  H   UNL     1     -11.214   5.932  71.598  1.00  0.00     0.000 HD 
ENDBRANCH   4  33
TORSDOF 5
ENDMDL
MODEL       98
REMARK 921   NORMALIZED FREE ENERGY PREDICTED BY IDOCK:   -6.50 KCAL/MOL
REMARK 922        TOTAL FREE ENERGY PREDICTED BY IDOCK:   -9.00 KCAL/MOL
REMARK 923 INTER-LIGAND FREE ENERGY PREDICTED BY IDOCK:   -8.12 KCAL/MOL
REMARK 924 INTRA-LIGAND FREE ENERGY PREDICTED BY IDOCK:   -0.87 KCAL/MOL
REMARK 927      BINDING AFFINITY PREDICTED BY RF-SCORE:    0.00 PKD
ROOT
HETATM    1  C   UNL     1     -10.185  15.089  68.326  1.00  0.00    -0.222 C  
HETATM    2  O   UNL     1     -10.810  15.403  67.063  1.00  0.00    -0.315 OA 
HETATM    3  H   UNL     1      -7.122  14.516  69.343  1.00  0.00     0.000 HD 
HETATM    4  C   UNL     1     -10.259  16.567  66.442  1.00  0.00    -0.316 C  
HETATM    5  O   UNL     1      -8.053  14.676  69.447  1.00  0.00    -0.089 OA 
HETATM    6  C   UNL     1      -8.777  16.346  66.107  1.00  0.00    -0.312 C  
HETATM    7  H   UNL     1      -6.183  15.495  67.871  1.00  0.00     0.000 HD 
HETATM    8  O   UNL     1      -6.653  15.708  67.074  1.00  0.00    -0.283 OA 
HETATM    9  O   UNL     1      -8.150  17.510  65.549  1.00  0.00    -0.316 OA 
HETATM   10  C   UNL     1      -8.022  16.003  67.393  1.00  0.00    -0.159 C  
HETATM   11  H   UNL     1      -7.233  17.373  65.342  1.00  0.00     0.000 HD 
HETATM   12  C   UNL     1      -8.670  14.828  68.156  1.00  0.00    -0.168 C  
ENDROOT
BRANCH   1  13
HETATM   13  C   UNL     1     -10.927  13.918  68.965  1.00  0.00    -0.281 A  
HETATM   14  C   UNL     1     -12.157  11.700  70.246  1.00  0.00    -0.443 A  
HETATM   15  C   UNL     1     -12.753  10.556  71.023  1.00  0.00    -0.504 C  
HETATM   16  C   UNL     1     -11.305  11.485  69.144  1.00  0.00    -0.351 A  
HETATM   17  C   UNL     1     -11.796  14.105  70.044  1.00  0.00    -0.388 A  
HETATM   18  C   UNL     1     -12.400  13.013  70.673  1.00  0.00    -0.391 A  
HETATM   19  C   UNL     1     -10.725  12.603  68.502  1.00  0.00    -0.271 A  
BRANCH  16  20
HETATM   20  C   UNL     1     -10.895  10.090  68.709  1.00  0.00    -0.252 C  
BRANCH  20  21
HETATM   21  C   UNL     1     -10.096   9.260  69.676  1.00  0.00    -0.197 A  
HETATM   22  C   UNL     1      -9.216   9.622  70.675  1.00  0.00    -0.148 A  
HETATM   23  C   UNL     1      -8.897   8.524  71.541  1.00  0.00    -0.260 A  
HETATM   24  C   UNL     1      -9.549   7.352  71.190  1.00  0.00    -0.159 A  
HETATM   25  S   UNL     1     -10.344   7.562  69.679  1.00  0.00    -0.229 SA 
BRANCH  24  26
HETATM   26  C   UNL     1      -9.644   6.066  71.918  1.00  0.00    -0.166 A  
HETATM   27  C   UNL     1      -9.500   4.837  71.245  1.00  0.00    -0.216 A  
HETATM   28  C   UNL     1      -9.664   3.619  71.912  1.00  0.00    -0.236 A  
HETATM   29  C   UNL     1      -9.991   3.617  73.259  1.00  0.00    -0.129 A  
HETATM   30  F   UNL     1     -10.178   2.449  73.890  1.00  0.00    -0.129 F  
HETATM   31  C   UNL     1     -10.134   4.809  73.954  1.00  0.00    -0.218 A  
HETATM   32  C   UNL     1      -9.959   6.029  73.288  1.00  0.00    -0.189 A  
ENDBRANCH  24  26
ENDBRANCH  20  21
ENDBRANCH  16  20
ENDBRANCH   1  13
BRANCH   4  33
HETATM   33  C   UNL     1     -11.069  16.895  65.181  1.00  0.00     0.022 C  
HETATM   34  O   UNL     1     -11.095  15.761  64.310  1.00  0.00    -0.811 OA 
HETATM   35  H   UNL     1     -11.596  15.964  63.530  1.00  0.00     0.000 HD 
ENDBRANCH   4  33
TORSDOF 5
ENDMDL
MODEL       99
REMARK 921   NORMALIZED FREE ENERGY PREDICTED BY IDOCK:   -6.48 KCAL/MOL
REMARK 922        TOTAL FREE ENERGY PREDICTED BY IDOCK:   -8.97 KCAL/MOL
REMARK 923 INTER-LIGAND FREE ENERGY PREDICTED BY IDOCK:   -7.46 KCAL/MOL
REMARK 924 INTRA-LIGAND FREE ENERGY PREDICTED BY IDOCK:   -1.50 KCAL/MOL
REMARK 927      BINDING AFFINITY PREDICTED BY RF-SCORE:    0.00 PKD
ROOT
HETATM    1  C   UNL     1     -10.842  11.053  66.746  1.00  0.00    -0.251 C  
HETATM    2  O   UNL     1     -10.090  10.819  65.536  1.00  0.00    -0.248 OA 
HETATM    3  H   UNL     1     -12.161  13.672  68.212  1.00  0.00     0.000 HD 
HETATM    4  C   UNL     1     -10.761  11.287  64.363  1.00  0.00    -0.339 C  
HETATM    5  O   UNL     1     -11.995  12.746  68.082  1.00  0.00    -0.333 OA 
HETATM    6  C   UNL     1     -10.950  12.809  64.424  1.00  0.00    -0.361 C  
HETATM    7  H   UNL     1     -12.338  14.811  66.576  1.00  0.00     0.000 HD 
HETATM    8  O   UNL     1     -11.846  14.591  65.794  1.00  0.00    -0.362 OA 
HETATM    9  O   UNL     1     -11.686  13.327  63.306  1.00  0.00    -0.723 OA 
HETATM   10  C   UNL     1     -11.742  13.162  65.684  1.00  0.00    -0.364 C  
HETATM   11  H   UNL     1     -11.803  14.268  63.344  1.00  0.00     0.000 HD 
HETATM   12  C   UNL     1     -11.113  12.561  66.959  1.00  0.00    -0.281 C  
ENDROOT
BRANCH   1  13
HETATM   13  C   UNL     1     -10.107  10.405  67.916  1.00  0.00    -0.200 A  
HETATM   14  C   UNL     1      -8.780   9.344  70.194  1.00  0.00    -0.245 A  
HETATM   15  C   UNL     1      -8.165   8.823  71.466  1.00  0.00    -0.190 C  
HETATM   16  C   UNL     1      -8.137  10.316  69.402  1.00  0.00    -0.167 A  
HETATM   17  C   UNL     1     -10.712   9.422  68.705  1.00  0.00    -0.196 A  
HETATM   18  C   UNL     1     -10.058   8.900  69.825  1.00  0.00    -0.205 A  
HETATM   19  C   UNL     1      -8.801  10.812  68.257  1.00  0.00    -0.139 A  
BRANCH  16  20
HETATM   20  C   UNL     1      -6.813  10.935  69.811  1.00  0.00    -0.134 C  
BRANCH  20  21
HETATM   21  C   UNL     1      -6.366  12.177  69.089  1.00  0.00    -0.094 A  
HETATM   22  C   UNL     1      -5.578  12.343  67.969  1.00  0.00    -0.073 A  
HETATM   23  C   UNL     1      -5.639  13.682  67.458  1.00  0.00     0.079 A  
HETATM   24  C   UNL     1      -6.479  14.504  68.194  1.00  0.00    -0.139 A  
HETATM   25  S   UNL     1      -6.984  13.687  69.620  1.00  0.00     0.256 SA 
BRANCH  24  26
HETATM   26  C   UNL     1      -6.962  15.872  67.900  1.00  0.00    -0.155 A  
HETATM   27  C   UNL     1      -6.777  16.922  68.820  1.00  0.00    -0.190 A  
HETATM   28  C   UNL     1      -7.295  18.199  68.582  1.00  0.00    -0.295 A  
HETATM   29  C   UNL     1      -8.022  18.435  67.426  1.00  0.00    -0.238 A  
HETATM   30  F   UNL     1      -8.545  19.651  67.213  1.00  0.00    -0.301 F  
HETATM   31  C   UNL     1      -8.218  17.426  66.495  1.00  0.00    -0.311 A  
HETATM   32  C   UNL     1      -7.689  16.150  66.728  1.00  0.00    -0.288 A  
ENDBRANCH  24  26
ENDBRANCH  20  21
ENDBRANCH  16  20
ENDBRANCH   1  13
BRANCH   4  33
HETATM   33  C   UNL     1      -9.952  10.878  63.126  1.00  0.00    -0.321 C  
HETATM   34  O   UNL     1      -8.915  11.833  62.885  1.00  0.00    -0.654 OA 
HETATM   35  H   UNL     1      -8.414  11.581  62.118  1.00  0.00     0.000 HD 
ENDBRANCH   4  33
TORSDOF 5
ENDMDL
MODEL      100
REMARK 921   NORMALIZED FREE ENERGY PREDICTED BY IDOCK:   -6.47 KCAL/MOL
REMARK 922        TOTAL FREE ENERGY PREDICTED BY IDOCK:   -8.96 KCAL/MOL
REMARK 923 INTER-LIGAND FREE ENERGY PREDICTED BY IDOCK:   -7.98 KCAL/MOL
REMARK 924 INTRA-LIGAND FREE ENERGY PREDICTED BY IDOCK:   -0.98 KCAL/MOL
REMARK 927      BINDING AFFINITY PREDICTED BY RF-SCORE:    0.00 PKD
ROOT
HETATM    1  C   UNL     1     -10.361   6.145  69.920  1.00  0.00    -0.213 C  
HETATM    2  O   UNL     1     -11.713   6.653  69.947  1.00  0.00    -0.361 OA 
HETATM    3  H   UNL     1      -7.462   7.144  71.079  1.00  0.00     0.000 HD 
HETATM    4  C   UNL     1     -12.192   6.895  71.272  1.00  0.00    -0.380 C  
HETATM    5  O   UNL     1      -8.069   6.535  70.676  1.00  0.00    -0.110 OA 
HETATM    6  C   UNL     1     -11.347   7.978  71.958  1.00  0.00    -0.302 C  
HETATM    7  H   UNL     1      -8.168   8.299  72.553  1.00  0.00     0.000 HD 
HETATM    8  O   UNL     1      -9.076   8.577  72.540  1.00  0.00    -0.244 OA 
HETATM    9  O   UNL     1     -11.734   8.210  73.321  1.00  0.00    -0.476 OA 
HETATM   10  C   UNL     1      -9.884   7.530  71.979  1.00  0.00    -0.163 C  
HETATM   11  H   UNL     1     -11.212   8.880  73.745  1.00  0.00     0.000 HD 
HETATM   12  C   UNL     1      -9.373   7.137  70.577  1.00  0.00    -0.158 C  
ENDROOT
BRANCH   1  13
HETATM   13  C   UNL     1      -9.994   5.798  68.480  1.00  0.00    -0.197 A  
HETATM   14  C   UNL     1      -9.148   5.100  65.859  1.00  0.00    -0.154 A  
HETATM   15  C   UNL     1      -8.647   4.635  64.516  1.00  0.00    -0.141 C  
HETATM   16  C   UNL     1      -8.740   6.326  66.420  1.00  0.00    -0.137 A  
HETATM   17  C   UNL     1     -10.404   4.598  67.890  1.00  0.00     0.067 A  
HETATM   18  C   UNL     1      -9.987   4.256  66.601  1.00  0.00    -0.202 A  
HETATM   19  C   UNL     1      -9.194   6.669  67.714  1.00  0.00    -0.111 A  
BRANCH  16  20
HETATM   20  C   UNL     1      -7.732   7.226  65.730  1.00  0.00    -0.099 C  
BRANCH  20  21
HETATM   21  C   UNL     1      -8.251   8.440  65.010  1.00  0.00    -0.153 A  
HETATM   22  C   UNL     1      -8.433   8.691  63.665  1.00  0.00    -0.070 A  
HETATM   23  C   UNL     1      -9.218   9.870  63.437  1.00  0.00    -0.278 A  
HETATM   24  C   UNL     1      -9.625  10.486  64.610  1.00  0.00    -0.292 A  
HETATM   25  S   UNL     1      -8.844   9.746  65.952  1.00  0.00    -0.158 SA 
BRANCH  24  26
HETATM   26  C   UNL     1     -10.587  11.592  64.816  1.00  0.00    -0.362 A  
HETATM   27  C   UNL     1     -10.789  12.153  66.092  1.00  0.00    -0.317 A  
HETATM   28  C   UNL     1     -11.749  13.146  66.307  1.00  0.00    -0.424 A  
HETATM   29  C   UNL     1     -12.533  13.578  65.249  1.00  0.00    -0.482 A  
HETATM   30  F   UNL     1     -13.474  14.507  65.462  1.00  0.00    -0.359 F  
HETATM   31  C   UNL     1     -12.357  13.052  63.977  1.00  0.00    -0.437 A  
HETATM   32  C   UNL     1     -11.387  12.065  63.760  1.00  0.00    -0.526 A  
ENDBRANCH  24  26
ENDBRANCH  20  21
ENDBRANCH  16  20
ENDBRANCH   1  13
BRANCH   4  33
HETATM   33  C   UNL     1     -13.668   7.303  71.206  1.00  0.00    -0.224 C  
HETATM   34  O   UNL     1     -14.171   7.525  72.527  1.00  0.00    -0.513 OA 
HETATM   35  H   UNL     1     -15.086   7.778  72.486  1.00  0.00     0.000 HD 
ENDBRANCH   4  33
TORSDOF 5
ENDMDL
MODEL      101
REMARK 921   NORMALIZED FREE ENERGY PREDICTED BY IDOCK:   -6.45 KCAL/MOL
REMARK 922        TOTAL FREE ENERGY PREDICTED BY IDOCK:   -8.94 KCAL/MOL
REMARK 923 INTER-LIGAND FREE ENERGY PREDICTED BY IDOCK:   -8.53 KCAL/MOL
REMARK 924 INTRA-LIGAND FREE ENERGY PREDICTED BY IDOCK:   -0.41 KCAL/MOL
REMARK 927      BINDING AFFINITY PREDICTED BY RF-SCORE:    0.00 PKD
ROOT
HETATM    1  C   UNL     1     -11.715   8.697  70.209  1.00  0.00     0.081 C  
HETATM    2  O   UNL     1     -11.585   7.964  71.447  1.00  0.00    -0.261 OA 
HETATM    3  H   UNL     1      -9.910   9.040  67.494  1.00  0.00     0.000 HD 
HETATM    4  C   UNL     1     -11.401   6.561  71.248  1.00  0.00    -0.303 C  
HETATM    5  O   UNL     1     -10.682   9.141  68.038  1.00  0.00    -0.218 OA 
HETATM    6  C   UNL     1     -10.093   6.293  70.491  1.00  0.00    -0.189 C  
HETATM    7  H   UNL     1      -8.898   7.321  67.648  1.00  0.00     0.000 HD 
HETATM    8  O   UNL     1      -8.875   6.861  68.478  1.00  0.00    -0.125 OA 
HETATM    9  O   UNL     1      -9.891   4.903  70.195  1.00  0.00    -0.197 OA 
HETATM   10  C   UNL     1     -10.131   7.034  69.153  1.00  0.00    -0.180 C  
HETATM   11  H   UNL     1      -9.082   4.738  69.727  1.00  0.00     0.000 HD 
HETATM   12  C   UNL     1     -10.458   8.533  69.323  1.00  0.00    -0.215 C  
ENDROOT
BRANCH   1  13
HETATM   13  C   UNL     1     -12.037  10.153  70.530  1.00  0.00    -0.380 A  
HETATM   14  C   UNL     1     -12.784  12.850  71.023  1.00  0.00    -0.338 A  
HETATM   15  C   UNL     1     -13.291  14.243  71.290  1.00  0.00    -0.388 C  
HETATM   16  C   UNL     1     -12.133  12.515  69.819  1.00  0.00    -0.293 A  
HETATM   17  C   UNL     1     -12.661  10.516  71.727  1.00  0.00    -0.508 A  
HETATM   18  C   UNL     1     -13.028  11.844  71.968  1.00  0.00    -0.370 A  
HETATM   19  C   UNL     1     -11.744  11.174  69.604  1.00  0.00    -0.410 A  
BRANCH  16  20
HETATM   20  C   UNL     1     -11.953  13.524  68.699  1.00  0.00    -0.378 C  
BRANCH  20  21
HETATM   21  C   UNL     1     -10.647  14.267  68.627  1.00  0.00    -0.250 A  
HETATM   22  C   UNL     1      -9.374  13.840  68.310  1.00  0.00    -0.209 A  
HETATM   23  C   UNL     1      -8.476  14.936  68.087  1.00  0.00    -0.146 A  
HETATM   24  C   UNL     1      -9.085  16.173  68.228  1.00  0.00    -0.190 A  
HETATM   25  S   UNL     1     -10.672  15.967  68.858  1.00  0.00    -0.298 SA 
BRANCH  24  26
HETATM   26  C   UNL     1      -8.574  17.524  67.902  1.00  0.00    -0.239 A  
HETATM   27  C   UNL     1      -9.210  18.680  68.395  1.00  0.00    -0.355 A  
HETATM   28  C   UNL     1      -8.778  19.959  68.032  1.00  0.00    -0.322 A  
HETATM   29  C   UNL     1      -7.714  20.097  67.154  1.00  0.00    -0.308 A  
HETATM   30  F   UNL     1      -7.321  21.323  66.783  1.00  0.00    -0.291 F  
HETATM   31  C   UNL     1      -7.061  18.980  66.655  1.00  0.00    -0.223 A  
HETATM   32  C   UNL     1      -7.486  17.698  67.028  1.00  0.00    -0.226 A  
ENDBRANCH  24  26
ENDBRANCH  20  21
ENDBRANCH  16  20
ENDBRANCH   1  13
BRANCH   4  33
HETATM   33  C   UNL     1     -11.407   5.855  72.610  1.00  0.00    -0.292 C  
HETATM   34  O   UNL     1     -10.994   6.767  73.632  1.00  0.00    -0.509 OA 
HETATM   35  H   UNL     1     -10.998   6.330  74.476  1.00  0.00     0.000 HD 
ENDBRANCH   4  33
TORSDOF 5
ENDMDL
MODEL      102
REMARK 921   NORMALIZED FREE ENERGY PREDICTED BY IDOCK:   -6.45 KCAL/MOL
REMARK 922        TOTAL FREE ENERGY PREDICTED BY IDOCK:   -8.93 KCAL/MOL
REMARK 923 INTER-LIGAND FREE ENERGY PREDICTED BY IDOCK:   -8.05 KCAL/MOL
REMARK 924 INTRA-LIGAND FREE ENERGY PREDICTED BY IDOCK:   -0.88 KCAL/MOL
REMARK 927      BINDING AFFINITY PREDICTED BY RF-SCORE:    0.00 PKD
ROOT
HETATM    1  C   UNL     1      -9.731  11.688  65.086  1.00  0.00    -0.219 C  
HETATM    2  O   UNL     1     -10.385  11.741  66.373  1.00  0.00    -0.212 OA 
HETATM    3  H   UNL     1     -10.715  11.650  61.960  1.00  0.00     0.000 HD 
HETATM    4  C   UNL     1     -11.257  12.866  66.509  1.00  0.00    -0.302 C  
HETATM    5  O   UNL     1     -10.084  11.706  62.667  1.00  0.00    -0.102 OA 
HETATM    6  C   UNL     1     -12.399  12.787  65.486  1.00  0.00    -0.434 C  
HETATM    7  H   UNL     1     -12.493  12.523  62.248  1.00  0.00     0.000 HD 
HETATM    8  O   UNL     1     -12.862  12.561  63.122  1.00  0.00    -0.599 OA 
HETATM    9  O   UNL     1     -13.266  13.930  65.525  1.00  0.00    -0.698 OA 
HETATM   10  C   UNL     1     -11.803  12.725  64.078  1.00  0.00    -0.435 C  
HETATM   11  H   UNL     1     -13.972  13.881  64.892  1.00  0.00     0.000 HD 
HETATM   12  C   UNL     1     -10.758  11.598  63.934  1.00  0.00    -0.398 C  
ENDROOT
BRANCH   1  13
HETATM   13  C   UNL     1      -8.731  10.535  65.090  1.00  0.00    -0.197 A  
HETATM   14  C   UNL     1      -6.977   8.303  65.215  1.00  0.00    -0.066 A  
HETATM   15  C   UNL     1      -6.142   7.051  65.284  1.00  0.00    -0.037 C  
HETATM   16  C   UNL     1      -6.943   9.275  66.234  1.00  0.00    -0.087 A  
HETATM   17  C   UNL     1      -8.728   9.568  64.079  1.00  0.00    -0.239 A  
HETATM   18  C   UNL     1      -7.864   8.471  64.142  1.00  0.00    -0.144 A  
HETATM   19  C   UNL     1      -7.803  10.393  66.140  1.00  0.00    -0.135 A  
BRANCH  16  20
HETATM   20  C   UNL     1      -6.105   9.094  67.486  1.00  0.00    -0.050 C  
BRANCH  20  21
HETATM   21  C   UNL     1      -6.826   8.912  68.794  1.00  0.00    -0.062 A  
HETATM   22  C   UNL     1      -6.745   9.610  69.981  1.00  0.00    -0.079 A  
HETATM   23  C   UNL     1      -7.815   9.278  70.878  1.00  0.00    -0.148 A  
HETATM   24  C   UNL     1      -8.693   8.344  70.350  1.00  0.00    -0.141 A  
HETATM   25  S   UNL     1      -8.060   7.723  68.877  1.00  0.00    -0.127 SA 
BRANCH  24  26
HETATM   26  C   UNL     1     -10.005   7.884  70.859  1.00  0.00    -0.196 A  
HETATM   27  C   UNL     1     -10.874   7.128  70.049  1.00  0.00    -0.276 A  
HETATM   28  C   UNL     1     -12.145   6.754  70.497  1.00  0.00    -0.332 A  
HETATM   29  C   UNL     1     -12.569   7.149  71.756  1.00  0.00    -0.346 A  
HETATM   30  F   UNL     1     -13.798   6.816  72.172  1.00  0.00    -0.329 F  
HETATM   31  C   UNL     1     -11.736   7.889  72.583  1.00  0.00    -0.398 A  
HETATM   32  C   UNL     1     -10.458   8.253  72.139  1.00  0.00    -0.371 A  
ENDBRANCH  24  26
ENDBRANCH  20  21
ENDBRANCH  16  20
ENDBRANCH   1  13
BRANCH   4  33
HETATM   33  C   UNL     1     -11.800  12.910  67.942  1.00  0.00    -0.339 C  
HETATM   34  O   UNL     1     -12.155  11.592  68.370  1.00  0.00    -0.556 OA 
HETATM   35  H   UNL     1     -12.491  11.619  69.258  1.00  0.00     0.000 HD 
ENDBRANCH   4  33
TORSDOF 5
ENDMDL
MODEL      103
REMARK 921   NORMALIZED FREE ENERGY PREDICTED BY IDOCK:   -6.43 KCAL/MOL
REMARK 922        TOTAL FREE ENERGY PREDICTED BY IDOCK:   -8.91 KCAL/MOL
REMARK 923 INTER-LIGAND FREE ENERGY PREDICTED BY IDOCK:   -8.66 KCAL/MOL
REMARK 924 INTRA-LIGAND FREE ENERGY PREDICTED BY IDOCK:   -0.25 KCAL/MOL
REMARK 927      BINDING AFFINITY PREDICTED BY RF-SCORE:    0.00 PKD
ROOT
HETATM    1  C   UNL     1      -8.890  10.459  66.385  1.00  0.00    -0.147 C  
HETATM    2  O   UNL     1      -9.997  11.287  66.805  1.00  0.00    -0.199 OA 
HETATM    3  H   UNL     1      -8.125   8.768  63.683  1.00  0.00     0.000 HD 
HETATM    4  C   UNL     1     -10.252  12.372  65.909  1.00  0.00    -0.251 C  
HETATM    5  O   UNL     1      -7.967   9.150  64.538  1.00  0.00    -0.114 OA 
HETATM    6  C   UNL     1     -10.655  11.842  64.526  1.00  0.00    -0.311 C  
HETATM    7  H   UNL     1      -9.252   9.817  62.405  1.00  0.00     0.000 HD 
HETATM    8  O   UNL     1      -9.946  10.375  62.738  1.00  0.00    -0.205 OA 
HETATM    9  O   UNL     1     -10.851  12.887  63.562  1.00  0.00    -0.532 OA 
HETATM   10  C   UNL     1      -9.537  10.944  63.991  1.00  0.00    -0.278 C  
HETATM   11  H   UNL     1     -11.101  12.560  62.706  1.00  0.00     0.000 HD 
HETATM   12  C   UNL     1      -9.148   9.837  64.993  1.00  0.00    -0.231 C  
ENDROOT
BRANCH   1  13
HETATM   13  C   UNL     1      -8.618   9.417  67.467  1.00  0.00    -0.122 A  
HETATM   14  C   UNL     1      -8.184   7.353  69.371  1.00  0.00    -0.131 A  
HETATM   15  C   UNL     1      -7.925   6.189  70.290  1.00  0.00    -0.107 C  
HETATM   16  C   UNL     1      -9.462   7.934  69.251  1.00  0.00    -0.152 A  
HETATM   17  C   UNL     1      -7.353   8.840  67.623  1.00  0.00    -0.085 A  
HETATM   18  C   UNL     1      -7.141   7.825  68.560  1.00  0.00    -0.073 A  
HETATM   19  C   UNL     1      -9.651   8.979  68.318  1.00  0.00    -0.158 A  
BRANCH  16  20
HETATM   20  C   UNL     1     -10.663   7.388  70.000  1.00  0.00    -0.258 C  
BRANCH  20  21
HETATM   21  C   UNL     1     -11.626   8.377  70.600  1.00  0.00    -0.191 A  
HETATM   22  C   UNL     1     -12.393   8.320  71.745  1.00  0.00    -0.366 A  
HETATM   23  C   UNL     1     -12.950   9.596  72.087  1.00  0.00    -0.493 A  
HETATM   24  C   UNL     1     -12.587  10.600  71.203  1.00  0.00    -0.423 A  
HETATM   25  S   UNL     1     -11.774   9.914  69.852  1.00  0.00     0.002 SA 
BRANCH  24  26
HETATM   26  C   UNL     1     -12.784  12.065  71.299  1.00  0.00    -0.382 A  
HETATM   27  C   UNL     1     -12.130  12.946  70.416  1.00  0.00    -0.385 A  
HETATM   28  C   UNL     1     -12.253  14.332  70.548  1.00  0.00    -0.427 A  
HETATM   29  C   UNL     1     -13.019  14.855  71.578  1.00  0.00    -0.342 A  
HETATM   30  F   UNL     1     -13.111  16.184  71.722  1.00  0.00    -0.497 F  
HETATM   31  C   UNL     1     -13.682  14.016  72.462  1.00  0.00    -0.651 A  
HETATM   32  C   UNL     1     -13.568  12.626  72.323  1.00  0.00    -0.508 A  
ENDBRANCH  24  26
ENDBRANCH  20  21
ENDBRANCH  16  20
ENDBRANCH   1  13
BRANCH   4  33
HETATM   33  C   UNL     1     -11.349  13.264  66.502  1.00  0.00    -0.322 C  
HETATM   34  O   UNL     1     -11.157  14.618  66.079  1.00  0.00    -0.321 OA 
HETATM   35  H   UNL     1     -11.836  15.171  66.446  1.00  0.00     0.000 HD 
ENDBRANCH   4  33
TORSDOF 5
ENDMDL
MODEL      104
REMARK 921   NORMALIZED FREE ENERGY PREDICTED BY IDOCK:   -6.42 KCAL/MOL
REMARK 922        TOTAL FREE ENERGY PREDICTED BY IDOCK:   -8.90 KCAL/MOL
REMARK 923 INTER-LIGAND FREE ENERGY PREDICTED BY IDOCK:   -8.18 KCAL/MOL
REMARK 924 INTRA-LIGAND FREE ENERGY PREDICTED BY IDOCK:   -0.72 KCAL/MOL
REMARK 927      BINDING AFFINITY PREDICTED BY RF-SCORE:    0.00 PKD
ROOT
HETATM    1  C   UNL     1      -9.152  16.227  67.195  1.00  0.00    -0.202 C  
HETATM    2  O   UNL     1      -9.889  17.469  67.192  1.00  0.00    -0.278 OA 
HETATM    3  H   UNL     1      -6.038  15.352  66.662  1.00  0.00     0.000 HD 
HETATM    4  C   UNL     1      -9.338  18.447  68.078  1.00  0.00    -0.291 C  
HETATM    5  O   UNL     1      -6.940  15.220  66.928  1.00  0.00    -0.181 OA 
HETATM    6  C   UNL     1      -7.917  18.827  67.639  1.00  0.00    -0.250 C  
HETATM    7  H   UNL     1      -5.205  17.120  67.095  1.00  0.00     0.000 HD 
HETATM    8  O   UNL     1      -5.743  17.902  67.114  1.00  0.00    -0.129 OA 
HETATM    9  O   UNL     1      -7.283  19.751  68.536  1.00  0.00    -0.311 OA 
HETATM   10  C   UNL     1      -7.050  17.567  67.609  1.00  0.00    -0.168 C  
HETATM   11  H   UNL     1      -6.404  19.987  68.264  1.00  0.00     0.000 HD 
HETATM   12  C   UNL     1      -7.683  16.442  66.763  1.00  0.00    -0.263 C  
ENDROOT
BRANCH   1  13
HETATM   13  C   UNL     1      -9.891  15.214  66.324  1.00  0.00    -0.317 A  
HETATM   14  C   UNL     1     -11.378  13.299  64.843  1.00  0.00    -0.337 A  
HETATM   15  C   UNL     1     -12.264  12.329  64.107  1.00  0.00    -0.539 C  
HETATM   16  C   UNL     1     -10.417  12.865  65.778  1.00  0.00    -0.293 A  
HETATM   17  C   UNL     1     -10.833  15.618  65.374  1.00  0.00    -0.394 A  
HETATM   18  C   UNL     1     -11.564  14.675  64.645  1.00  0.00    -0.406 A  
HETATM   19  C   UNL     1      -9.667  13.832  66.484  1.00  0.00    -0.301 A  
BRANCH  16  20
HETATM   20  C   UNL     1     -10.254  11.400  66.136  1.00  0.00    -0.282 C  
BRANCH  20  21
HETATM   21  C   UNL     1     -10.312  11.022  67.592  1.00  0.00    -0.191 A  
HETATM   22  C   UNL     1     -11.377  10.690  68.403  1.00  0.00    -0.348 A  
HETATM   23  C   UNL     1     -10.951  10.123  69.650  1.00  0.00    -0.305 A  
HETATM   24  C   UNL     1      -9.573  10.027  69.758  1.00  0.00    -0.216 A  
HETATM   25  S   UNL     1      -8.831  10.844  68.439  1.00  0.00    -0.153 SA 
BRANCH  24  26
HETATM   26  C   UNL     1      -8.748   9.340  70.778  1.00  0.00    -0.272 A  
HETATM   27  C   UNL     1      -7.344   9.458  70.778  1.00  0.00    -0.126 A  
HETATM   28  C   UNL     1      -6.554   8.753  71.691  1.00  0.00    -0.075 A  
HETATM   29  C   UNL     1      -7.160   7.907  72.606  1.00  0.00    -0.083 A  
HETATM   30  F   UNL     1      -6.400   7.208  73.461  1.00  0.00    -0.063 F  
HETATM   31  C   UNL     1      -8.540   7.772  72.639  1.00  0.00    -0.191 A  
HETATM   32  C   UNL     1      -9.332   8.487  71.731  1.00  0.00    -0.323 A  
ENDBRANCH  24  26
ENDBRANCH  20  21
ENDBRANCH  16  20
ENDBRANCH   1  13
BRANCH   4  33
HETATM   33  C   UNL     1     -10.256  19.674  68.106  1.00  0.00    -0.461 C  
HETATM   34  O   UNL     1     -11.012  19.744  66.893  1.00  0.00    -0.433 OA 
HETATM   35  H   UNL     1     -11.581  20.504  66.910  1.00  0.00     0.000 HD 
ENDBRANCH   4  33
TORSDOF 5
ENDMDL
MODEL      105
REMARK 921   NORMALIZED FREE ENERGY PREDICTED BY IDOCK:   -6.34 KCAL/MOL
REMARK 922        TOTAL FREE ENERGY PREDICTED BY IDOCK:   -8.80 KCAL/MOL
REMARK 923 INTER-LIGAND FREE ENERGY PREDICTED BY IDOCK:   -7.92 KCAL/MOL
REMARK 924 INTRA-LIGAND FREE ENERGY PREDICTED BY IDOCK:   -0.87 KCAL/MOL
REMARK 927      BINDING AFFINITY PREDICTED BY RF-SCORE:    0.00 PKD
ROOT
HETATM    1  C   UNL     1      -9.902  12.239  65.750  1.00  0.00    -0.244 C  
HETATM    2  O   UNL     1     -10.303  13.034  66.887  1.00  0.00    -0.242 OA 
HETATM    3  H   UNL     1     -11.457  10.550  63.410  1.00  0.00     0.000 HD 
HETATM    4  C   UNL     1     -11.186  14.102  66.537  1.00  0.00    -0.330 C  
HETATM    5  O   UNL     1     -10.706  10.945  63.838  1.00  0.00    -0.339 OA 
HETATM    6  C   UNL     1     -12.495  13.547  65.959  1.00  0.00    -0.399 C  
HETATM    7  H   UNL     1     -13.188  11.551  63.490  1.00  0.00     0.000 HD 
HETATM    8  O   UNL     1     -13.387  12.088  64.247  1.00  0.00    -0.709 OA 
HETATM    9  O   UNL     1     -13.394  14.577  65.519  1.00  0.00    -0.512 OA 
HETATM   10  C   UNL     1     -12.175  12.682  64.739  1.00  0.00    -0.465 C  
HETATM   11  H   UNL     1     -14.204  14.234  65.162  1.00  0.00     0.000 HD 
HETATM   12  C   UNL     1     -11.123  11.596  65.053  1.00  0.00    -0.249 C  
ENDROOT
BRANCH   1  13
HETATM   13  C   UNL     1      -8.865  11.216  66.206  1.00  0.00    -0.190 A  
HETATM   14  C   UNL     1      -7.070   9.209  67.116  1.00  0.00    -0.082 A  
HETATM   15  C   UNL     1      -6.197   8.066  67.560  1.00  0.00    -0.052 C  
HETATM   16  C   UNL     1      -7.604  10.137  68.033  1.00  0.00    -0.088 A  
HETATM   17  C   UNL     1      -8.302  10.299  65.312  1.00  0.00    -0.165 A  
HETATM   18  C   UNL     1      -7.419   9.312  65.761  1.00  0.00    -0.098 A  
HETATM   19  C   UNL     1      -8.473  11.145  67.557  1.00  0.00    -0.126 A  
BRANCH  16  20
HETATM   20  C   UNL     1      -7.374  10.007  69.528  1.00  0.00    -0.112 C  
BRANCH  20  21
HETATM   21  C   UNL     1      -8.421   9.294  70.340  1.00  0.00    -0.206 A  
HETATM   22  C   UNL     1      -9.754   9.579  70.556  1.00  0.00    -0.325 A  
HETATM   23  C   UNL     1     -10.449   8.481  71.163  1.00  0.00    -0.278 A  
HETATM   24  C   UNL     1      -9.636   7.382  71.387  1.00  0.00    -0.159 A  
HETATM   25  S   UNL     1      -7.998   7.800  71.069  1.00  0.00    -0.092 SA 
BRANCH  24  26
HETATM   26  C   UNL     1      -9.993   6.008  71.808  1.00  0.00    -0.199 A  
HETATM   27  C   UNL     1     -10.938   5.782  72.828  1.00  0.00    -0.314 A  
HETATM   28  C   UNL     1     -11.225   4.492  73.282  1.00  0.00    -0.388 A  
HETATM   29  C   UNL     1     -10.556   3.410  72.731  1.00  0.00    -0.083 A  
HETATM   30  F   UNL     1     -10.810   2.176  73.188  1.00  0.00    -0.210 F  
HETATM   31  C   UNL     1      -9.625   3.595  71.719  1.00  0.00    -0.221 A  
HETATM   32  C   UNL     1      -9.345   4.888  71.257  1.00  0.00    -0.202 A  
ENDBRANCH  24  26
ENDBRANCH  20  21
ENDBRANCH  16  20
ENDBRANCH   1  13
BRANCH   4  33
HETATM   33  C   UNL     1     -11.449  14.964  67.778  1.00  0.00    -0.338 C  
HETATM   34  O   UNL     1     -12.636  14.516  68.439  1.00  0.00    -0.508 OA 
HETATM   35  H   UNL     1     -12.800  15.049  69.208  1.00  0.00     0.000 HD 
ENDBRANCH   4  33
TORSDOF 5
ENDMDL
MODEL      106
REMARK 921   NORMALIZED FREE ENERGY PREDICTED BY IDOCK:   -6.30 KCAL/MOL
REMARK 922        TOTAL FREE ENERGY PREDICTED BY IDOCK:   -8.75 KCAL/MOL
REMARK 923 INTER-LIGAND FREE ENERGY PREDICTED BY IDOCK:   -7.92 KCAL/MOL
REMARK 924 INTRA-LIGAND FREE ENERGY PREDICTED BY IDOCK:   -0.82 KCAL/MOL
REMARK 927      BINDING AFFINITY PREDICTED BY RF-SCORE:    0.00 PKD
ROOT
HETATM    1  C   UNL     1      -9.474  17.453  67.209  1.00  0.00    -0.251 C  
HETATM    2  O   UNL     1      -8.091  17.072  67.370  1.00  0.00    -0.171 OA 
HETATM    3  H   UNL     1     -11.198  20.216  67.582  1.00  0.00     0.000 HD 
HETATM    4  C   UNL     1      -7.196  17.875  66.596  1.00  0.00    -0.219 C  
HETATM    5  O   UNL     1     -11.054  19.315  67.317  1.00  0.00    -0.442 OA 
HETATM    6  C   UNL     1      -7.260  19.339  67.052  1.00  0.00    -0.208 C  
HETATM    7  H   UNL     1      -9.676  21.494  67.345  1.00  0.00     0.000 HD 
HETATM    8  O   UNL     1      -8.783  21.182  67.428  1.00  0.00    -0.092 OA 
HETATM    9  O   UNL     1      -6.437  20.208  66.260  1.00  0.00    -0.193 OA 
HETATM   10  C   UNL     1      -8.699  19.841  66.919  1.00  0.00    -0.331 C  
HETATM   11  H   UNL     1      -6.476  21.114  66.542  1.00  0.00     0.000 HD 
HETATM   12  C   UNL     1      -9.708  18.920  67.638  1.00  0.00    -0.314 C  
ENDROOT
BRANCH   1  13
HETATM   13  C   UNL     1     -10.351  16.460  67.966  1.00  0.00    -0.288 A  
HETATM   14  C   UNL     1     -11.842  14.496  69.379  1.00  0.00    -0.367 A  
HETATM   15  C   UNL     1     -12.535  13.434  70.190  1.00  0.00    -0.243 C  
HETATM   16  C   UNL     1     -11.670  14.374  67.986  1.00  0.00    -0.374 A  
HETATM   17  C   UNL     1     -10.557  16.571  69.345  1.00  0.00    -0.329 A  
HETATM   18  C   UNL     1     -11.291  15.605  70.039  1.00  0.00    -0.341 A  
HETATM   19  C   UNL     1     -10.949  15.375  67.296  1.00  0.00    -0.317 A  
BRANCH  16  20
HETATM   20  C   UNL     1     -12.125  13.139  67.229  1.00  0.00    -0.329 C  
BRANCH  20  21
HETATM   21  C   UNL     1     -11.299  11.889  67.364  1.00  0.00    -0.324 A  
HETATM   22  C   UNL     1     -11.409  10.815  68.223  1.00  0.00    -0.376 A  
HETATM   23  C   UNL     1     -10.587   9.712  67.818  1.00  0.00    -0.320 A  
HETATM   24  C   UNL     1      -9.878   9.964  66.653  1.00  0.00    -0.207 A  
HETATM   25  S   UNL     1     -10.051  11.619  66.218  1.00  0.00    -0.229 SA 
BRANCH  24  26
HETATM   26  C   UNL     1      -9.082   9.043  65.810  1.00  0.00    -0.272 A  
HETATM   27  C   UNL     1      -8.706   9.398  64.500  1.00  0.00    -0.233 A  
HETATM   28  C   UNL     1      -8.019   8.505  63.673  1.00  0.00    -0.161 A  
HETATM   29  C   UNL     1      -7.715   7.237  64.142  1.00  0.00    -0.120 A  
HETATM   30  F   UNL     1      -7.083   6.370  63.337  1.00  0.00    -0.044 F  
HETATM   31  C   UNL     1      -8.063   6.856  65.429  1.00  0.00    -0.133 A  
HETATM   32  C   UNL     1      -8.742   7.755  66.262  1.00  0.00    -0.174 A  
ENDBRANCH  24  26
ENDBRANCH  20  21
ENDBRANCH  16  20
ENDBRANCH   1  13
BRANCH   4  33
HETATM   33  C   UNL     1      -5.775  17.314  66.729  1.00  0.00    -0.191 C  
HETATM   34  O   UNL     1      -5.829  15.913  67.012  1.00  0.00    -0.329 OA 
HETATM   35  H   UNL     1      -4.948  15.566  67.094  1.00  0.00     0.000 HD 
ENDBRANCH   4  33
TORSDOF 5
ENDMDL
MODEL      107
REMARK 921   NORMALIZED FREE ENERGY PREDICTED BY IDOCK:   -6.29 KCAL/MOL
REMARK 922        TOTAL FREE ENERGY PREDICTED BY IDOCK:   -8.72 KCAL/MOL
REMARK 923 INTER-LIGAND FREE ENERGY PREDICTED BY IDOCK:   -7.54 KCAL/MOL
REMARK 924 INTRA-LIGAND FREE ENERGY PREDICTED BY IDOCK:   -1.19 KCAL/MOL
REMARK 927      BINDING AFFINITY PREDICTED BY RF-SCORE:    0.00 PKD
ROOT
HETATM    1  C   UNL     1      -7.928   7.703  68.014  1.00  0.00    -0.122 C  
HETATM    2  O   UNL     1      -8.100   8.986  67.374  1.00  0.00    -0.106 OA 
HETATM    3  H   UNL     1      -8.497   4.582  67.190  1.00  0.00     0.000 HD 
HETATM    4  C   UNL     1      -7.436   9.074  66.111  1.00  0.00    -0.091 C  
HETATM    5  O   UNL     1      -8.155   5.286  67.729  1.00  0.00    -0.099 OA 
HETATM    6  C   UNL     1      -8.024   8.056  65.124  1.00  0.00    -0.127 C  
HETATM    7  H   UNL     1      -8.433   4.832  65.206  1.00  0.00     0.000 HD 
HETATM    8  O   UNL     1      -8.517   5.704  64.839  1.00  0.00    -0.144 OA 
HETATM    9  O   UNL     1      -7.344   8.045  63.860  1.00  0.00    -0.086 OA 
HETATM   10  C   UNL     1      -7.889   6.652  65.716  1.00  0.00    -0.105 C  
HETATM   11  H   UNL     1      -7.708   7.415  63.249  1.00  0.00     0.000 HD 
HETATM   12  C   UNL     1      -8.484   6.557  67.138  1.00  0.00    -0.112 C  
ENDROOT
BRANCH   1  13
HETATM   13  C   UNL     1      -8.559   7.757  69.402  1.00  0.00    -0.135 A  
HETATM   14  C   UNL     1      -9.811   7.697  71.952  1.00  0.00    -0.205 A  
HETATM   15  C   UNL     1     -10.451   7.551  73.308  1.00  0.00    -0.426 C  
HETATM   16  C   UNL     1     -10.553   8.087  70.819  1.00  0.00    -0.228 A  
HETATM   17  C   UNL     1      -7.839   7.398  70.546  1.00  0.00    -0.097 A  
HETATM   18  C   UNL     1      -8.456   7.369  71.800  1.00  0.00    -0.115 A  
HETATM   19  C   UNL     1      -9.905   8.138  69.564  1.00  0.00    -0.181 A  
BRANCH  16  20
HETATM   20  C   UNL     1     -12.050   8.330  70.887  1.00  0.00    -0.149 C  
BRANCH  20  21
HETATM   21  C   UNL     1     -12.524   9.749  71.042  1.00  0.00    -0.323 A  
HETATM   22  C   UNL     1     -13.217  10.370  72.061  1.00  0.00    -0.497 A  
HETATM   23  C   UNL     1     -13.213  11.798  71.927  1.00  0.00    -0.468 A  
HETATM   24  C   UNL     1     -12.510  12.235  70.815  1.00  0.00    -0.265 A  
HETATM   25  S   UNL     1     -12.075  10.887  69.839  1.00  0.00    -0.348 SA 
BRANCH  24  26
HETATM   26  C   UNL     1     -12.109  13.606  70.426  1.00  0.00    -0.421 A  
HETATM   27  C   UNL     1     -11.705  13.899  69.109  1.00  0.00    -0.382 A  
HETATM   28  C   UNL     1     -11.255  15.174  68.752  1.00  0.00    -0.293 A  
HETATM   29  C   UNL     1     -11.186  16.167  69.716  1.00  0.00    -0.343 A  
HETATM   30  F   UNL     1     -10.725  17.380  69.381  1.00  0.00    -0.313 F  
HETATM   31  C   UNL     1     -11.582  15.915  71.021  1.00  0.00    -0.465 A  
HETATM   32  C   UNL     1     -12.044  14.641  71.376  1.00  0.00    -0.416 A  
ENDBRANCH  24  26
ENDBRANCH  20  21
ENDBRANCH  16  20
ENDBRANCH   1  13
BRANCH   4  33
HETATM   33  C   UNL     1      -7.564  10.504  65.573  1.00  0.00    -0.120 C  
HETATM   34  O   UNL     1      -6.674  10.690  64.468  1.00  0.00    -0.352 OA 
HETATM   35  H   UNL     1      -6.753  11.576  64.135  1.00  0.00     0.000 HD 
ENDBRANCH   4  33
TORSDOF 5
ENDMDL
MODEL      108
REMARK 921   NORMALIZED FREE ENERGY PREDICTED BY IDOCK:   -6.25 KCAL/MOL
REMARK 922        TOTAL FREE ENERGY PREDICTED BY IDOCK:   -8.68 KCAL/MOL
REMARK 923 INTER-LIGAND FREE ENERGY PREDICTED BY IDOCK:   -7.75 KCAL/MOL
REMARK 924 INTRA-LIGAND FREE ENERGY PREDICTED BY IDOCK:   -0.93 KCAL/MOL
REMARK 927      BINDING AFFINITY PREDICTED BY RF-SCORE:    0.00 PKD
ROOT
HETATM    1  C   UNL     1     -11.409   9.241  69.514  1.00  0.00     0.103 C  
HETATM    2  O   UNL     1     -11.770  10.416  70.272  1.00  0.00    -0.273 OA 
HETATM    3  H   UNL     1     -10.533   6.167  70.239  1.00  0.00     0.000 HD 
HETATM    4  C   UNL     1     -12.862  10.190  71.166  1.00  0.00    -0.399 C  
HETATM    5  O   UNL     1     -10.791   6.881  69.668  1.00  0.00    -0.235 OA 
HETATM    6  C   UNL     1     -12.483   9.139  72.219  1.00  0.00    -0.333 C  
HETATM    7  H   UNL     1     -11.390   6.083  72.045  1.00  0.00     0.000 HD 
HETATM    8  O   UNL     1     -11.640   6.887  72.485  1.00  0.00    -0.261 OA 
HETATM    9  O   UNL     1     -13.568   8.815  73.101  1.00  0.00    -0.970 OA 
HETATM   10  C   UNL     1     -12.081   7.845  71.510  1.00  0.00    -0.306 C  
HETATM   11  H   UNL     1     -13.334   8.165  73.753  1.00  0.00     0.000 HD 
HETATM   12  C   UNL     1     -10.990   8.078  70.442  1.00  0.00    -0.248 C  
ENDROOT
BRANCH   1  13
HETATM   13  C   UNL     1     -10.330   9.620  68.503  1.00  0.00    -0.231 A  
HETATM   14  C   UNL     1      -8.204  10.225  66.717  1.00  0.00    -0.124 A  
HETATM   15  C   UNL     1      -7.042  10.434  65.782  1.00  0.00    -0.139 C  
HETATM   16  C   UNL     1      -8.314  10.926  67.934  1.00  0.00    -0.119 A  
HETATM   17  C   UNL     1     -10.212   8.956  67.278  1.00  0.00    -0.326 A  
HETATM   18  C   UNL     1      -9.166   9.255  66.400  1.00  0.00    -0.227 A  
HETATM   19  C   UNL     1      -9.394  10.631  68.797  1.00  0.00    -0.183 A  
BRANCH  16  20
HETATM   20  C   UNL     1      -7.242  11.893  68.401  1.00  0.00    -0.091 C  
BRANCH  20  21
HETATM   21  C   UNL     1      -7.344  13.325  67.951  1.00  0.00    -0.134 A  
HETATM   22  C   UNL     1      -8.278  13.967  67.164  1.00  0.00    -0.128 A  
HETATM   23  C   UNL     1      -8.146  15.394  67.223  1.00  0.00    -0.228 A  
HETATM   24  C   UNL     1      -7.122  15.809  68.060  1.00  0.00    -0.123 A  
HETATM   25  S   UNL     1      -6.200  14.448  68.565  1.00  0.00    -0.099 SA 
BRANCH  24  26
HETATM   26  C   UNL     1      -6.782  17.168  68.540  1.00  0.00    -0.178 A  
HETATM   27  C   UNL     1      -5.883  17.358  69.607  1.00  0.00    -0.242 A  
HETATM   28  C   UNL     1      -5.615  18.633  70.114  1.00  0.00    -0.237 A  
HETATM   29  C   UNL     1      -6.258  19.733  69.569  1.00  0.00    -0.324 A  
HETATM   30  F   UNL     1      -6.024  20.952  70.076  1.00  0.00    -0.390 F  
HETATM   31  C   UNL     1      -7.145  19.583  68.513  1.00  0.00    -0.352 A  
HETATM   32  C   UNL     1      -7.405  18.306  67.997  1.00  0.00    -0.244 A  
ENDBRANCH  24  26
ENDBRANCH  20  21
ENDBRANCH  16  20
ENDBRANCH   1  13
BRANCH   4  33
HETATM   33  C   UNL     1     -13.256  11.517  71.824  1.00  0.00    -0.351 C  
HETATM   34  O   UNL     1     -12.695  12.610  71.091  1.00  0.00    -0.358 OA 
HETATM   35  H   UNL     1     -12.939  13.433  71.498  1.00  0.00     0.000 HD 
ENDBRANCH   4  33
TORSDOF 5
ENDMDL
MODEL      109
REMARK 921   NORMALIZED FREE ENERGY PREDICTED BY IDOCK:   -6.21 KCAL/MOL
REMARK 922        TOTAL FREE ENERGY PREDICTED BY IDOCK:   -8.63 KCAL/MOL
REMARK 923 INTER-LIGAND FREE ENERGY PREDICTED BY IDOCK:   -8.17 KCAL/MOL
REMARK 924 INTRA-LIGAND FREE ENERGY PREDICTED BY IDOCK:   -0.46 KCAL/MOL
REMARK 927      BINDING AFFINITY PREDICTED BY RF-SCORE:    0.00 PKD
ROOT
HETATM    1  C   UNL     1      -9.331  11.712  66.568  1.00  0.00    -0.206 C  
HETATM    2  O   UNL     1     -10.040  11.752  65.310  1.00  0.00    -0.246 OA 
HETATM    3  H   UNL     1      -8.455   9.371  68.688  1.00  0.00     0.000 HD 
HETATM    4  C   UNL     1      -9.462  10.902  64.317  1.00  0.00    -0.250 C  
HETATM    5  O   UNL     1      -8.466  10.249  68.325  1.00  0.00    -0.116 OA 
HETATM    6  C   UNL     1      -9.526   9.434  64.763  1.00  0.00    -0.017 C  
HETATM    7  H   UNL     1      -8.476   7.844  67.396  1.00  0.00     0.000 HD 
HETATM    8  O   UNL     1      -8.929   7.935  66.566  1.00  0.00    -0.144 OA 
HETATM    9  O   UNL     1      -8.891   8.540  63.837  1.00  0.00    -0.413 OA 
HETATM   10  C   UNL     1      -8.796   9.287  66.100  1.00  0.00    -0.155 C  
HETATM   11  H   UNL     1      -8.931   7.632  64.113  1.00  0.00     0.000 HD 
HETATM   12  C   UNL     1      -9.311  10.284  67.160  1.00  0.00    -0.153 C  
ENDROOT
BRANCH   1  13
HETATM   13  C   UNL     1      -9.943  12.744  67.511  1.00  0.00    -0.210 A  
HETATM   14  C   UNL     1     -11.006  14.576  69.405  1.00  0.00    -0.275 A  
HETATM   15  C   UNL     1     -11.467  15.541  70.466  1.00  0.00    -0.368 C  
HETATM   16  C   UNL     1     -11.633  13.329  69.213  1.00  0.00    -0.370 A  
HETATM   17  C   UNL     1      -9.355  13.998  67.704  1.00  0.00    -0.203 A  
HETATM   18  C   UNL     1      -9.879  14.898  68.636  1.00  0.00    -0.225 A  
HETATM   19  C   UNL     1     -11.107  12.442  68.246  1.00  0.00    -0.283 A  
BRANCH  16  20
HETATM   20  C   UNL     1     -12.775  12.862  70.097  1.00  0.00     0.133 C  
BRANCH  20  21
HETATM   21  C   UNL     1     -12.592  11.578  70.859  1.00  0.00    -0.341 A  
HETATM   22  C   UNL     1     -13.343  11.001  71.862  1.00  0.00    -0.423 A  
HETATM   23  C   UNL     1     -12.967   9.638  72.105  1.00  0.00    -0.493 A  
HETATM   24  C   UNL     1     -11.945   9.203  71.275  1.00  0.00    -0.325 A  
HETATM   25  S   UNL     1     -11.314  10.534  70.388  1.00  0.00    -0.305 SA 
BRANCH  24  26
HETATM   26  C   UNL     1     -11.406   7.839  71.072  1.00  0.00    -0.287 A  
HETATM   27  C   UNL     1     -11.118   7.001  72.166  1.00  0.00    -0.279 A  
HETATM   28  C   UNL     1     -10.539   5.741  71.986  1.00  0.00    -0.276 A  
HETATM   29  C   UNL     1     -10.223   5.313  70.706  1.00  0.00    -0.246 A  
HETATM   30  F   UNL     1      -9.640   4.118  70.536  1.00  0.00    -0.198 F  
HETATM   31  C   UNL     1     -10.499   6.110  69.605  1.00  0.00    -0.312 A  
HETATM   32  C   UNL     1     -11.090   7.367  69.785  1.00  0.00    -0.169 A  
ENDBRANCH  24  26
ENDBRANCH  20  21
ENDBRANCH  16  20
ENDBRANCH   1  13
BRANCH   4  33
HETATM   33  C   UNL     1     -10.198  11.109  62.988  1.00  0.00    -0.214 C  
HETATM   34  O   UNL     1     -11.555  11.489  63.237  1.00  0.00    -0.801 OA 
HETATM   35  H   UNL     1     -12.011  11.618  62.414  1.00  0.00     0.000 HD 
ENDBRANCH   4  33
TORSDOF 5
ENDMDL
MODEL      110
REMARK 921   NORMALIZED FREE ENERGY PREDICTED BY IDOCK:   -6.20 KCAL/MOL
REMARK 922        TOTAL FREE ENERGY PREDICTED BY IDOCK:   -8.62 KCAL/MOL
REMARK 923 INTER-LIGAND FREE ENERGY PREDICTED BY IDOCK:   -7.92 KCAL/MOL
REMARK 924 INTRA-LIGAND FREE ENERGY PREDICTED BY IDOCK:   -0.70 KCAL/MOL
REMARK 927      BINDING AFFINITY PREDICTED BY RF-SCORE:    0.00 PKD
ROOT
HETATM    1  C   UNL     1     -10.097   7.175  69.536  1.00  0.00    -0.179 C  
HETATM    2  O   UNL     1     -10.076   6.160  70.563  1.00  0.00    -0.180 OA 
HETATM    3  H   UNL     1      -7.875   8.543  67.552  1.00  0.00     0.000 HD 
HETATM    4  C   UNL     1      -9.542   4.915  70.107  1.00  0.00    -0.193 C  
HETATM    5  O   UNL     1      -8.749   8.363  67.878  1.00  0.00    -0.136 OA 
HETATM    6  C   UNL     1      -8.075   5.083  69.685  1.00  0.00    -0.078 C  
HETATM    7  H   UNL     1      -6.560   7.035  67.573  1.00  0.00     0.000 HD 
HETATM    8  O   UNL     1      -6.613   6.374  68.253  1.00  0.00    -0.060 OA 
HETATM    9  O   UNL     1      -7.507   3.881  69.145  1.00  0.00    -0.053 OA 
HETATM   10  C   UNL     1      -7.991   6.148  68.590  1.00  0.00    -0.101 C  
HETATM   11  H   UNL     1      -6.600   3.984  68.884  1.00  0.00     0.000 HD 
HETATM   12  C   UNL     1      -8.675   7.468  69.004  1.00  0.00    -0.136 C  
ENDROOT
BRANCH   1  13
HETATM   13  C   UNL     1     -10.801   8.414  70.083  1.00  0.00    -0.238 A  
HETATM   14  C   UNL     1     -12.259  10.669  71.011  1.00  0.00    -0.498 A  
HETATM   15  C   UNL     1     -13.124  11.793  71.517  1.00  0.00    -0.389 C  
HETATM   16  C   UNL     1     -11.721  10.674  69.709  1.00  0.00    -0.385 A  
HETATM   17  C   UNL     1     -11.324   8.444  71.379  1.00  0.00    -0.317 A  
HETATM   18  C   UNL     1     -12.041   9.555  71.835  1.00  0.00    -0.409 A  
HETATM   19  C   UNL     1     -10.974   9.555  69.275  1.00  0.00    -0.167 A  
BRANCH  16  20
HETATM   20  C   UNL     1     -12.025  11.785  68.722  1.00  0.00    -0.317 C  
BRANCH  20  21
HETATM   21  C   UNL     1     -10.993  12.865  68.540  1.00  0.00    -0.259 A  
HETATM   22  C   UNL     1      -9.710  12.821  68.036  1.00  0.00    -0.220 A  
HETATM   23  C   UNL     1      -9.184  14.131  67.782  1.00  0.00    -0.193 A  
HETATM   24  C   UNL     1     -10.080  15.144  68.086  1.00  0.00    -0.222 A  
HETATM   25  S   UNL     1     -11.447  14.482  68.894  1.00  0.00    -0.319 SA 
BRANCH  24  26
HETATM   26  C   UNL     1     -10.006  16.594  67.797  1.00  0.00    -0.262 A  
HETATM   27  C   UNL     1      -9.566  17.508  68.774  1.00  0.00    -0.277 A  
HETATM   28  C   UNL     1      -9.564  18.886  68.533  1.00  0.00    -0.432 A  
HETATM   29  C   UNL     1     -10.021  19.366  67.316  1.00  0.00    -0.366 A  
HETATM   30  F   UNL     1     -10.048  20.688  67.098  1.00  0.00    -0.573 F  
HETATM   31  C   UNL     1     -10.455  18.493  66.329  1.00  0.00    -0.441 A  
HETATM   32  C   UNL     1     -10.446  17.113  66.566  1.00  0.00    -0.255 A  
ENDBRANCH  24  26
ENDBRANCH  20  21
ENDBRANCH  16  20
ENDBRANCH   1  13
BRANCH   4  33
HETATM   33  C   UNL     1      -9.681   3.870  71.220  1.00  0.00    -0.177 C  
HETATM   34  O   UNL     1      -8.419   3.674  71.865  1.00  0.00    -0.083 OA 
HETATM   35  H   UNL     1      -8.506   3.026  72.555  1.00  0.00     0.000 HD 
ENDBRANCH   4  33
TORSDOF 5
ENDMDL
MODEL      111
REMARK 921   NORMALIZED FREE ENERGY PREDICTED BY IDOCK:   -6.20 KCAL/MOL
REMARK 922        TOTAL FREE ENERGY PREDICTED BY IDOCK:   -8.62 KCAL/MOL
REMARK 923 INTER-LIGAND FREE ENERGY PREDICTED BY IDOCK:   -7.29 KCAL/MOL
REMARK 924 INTRA-LIGAND FREE ENERGY PREDICTED BY IDOCK:   -1.32 KCAL/MOL
REMARK 927      BINDING AFFINITY PREDICTED BY RF-SCORE:    0.00 PKD
ROOT
HETATM    1  C   UNL     1     -10.151   6.198  69.887  1.00  0.00    -0.178 C  
HETATM    2  O   UNL     1     -11.428   6.865  69.987  1.00  0.00    -0.306 OA 
HETATM    3  H   UNL     1      -7.306   6.339  71.509  1.00  0.00     0.000 HD 
HETATM    4  C   UNL     1     -12.023   6.742  71.281  1.00  0.00    -0.365 C  
HETATM    5  O   UNL     1      -7.930   5.985  70.886  1.00  0.00    -0.110 OA 
HETATM    6  C   UNL     1     -11.141   7.414  72.343  1.00  0.00    -0.287 C  
HETATM    7  H   UNL     1      -8.034   7.057  73.229  1.00  0.00     0.000 HD 
HETATM    8  O   UNL     1      -8.896   7.455  73.245  1.00  0.00    -0.133 OA 
HETATM    9  O   UNL     1     -11.651   7.256  73.675  1.00  0.00    -0.301 OA 
HETATM   10  C   UNL     1      -9.753   6.772  72.316  1.00  0.00    -0.147 C  
HETATM   11  H   UNL     1     -11.106   7.672  74.332  1.00  0.00     0.000 HD 
HETATM   12  C   UNL     1      -9.135   6.773  70.901  1.00  0.00    -0.153 C  
ENDROOT
BRANCH   1  13
HETATM   13  C   UNL     1      -9.666   6.276  68.443  1.00  0.00    -0.130 A  
HETATM   14  C   UNL     1      -8.593   6.404  65.815  1.00  0.00    -0.152 A  
HETATM   15  C   UNL     1      -7.949   6.388  64.453  1.00  0.00    -0.108 C  
HETATM   16  C   UNL     1      -8.569   7.549  66.635  1.00  0.00    -0.131 A  
HETATM   17  C   UNL     1      -9.700   5.161  67.600  1.00  0.00    -0.178 A  
HETATM   18  C   UNL     1      -9.172   5.225  66.307  1.00  0.00    -0.152 A  
HETATM   19  C   UNL     1      -9.133   7.474  67.929  1.00  0.00    -0.130 A  
BRANCH  16  20
HETATM   20  C   UNL     1      -7.846   8.817  66.218  1.00  0.00    -0.102 C  
BRANCH  20  21
HETATM   21  C   UNL     1      -8.681  10.007  65.831  1.00  0.00    -0.140 A  
HETATM   22  C   UNL     1      -9.838  10.102  65.086  1.00  0.00    -0.394 A  
HETATM   23  C   UNL     1     -10.453  11.393  65.204  1.00  0.00    -0.351 A  
HETATM   24  C   UNL     1      -9.758  12.249  66.044  1.00  0.00    -0.242 A  
HETATM   25  S   UNL     1      -8.253  11.538  66.477  1.00  0.00    -0.083 SA 
BRANCH  24  26
HETATM   26  C   UNL     1     -10.145  13.575  66.577  1.00  0.00    -0.282 A  
HETATM   27  C   UNL     1      -9.486  14.747  66.159  1.00  0.00    -0.324 A  
HETATM   28  C   UNL     1      -9.795  15.993  66.713  1.00  0.00    -0.260 A  
HETATM   29  C   UNL     1     -10.757  16.078  67.706  1.00  0.00    -0.323 A  
HETATM   30  F   UNL     1     -11.032  17.268  68.258  1.00  0.00    -0.361 F  
HETATM   31  C   UNL     1     -11.432  14.945  68.137  1.00  0.00    -0.348 A  
HETATM   32  C   UNL     1     -11.129  13.698  67.574  1.00  0.00    -0.296 A  
ENDBRANCH  24  26
ENDBRANCH  20  21
ENDBRANCH  16  20
ENDBRANCH   1  13
BRANCH   4  33
HETATM   33  C   UNL     1     -13.425   7.363  71.251  1.00  0.00    -0.262 C  
HETATM   34  O   UNL     1     -14.177   6.923  72.386  1.00  0.00    -0.563 OA 
HETATM   35  H   UNL     1     -15.045   7.308  72.368  1.00  0.00     0.000 HD 
ENDBRANCH   4  33
TORSDOF 5
ENDMDL
MODEL      112
REMARK 921   NORMALIZED FREE ENERGY PREDICTED BY IDOCK:   -6.17 KCAL/MOL
REMARK 922        TOTAL FREE ENERGY PREDICTED BY IDOCK:   -8.57 KCAL/MOL
REMARK 923 INTER-LIGAND FREE ENERGY PREDICTED BY IDOCK:   -7.51 KCAL/MOL
REMARK 924 INTRA-LIGAND FREE ENERGY PREDICTED BY IDOCK:   -1.05 KCAL/MOL
REMARK 927      BINDING AFFINITY PREDICTED BY RF-SCORE:    0.00 PKD
ROOT
HETATM    1  C   UNL     1      -9.283  16.743  66.621  1.00  0.00    -0.256 C  
HETATM    2  O   UNL     1      -8.455  17.071  67.757  1.00  0.00    -0.193 OA 
HETATM    3  H   UNL     1     -11.521  18.325  64.822  1.00  0.00     0.000 HD 
HETATM    4  C   UNL     1      -7.638  18.224  67.538  1.00  0.00    -0.215 C  
HETATM    5  O   UNL     1     -10.934  17.611  65.040  1.00  0.00    -0.780 OA 
HETATM    6  C   UNL     1      -8.512  19.465  67.313  1.00  0.00    -0.295 C  
HETATM    7  H   UNL     1     -10.891  20.182  65.217  1.00  0.00     0.000 HD 
HETATM    8  O   UNL     1     -10.317  20.337  65.958  1.00  0.00    -0.392 OA 
HETATM    9  O   UNL     1      -7.747  20.642  67.013  1.00  0.00    -0.418 OA 
HETATM   10  C   UNL     1      -9.435  19.215  66.119  1.00  0.00    -0.257 C  
HETATM   11  H   UNL     1      -8.288  21.410  66.874  1.00  0.00     0.000 HD 
HETATM   12  C   UNL     1     -10.239  17.905  66.266  1.00  0.00    -0.363 C  
ENDROOT
BRANCH   1  13
HETATM   13  C   UNL     1     -10.012  15.433  66.904  1.00  0.00    -0.247 A  
HETATM   14  C   UNL     1     -11.214  12.928  67.500  1.00  0.00    -0.329 A  
HETATM   15  C   UNL     1     -11.790  11.600  67.916  1.00  0.00    -0.273 C  
HETATM   16  C   UNL     1     -10.424  13.065  66.341  1.00  0.00    -0.285 A  
HETATM   17  C   UNL     1     -10.821  15.277  68.034  1.00  0.00    -0.288 A  
HETATM   18  C   UNL     1     -11.412  14.044  68.326  1.00  0.00    -0.337 A  
HETATM   19  C   UNL     1      -9.857  14.326  66.047  1.00  0.00    -0.336 A  
BRANCH  16  20
HETATM   20  C   UNL     1     -10.062  11.873  65.474  1.00  0.00    -0.277 C  
BRANCH  20  21
HETATM   21  C   UNL     1      -9.046  10.900  66.007  1.00  0.00    -0.191 A  
HETATM   22  C   UNL     1      -8.141  11.006  67.043  1.00  0.00    -0.136 A  
HETATM   23  C   UNL     1      -7.564   9.739  67.389  1.00  0.00    -0.091 A  
HETATM   24  C   UNL     1      -8.049   8.694  66.617  1.00  0.00    -0.100 A  
HETATM   25  S   UNL     1      -9.014   9.320  65.339  1.00  0.00    -0.212 SA 
BRANCH  24  26
HETATM   26  C   UNL     1      -7.862   7.234  66.774  1.00  0.00    -0.113 A  
HETATM   27  C   UNL     1      -7.589   6.412  65.663  1.00  0.00    -0.086 A  
HETATM   28  C   UNL     1      -7.485   5.024  65.792  1.00  0.00    -0.082 A  
HETATM   29  C   UNL     1      -7.672   4.439  67.035  1.00  0.00    -0.089 A  
HETATM   30  F   UNL     1      -7.602   3.106  67.152  1.00  0.00    -0.070 F  
HETATM   31  C   UNL     1      -7.935   5.218  68.151  1.00  0.00    -0.091 A  
HETATM   32  C   UNL     1      -8.027   6.611  68.024  1.00  0.00    -0.110 A  
ENDBRANCH  24  26
ENDBRANCH  20  21
ENDBRANCH  16  20
ENDBRANCH   1  13
BRANCH   4  33
HETATM   33  C   UNL     1      -6.705  18.414  68.740  1.00  0.00    -0.256 C  
HETATM   34  O   UNL     1      -6.961  19.678  69.360  1.00  0.00    -0.348 OA 
HETATM   35  H   UNL     1      -6.383  19.796  70.105  1.00  0.00     0.000 HD 
ENDBRANCH   4  33
TORSDOF 5
ENDMDL
MODEL      113
REMARK 921   NORMALIZED FREE ENERGY PREDICTED BY IDOCK:   -6.16 KCAL/MOL
REMARK 922        TOTAL FREE ENERGY PREDICTED BY IDOCK:   -8.56 KCAL/MOL
REMARK 923 INTER-LIGAND FREE ENERGY PREDICTED BY IDOCK:   -7.74 KCAL/MOL
REMARK 924 INTRA-LIGAND FREE ENERGY PREDICTED BY IDOCK:   -0.81 KCAL/MOL
REMARK 927      BINDING AFFINITY PREDICTED BY RF-SCORE:    0.00 PKD
ROOT
HETATM    1  C   UNL     1      -9.434  17.332  68.747  1.00  0.00    -0.256 C  
HETATM    2  O   UNL     1     -10.069  18.055  67.671  1.00  0.00    -0.315 OA 
HETATM    3  H   UNL     1      -6.415  16.201  69.344  1.00  0.00     0.000 HD 
HETATM    4  C   UNL     1      -9.417  19.291  67.367  1.00  0.00    -0.308 C  
HETATM    5  O   UNL     1      -7.317  16.412  69.555  1.00  0.00    -0.209 OA 
HETATM    6  C   UNL     1      -7.984  19.035  66.881  1.00  0.00    -0.259 C  
HETATM    7  H   UNL     1      -5.433  17.469  68.147  1.00  0.00     0.000 HD 
HETATM    8  O   UNL     1      -5.907  17.946  67.477  1.00  0.00    -0.144 OA 
HETATM    9  O   UNL     1      -7.253  20.246  66.632  1.00  0.00    -0.249 OA 
HETATM   10  C   UNL     1      -7.221  18.266  67.961  1.00  0.00    -0.236 C  
HETATM   11  H   UNL     1      -6.367  20.088  66.331  1.00  0.00     0.000 HD 
HETATM   12  C   UNL     1      -7.965  16.989  68.406  1.00  0.00    -0.239 C  
ENDROOT
BRANCH   1  13
HETATM   13  C   UNL     1     -10.275  16.103  69.079  1.00  0.00    -0.250 A  
HETATM   14  C   UNL     1     -11.691  13.734  69.756  1.00  0.00    -0.367 A  
HETATM   15  C   UNL     1     -12.374  12.471  70.210  1.00  0.00    -0.265 C  
HETATM   16  C   UNL     1     -10.965  13.793  68.550  1.00  0.00    -0.283 A  
HETATM   17  C   UNL     1     -11.023  16.027  70.258  1.00  0.00    -0.360 A  
HETATM   18  C   UNL     1     -11.720  14.861  70.590  1.00  0.00    -0.357 A  
HETATM   19  C   UNL     1     -10.290  14.989  68.217  1.00  0.00    -0.236 A  
BRANCH  16  20
HETATM   20  C   UNL     1     -10.783  12.574  67.664  1.00  0.00    -0.242 C  
BRANCH  20  21
HETATM   21  C   UNL     1      -9.981  11.423  68.210  1.00  0.00    -0.198 A  
HETATM   22  C   UNL     1      -8.730  11.380  68.789  1.00  0.00    -0.080 A  
HETATM   23  C   UNL     1      -8.470  10.120  69.423  1.00  0.00    -0.179 A  
HETATM   24  C   UNL     1      -9.532   9.235  69.323  1.00  0.00    -0.160 A  
HETATM   25  S   UNL     1     -10.721   9.876  68.258  1.00  0.00    -0.222 SA 
BRANCH  24  26
HETATM   26  C   UNL     1      -9.744   7.930  69.990  1.00  0.00    -0.179 A  
HETATM   27  C   UNL     1     -10.914   7.179  69.764  1.00  0.00    -0.256 A  
HETATM   28  C   UNL     1     -11.155   5.983  70.446  1.00  0.00    -0.399 A  
HETATM   29  C   UNL     1     -10.233   5.532  71.378  1.00  0.00    -0.215 A  
HETATM   30  F   UNL     1     -10.479   4.401  72.054  1.00  0.00    -0.248 F  
HETATM   31  C   UNL     1      -9.067   6.243  71.621  1.00  0.00    -0.145 A  
HETATM   32  C   UNL     1      -8.820   7.435  70.928  1.00  0.00    -0.148 A  
ENDBRANCH  24  26
ENDBRANCH  20  21
ENDBRANCH  16  20
ENDBRANCH   1  13
BRANCH   4  33
HETATM   33  C   UNL     1     -10.235  20.044  66.311  1.00  0.00    -0.478 C  
HETATM   34  O   UNL     1      -9.367  20.544  65.289  1.00  0.00    -0.260 OA 
HETATM   35  H   UNL     1      -9.873  21.010  64.634  1.00  0.00     0.000 HD 
ENDBRANCH   4  33
TORSDOF 5
ENDMDL
MODEL      114
REMARK 921   NORMALIZED FREE ENERGY PREDICTED BY IDOCK:   -6.15 KCAL/MOL
REMARK 922        TOTAL FREE ENERGY PREDICTED BY IDOCK:   -8.55 KCAL/MOL
REMARK 923 INTER-LIGAND FREE ENERGY PREDICTED BY IDOCK:   -7.43 KCAL/MOL
REMARK 924 INTRA-LIGAND FREE ENERGY PREDICTED BY IDOCK:   -1.12 KCAL/MOL
REMARK 927      BINDING AFFINITY PREDICTED BY RF-SCORE:    0.00 PKD
ROOT
HETATM    1  C   UNL     1     -10.264  13.353  66.282  1.00  0.00    -0.298 C  
HETATM    2  O   UNL     1      -9.204  14.333  66.246  1.00  0.00    -0.244 OA 
HETATM    3  H   UNL     1     -12.626  12.537  68.403  1.00  0.00     0.000 HD 
HETATM    4  C   UNL     1      -9.676  15.672  66.419  1.00  0.00    -0.279 C  
HETATM    5  O   UNL     1     -12.162  12.515  67.574  1.00  0.00    -0.418 OA 
HETATM    6  C   UNL     1     -10.323  15.837  67.801  1.00  0.00    -0.275 C  
HETATM    7  H   UNL     1     -12.732  14.297  69.348  1.00  0.00     0.000 HD 
HETATM    8  O   UNL     1     -12.021  14.921  69.262  1.00  0.00    -0.306 OA 
HETATM    9  O   UNL     1     -10.884  17.143  68.004  1.00  0.00    -0.378 OA 
HETATM   10  C   UNL     1     -11.468  14.832  67.939  1.00  0.00    -0.342 C  
HETATM   11  H   UNL     1     -11.284  17.246  68.859  1.00  0.00     0.000 HD 
HETATM   12  C   UNL     1     -11.019  13.388  67.631  1.00  0.00    -0.259 C  
ENDROOT
BRANCH   1  13
HETATM   13  C   UNL     1      -9.677  11.982  65.958  1.00  0.00    -0.256 A  
HETATM   14  C   UNL     1      -8.710   9.356  65.465  1.00  0.00    -0.190 A  
HETATM   15  C   UNL     1      -8.309   7.928  65.201  1.00  0.00    -0.128 C  
HETATM   16  C   UNL     1      -8.344  10.023  66.651  1.00  0.00    -0.125 A  
HETATM   17  C   UNL     1     -10.006  11.307  64.778  1.00  0.00    -0.327 A  
HETATM   18  C   UNL     1      -9.529  10.015  64.537  1.00  0.00    -0.359 A  
HETATM   19  C   UNL     1      -8.812  11.339  66.866  1.00  0.00    -0.165 A  
BRANCH  16  20
HETATM   20  C   UNL     1      -7.571   9.326  67.756  1.00  0.00    -0.084 C  
BRANCH  20  21
HETATM   21  C   UNL     1      -8.303   9.005  69.030  1.00  0.00    -0.124 A  
HETATM   22  C   UNL     1      -9.287   9.691  69.711  1.00  0.00    -0.238 A  
HETATM   23  C   UNL     1      -9.903   8.887  70.727  1.00  0.00    -0.278 A  
HETATM   24  C   UNL     1      -9.384   7.603  70.790  1.00  0.00    -0.162 A  
HETATM   25  S   UNL     1      -8.002   7.488  69.773  1.00  0.00    -0.126 SA 
BRANCH  24  26
HETATM   26  C   UNL     1      -9.860   6.424  71.549  1.00  0.00    -0.186 A  
HETATM   27  C   UNL     1      -9.472   5.120  71.186  1.00  0.00    -0.205 A  
HETATM   28  C   UNL     1      -9.976   3.999  71.851  1.00  0.00    -0.246 A  
HETATM   29  C   UNL     1     -10.891   4.169  72.878  1.00  0.00    -0.120 A  
HETATM   30  F   UNL     1     -11.398   3.092  73.495  1.00  0.00    -0.295 F  
HETATM   31  C   UNL     1     -11.290   5.440  73.267  1.00  0.00    -0.266 A  
HETATM   32  C   UNL     1     -10.776   6.564  72.607  1.00  0.00    -0.260 A  
ENDBRANCH  24  26
ENDBRANCH  20  21
ENDBRANCH  16  20
ENDBRANCH   1  13
BRANCH   4  33
HETATM   33  C   UNL     1      -8.505  16.645  66.236  1.00  0.00    -0.320 C  
HETATM   34  O   UNL     1      -7.988  17.032  67.512  1.00  0.00    -0.171 OA 
HETATM   35  H   UNL     1      -7.263  17.634  67.399  1.00  0.00     0.000 HD 
ENDBRANCH   4  33
TORSDOF 5
ENDMDL
MODEL      115
REMARK 921   NORMALIZED FREE ENERGY PREDICTED BY IDOCK:   -6.08 KCAL/MOL
REMARK 922        TOTAL FREE ENERGY PREDICTED BY IDOCK:   -8.46 KCAL/MOL
REMARK 923 INTER-LIGAND FREE ENERGY PREDICTED BY IDOCK:   -7.91 KCAL/MOL
REMARK 924 INTRA-LIGAND FREE ENERGY PREDICTED BY IDOCK:   -0.54 KCAL/MOL
REMARK 927      BINDING AFFINITY PREDICTED BY RF-SCORE:    0.00 PKD
ROOT
HETATM    1  C   UNL     1      -8.837  14.361  66.542  1.00  0.00    -0.089 C  
HETATM    2  O   UNL     1      -9.424  15.663  66.759  1.00  0.00    -0.221 OA 
HETATM    3  H   UNL     1      -9.958  11.400  65.697  1.00  0.00     0.000 HD 
HETATM    4  C   UNL     1     -10.167  16.134  65.632  1.00  0.00    -0.364 C  
HETATM    5  O   UNL     1      -9.293  12.053  65.879  1.00  0.00    -0.225 OA 
HETATM    6  C   UNL     1     -11.355  15.206  65.347  1.00  0.00    -0.298 C  
HETATM    7  H   UNL     1     -11.621  12.017  64.771  1.00  0.00     0.000 HD 
HETATM    8  O   UNL     1     -11.945  12.897  64.923  1.00  0.00    -0.347 OA 
HETATM    9  O   UNL     1     -12.096  15.587  64.178  1.00  0.00    -0.807 OA 
HETATM   10  C   UNL     1     -10.833  13.788  65.102  1.00  0.00    -0.345 C  
HETATM   11  H   UNL     1     -12.831  15.013  64.001  1.00  0.00     0.000 HD 
HETATM   12  C   UNL     1      -9.919  13.297  66.245  1.00  0.00    -0.291 C  
ENDROOT
BRANCH   1  13
HETATM   13  C   UNL     1      -7.963  14.009  67.743  1.00  0.00    -0.175 A  
HETATM   14  C   UNL     1      -6.194  13.351  69.867  1.00  0.00    -0.102 A  
HETATM   15  C   UNL     1      -5.179  13.075  70.945  1.00  0.00    -0.156 C  
HETATM   16  C   UNL     1      -6.649  12.339  68.999  1.00  0.00    -0.100 A  
HETATM   17  C   UNL     1      -7.516  14.990  68.634  1.00  0.00    -0.122 A  
HETATM   18  C   UNL     1      -6.646  14.665  69.679  1.00  0.00    -0.155 A  
HETATM   19  C   UNL     1      -7.551  12.681  67.965  1.00  0.00    -0.132 A  
BRANCH  16  20
HETATM   20  C   UNL     1      -6.104  10.924  69.062  1.00  0.00    -0.042 C  
BRANCH  20  21
HETATM   21  C   UNL     1      -6.929   9.884  69.771  1.00  0.00    -0.095 A  
HETATM   22  C   UNL     1      -6.681   9.149  70.912  1.00  0.00    -0.087 A  
HETATM   23  C   UNL     1      -7.856   8.481  71.391  1.00  0.00    -0.153 A  
HETATM   24  C   UNL     1      -8.975   8.729  70.612  1.00  0.00    -0.186 A  
HETATM   25  S   UNL     1      -8.513   9.576  69.188  1.00  0.00    -0.140 SA 
BRANCH  24  26
HETATM   26  C   UNL     1     -10.396   8.396  70.861  1.00  0.00    -0.234 A  
HETATM   27  C   UNL     1     -11.304   9.372  71.315  1.00  0.00    -0.436 A  
HETATM   28  C   UNL     1     -12.628   9.049  71.623  1.00  0.00    -0.414 A  
HETATM   29  C   UNL     1     -13.056   7.736  71.498  1.00  0.00    -0.320 A  
HETATM   30  F   UNL     1     -14.318   7.421  71.823  1.00  0.00    -0.456 F  
HETATM   31  C   UNL     1     -12.191   6.750  71.047  1.00  0.00    -0.405 A  
HETATM   32  C   UNL     1     -10.867   7.077  70.727  1.00  0.00    -0.272 A  
ENDBRANCH  24  26
ENDBRANCH  20  21
ENDBRANCH  16  20
ENDBRANCH   1  13
BRANCH   4  33
HETATM   33  C   UNL     1     -10.637  17.568  65.905  1.00  0.00    -0.203 C  
HETATM   34  O   UNL     1     -11.242  18.114  64.729  1.00  0.00    -0.543 OA 
HETATM   35  H   UNL     1     -11.534  19.002  64.897  1.00  0.00     0.000 HD 
ENDBRANCH   4  33
TORSDOF 5
ENDMDL
MODEL      116
REMARK 921   NORMALIZED FREE ENERGY PREDICTED BY IDOCK:   -6.07 KCAL/MOL
REMARK 922        TOTAL FREE ENERGY PREDICTED BY IDOCK:   -8.44 KCAL/MOL
REMARK 923 INTER-LIGAND FREE ENERGY PREDICTED BY IDOCK:   -7.11 KCAL/MOL
REMARK 924 INTRA-LIGAND FREE ENERGY PREDICTED BY IDOCK:   -1.33 KCAL/MOL
REMARK 927      BINDING AFFINITY PREDICTED BY RF-SCORE:    0.00 PKD
ROOT
HETATM    1  C   UNL     1      -8.961   7.857  66.696  1.00  0.00    -0.151 C  
HETATM    2  O   UNL     1      -9.821   6.699  66.625  1.00  0.00    -0.173 OA 
HETATM    3  H   UNL     1      -6.141   8.589  68.199  1.00  0.00     0.000 HD 
HETATM    4  C   UNL     1      -9.140   5.524  66.179  1.00  0.00    -0.150 C  
HETATM    5  O   UNL     1      -6.864   8.731  67.599  1.00  0.00    -0.069 OA 
HETATM    6  C   UNL     1      -8.033   5.137  67.170  1.00  0.00    -0.100 C  
HETATM    7  H   UNL     1      -5.471   6.715  68.399  1.00  0.00     0.000 HD 
HETATM    8  O   UNL     1      -6.074   5.987  68.308  1.00  0.00    -0.019 OA 
HETATM    9  O   UNL     1      -7.264   4.005  66.735  1.00  0.00    -0.069 OA 
HETATM   10  C   UNL     1      -7.061   6.309  67.316  1.00  0.00    -0.073 C  
HETATM   11  H   UNL     1      -6.579   3.765  67.349  1.00  0.00     0.000 HD 
HETATM   12  C   UNL     1      -7.784   7.626  67.672  1.00  0.00    -0.122 C  
ENDROOT
BRANCH   1  13
HETATM   13  C   UNL     1      -9.805   9.077  67.052  1.00  0.00    -0.270 A  
HETATM   14  C   UNL     1     -11.231  11.421  67.793  1.00  0.00    -0.346 A  
HETATM   15  C   UNL     1     -11.891  12.725  68.156  1.00  0.00    -0.372 C  
HETATM   16  C   UNL     1     -10.994  10.416  68.752  1.00  0.00    -0.287 A  
HETATM   17  C   UNL     1     -10.075  10.078  66.114  1.00  0.00    -0.317 A  
HETATM   18  C   UNL     1     -10.777  11.230  66.479  1.00  0.00    -0.323 A  
HETATM   19  C   UNL     1     -10.308   9.245  68.358  1.00  0.00    -0.244 A  
BRANCH  16  20
HETATM   20  C   UNL     1     -11.340  10.610  70.217  1.00  0.00    -0.401 C  
BRANCH  20  21
HETATM   21  C   UNL     1     -11.552   9.380  71.057  1.00  0.00    -0.330 A  
HETATM   22  C   UNL     1     -12.660   8.576  71.228  1.00  0.00    -0.248 A  
HETATM   23  C   UNL     1     -12.340   7.349  71.897  1.00  0.00    -0.343 A  
HETATM   24  C   UNL     1     -10.994   7.239  72.211  1.00  0.00    -0.249 A  
HETATM   25  S   UNL     1     -10.203   8.732  71.895  1.00  0.00    -0.333 SA 
BRANCH  24  26
HETATM   26  C   UNL     1     -10.231   6.076  72.719  1.00  0.00    -0.209 A  
HETATM   27  C   UNL     1     -10.478   4.776  72.235  1.00  0.00    -0.255 A  
HETATM   28  C   UNL     1      -9.815   3.664  72.762  1.00  0.00    -0.204 A  
HETATM   29  C   UNL     1      -8.908   3.838  73.796  1.00  0.00    -0.088 A  
HETATM   30  F   UNL     1      -8.296   2.769  74.322  1.00  0.00    -0.065 F  
HETATM   31  C   UNL     1      -8.636   5.105  74.293  1.00  0.00    -0.113 A  
HETATM   32  C   UNL     1      -9.292   6.220  73.756  1.00  0.00    -0.144 A  
ENDBRANCH  24  26
ENDBRANCH  20  21
ENDBRANCH  16  20
ENDBRANCH   1  13
BRANCH   4  33
HETATM   33  C   UNL     1     -10.155   4.388  66.010  1.00  0.00    -0.239 C  
HETATM   34  O   UNL     1     -11.184   4.785  65.099  1.00  0.00    -0.808 OA 
HETATM   35  H   UNL     1     -11.813   4.081  64.994  1.00  0.00     0.000 HD 
ENDBRANCH   4  33
TORSDOF 5
ENDMDL
MODEL      117
REMARK 921   NORMALIZED FREE ENERGY PREDICTED BY IDOCK:   -6.05 KCAL/MOL
REMARK 922        TOTAL FREE ENERGY PREDICTED BY IDOCK:   -8.41 KCAL/MOL
REMARK 923 INTER-LIGAND FREE ENERGY PREDICTED BY IDOCK:   -7.33 KCAL/MOL
REMARK 924 INTRA-LIGAND FREE ENERGY PREDICTED BY IDOCK:   -1.08 KCAL/MOL
REMARK 927      BINDING AFFINITY PREDICTED BY RF-SCORE:    0.00 PKD
ROOT
HETATM    1  C   UNL     1      -9.789  12.435  65.496  1.00  0.00    -0.200 C  
HETATM    2  O   UNL     1     -10.058  13.790  65.919  1.00  0.00    -0.299 OA 
HETATM    3  H   UNL     1     -11.537  10.018  64.138  1.00  0.00     0.000 HD 
HETATM    4  C   UNL     1     -10.595  14.604  64.874  1.00  0.00    -0.422 C  
HETATM    5  O   UNL     1     -10.747  10.448  64.442  1.00  0.00     0.025 OA 
HETATM    6  C   UNL     1     -11.952  14.056  64.410  1.00  0.00    -0.454 C  
HETATM    7  H   UNL     1     -12.942  11.168  63.296  1.00  0.00     0.000 HD 
HETATM    8  O   UNL     1     -13.053  12.064  63.588  1.00  0.00    -0.756 OA 
HETATM    9  O   UNL     1     -12.505  14.791  63.308  1.00  0.00    -0.798 OA 
HETATM   10  C   UNL     1     -11.772  12.612  63.939  1.00  0.00    -0.457 C  
HETATM   11  H   UNL     1     -13.345  14.453  63.022  1.00  0.00     0.000 HD 
HETATM   12  C   UNL     1     -11.075  11.734  65.001  1.00  0.00    -0.284 C  
ENDROOT
BRANCH   1  13
HETATM   13  C   UNL     1      -9.102  11.690  66.637  1.00  0.00    -0.196 A  
HETATM   14  C   UNL     1      -7.678  10.410  68.737  1.00  0.00    -0.104 A  
HETATM   15  C   UNL     1      -6.883   9.837  69.880  1.00  0.00    -0.085 C  
HETATM   16  C   UNL     1      -7.413  10.059  67.398  1.00  0.00    -0.091 A  
HETATM   17  C   UNL     1      -9.364  12.003  67.975  1.00  0.00    -0.196 A  
HETATM   18  C   UNL     1      -8.663  11.372  69.007  1.00  0.00     0.079 A  
HETATM   19  C   UNL     1      -8.151  10.687  66.369  1.00  0.00    -0.148 A  
BRANCH  16  20
HETATM   20  C   UNL     1      -6.276   9.126  67.026  1.00  0.00    -0.058 C  
BRANCH  20  21
HETATM   21  C   UNL     1      -6.563   7.649  66.988  1.00  0.00    -0.062 A  
HETATM   22  C   UNL     1      -6.614   6.707  67.995  1.00  0.00    -0.062 A  
HETATM   23  C   UNL     1      -7.201   5.476  67.554  1.00  0.00    -0.075 A  
HETATM   24  C   UNL     1      -7.595   5.509  66.225  1.00  0.00    -0.091 A  
HETATM   25  S   UNL     1      -7.023   6.954  65.489  1.00  0.00    -0.061 SA 
BRANCH  24  26
HETATM   26  C   UNL     1      -8.398   4.536  65.450  1.00  0.00    -0.117 A  
HETATM   27  C   UNL     1      -7.783   3.486  64.741  1.00  0.00    -0.078 A  
HETATM   28  C   UNL     1      -8.528   2.609  63.947  1.00  0.00    -0.086 A  
HETATM   29  C   UNL     1      -9.899   2.784  63.839  1.00  0.00    -0.149 A  
HETATM   30  F   UNL     1     -10.609   1.962  63.054  1.00  0.00    -0.103 F  
HETATM   31  C   UNL     1     -10.539   3.803  64.530  1.00  0.00    -0.168 A  
HETATM   32  C   UNL     1      -9.793   4.675  65.335  1.00  0.00    -0.172 A  
ENDBRANCH  24  26
ENDBRANCH  20  21
ENDBRANCH  16  20
ENDBRANCH   1  13
BRANCH   4  33
HETATM   33  C   UNL     1     -10.722  16.047  65.376  1.00  0.00    -0.383 C  
HETATM   34  O   UNL     1     -11.142  16.900  64.306  1.00  0.00    -1.281 OA 
HETATM   35  H   UNL     1     -11.221  17.794  64.617  1.00  0.00     0.000 HD 
ENDBRANCH   4  33
TORSDOF 5
ENDMDL
MODEL      118
REMARK 921   NORMALIZED FREE ENERGY PREDICTED BY IDOCK:   -6.03 KCAL/MOL
REMARK 922        TOTAL FREE ENERGY PREDICTED BY IDOCK:   -8.39 KCAL/MOL
REMARK 923 INTER-LIGAND FREE ENERGY PREDICTED BY IDOCK:   -7.39 KCAL/MOL
REMARK 924 INTRA-LIGAND FREE ENERGY PREDICTED BY IDOCK:   -1.01 KCAL/MOL
REMARK 927      BINDING AFFINITY PREDICTED BY RF-SCORE:    0.00 PKD
ROOT
HETATM    1  C   UNL     1      -7.210   7.571  67.571  1.00  0.00    -0.090 C  
HETATM    2  O   UNL     1      -7.911   8.668  66.946  1.00  0.00    -0.090 OA 
HETATM    3  H   UNL     1      -7.213   4.308  67.257  1.00  0.00     0.000 HD 
HETATM    4  C   UNL     1      -7.764   8.685  65.524  1.00  0.00    -0.092 C  
HETATM    5  O   UNL     1      -6.898   5.146  67.575  1.00  0.00    -0.054 OA 
HETATM    6  C   UNL     1      -8.375   7.420  64.906  1.00  0.00    -0.022 C  
HETATM    7  H   UNL     1      -7.898   4.239  65.378  1.00  0.00     0.000 HD 
HETATM    8  O   UNL     1      -8.321   5.002  65.003  1.00  0.00    -0.126 OA 
HETATM    9  O   UNL     1      -8.191   7.345  63.484  1.00  0.00    -0.328 OA 
HETATM   10  C   UNL     1      -7.694   6.191  65.510  1.00  0.00    -0.094 C  
HETATM   11  H   UNL     1      -8.569   6.563  63.102  1.00  0.00     0.000 HD 
HETATM   12  C   UNL     1      -7.721   6.207  67.054  1.00  0.00    -0.100 C  
ENDROOT
BRANCH   1  13
HETATM   13  C   UNL     1      -7.319   7.717  69.086  1.00  0.00    -0.089 A  
HETATM   14  C   UNL     1      -7.523   7.808  71.919  1.00  0.00    -0.078 A  
HETATM   15  C   UNL     1      -7.557   7.766  73.424  1.00  0.00    -0.156 C  
HETATM   16  C   UNL     1      -8.676   7.574  71.143  1.00  0.00    -0.136 A  
HETATM   17  C   UNL     1      -6.195   7.972  69.878  1.00  0.00    -0.029 A  
HETATM   18  C   UNL     1      -6.297   8.017  71.272  1.00  0.00    -0.035 A  
HETATM   19  C   UNL     1      -8.560   7.560  69.734  1.00  0.00    -0.140 A  
BRANCH  16  20
HETATM   20  C   UNL     1     -10.007   7.212  71.776  1.00  0.00    -0.186 C  
BRANCH  20  21
HETATM   21  C   UNL     1     -11.149   8.177  71.609  1.00  0.00    -0.255 A  
HETATM   22  C   UNL     1     -12.467   8.105  72.012  1.00  0.00    -0.375 A  
HETATM   23  C   UNL     1     -13.138   9.367  71.896  1.00  0.00    -0.505 A  
HETATM   24  C   UNL     1     -12.315  10.376  71.418  1.00  0.00    -0.397 A  
HETATM   25  S   UNL     1     -10.819   9.705  70.901  1.00  0.00    -0.337 SA 
BRANCH  24  26
HETATM   26  C   UNL     1     -12.555  11.834  71.334  1.00  0.00    -0.367 A  
HETATM   27  C   UNL     1     -13.342  12.498  72.295  1.00  0.00    -0.475 A  
HETATM   28  C   UNL     1     -13.634  13.861  72.181  1.00  0.00    -0.599 A  
HETATM   29  C   UNL     1     -13.156  14.572  71.092  1.00  0.00    -0.359 A  
HETATM   30  F   UNL     1     -13.463  15.871  70.967  1.00  0.00    -0.528 F  
HETATM   31  C   UNL     1     -12.373  13.951  70.130  1.00  0.00    -0.400 A  
HETATM   32  C   UNL     1     -12.071  12.589  70.251  1.00  0.00    -0.373 A  
ENDBRANCH  24  26
ENDBRANCH  20  21
ENDBRANCH  16  20
ENDBRANCH   1  13
BRANCH   4  33
HETATM   33  C   UNL     1      -8.428   9.950  64.965  1.00  0.00    -0.154 C  
HETATM   34  O   UNL     1      -9.715   9.629  64.431  1.00  0.00    -0.415 OA 
HETATM   35  H   UNL     1     -10.127  10.412  64.085  1.00  0.00     0.000 HD 
ENDBRANCH   4  33
TORSDOF 5
ENDMDL
MODEL      119
REMARK 921   NORMALIZED FREE ENERGY PREDICTED BY IDOCK:   -6.02 KCAL/MOL
REMARK 922        TOTAL FREE ENERGY PREDICTED BY IDOCK:   -8.38 KCAL/MOL
REMARK 923 INTER-LIGAND FREE ENERGY PREDICTED BY IDOCK:   -7.52 KCAL/MOL
REMARK 924 INTRA-LIGAND FREE ENERGY PREDICTED BY IDOCK:   -0.86 KCAL/MOL
REMARK 927      BINDING AFFINITY PREDICTED BY RF-SCORE:    0.00 PKD
ROOT
HETATM    1  C   UNL     1      -9.965  13.902  66.988  1.00  0.00    -0.258 C  
HETATM    2  O   UNL     1      -9.077  15.023  66.786  1.00  0.00    -0.229 OA 
HETATM    3  H   UNL     1     -12.275  13.111  69.176  1.00  0.00     0.000 HD 
HETATM    4  C   UNL     1      -9.768  16.271  66.687  1.00  0.00    -0.250 C  
HETATM    5  O   UNL     1     -11.770  13.013  68.377  1.00  0.00    -0.311 OA 
HETATM    6  C   UNL     1     -10.506  16.581  67.996  1.00  0.00    -0.313 C  
HETATM    7  H   UNL     1     -12.714  14.974  69.760  1.00  0.00     0.000 HD 
HETATM    8  O   UNL     1     -12.109  15.681  69.570  1.00  0.00    -0.360 OA 
HETATM    9  O   UNL     1     -11.281  17.788  67.930  1.00  0.00    -0.077 OA 
HETATM   10  C   UNL     1     -11.480  15.441  68.301  1.00  0.00    -0.353 C  
HETATM   11  H   UNL     1     -11.737  17.980  68.740  1.00  0.00     0.000 HD 
HETATM   12  C   UNL     1     -10.787  14.062  68.288  1.00  0.00    -0.255 C  
ENDROOT
BRANCH   1  13
HETATM   13  C   UNL     1      -9.149  12.614  66.949  1.00  0.00    -0.218 A  
HETATM   14  C   UNL     1      -7.624  10.230  66.696  1.00  0.00    -0.110 A  
HETATM   15  C   UNL     1      -6.754   9.020  66.478  1.00  0.00    -0.075 C  
HETATM   16  C   UNL     1      -9.013  10.197  66.463  1.00  0.00    -0.161 A  
HETATM   17  C   UNL     1      -7.773  12.613  67.199  1.00  0.00    -0.094 A  
HETATM   18  C   UNL     1      -7.024  11.440  67.074  1.00  0.00    -0.135 A  
HETATM   19  C   UNL     1      -9.759  11.387  66.621  1.00  0.00    -0.224 A  
BRANCH  16  20
HETATM   20  C   UNL     1      -9.706   8.958  65.927  1.00  0.00    -0.259 C  
BRANCH  20  21
HETATM   21  C   UNL     1     -10.294   7.997  66.924  1.00  0.00    -0.338 A  
HETATM   22  C   UNL     1     -10.839   6.739  66.761  1.00  0.00    -0.296 A  
HETATM   23  C   UNL     1     -11.018   6.062  68.013  1.00  0.00    -0.340 A  
HETATM   24  C   UNL     1     -10.598   6.812  69.100  1.00  0.00    -0.232 A  
HETATM   25  S   UNL     1     -10.216   8.409  68.587  1.00  0.00    -0.196 SA 
BRANCH  24  26
HETATM   26  C   UNL     1     -10.434   6.418  70.518  1.00  0.00    -0.270 A  
HETATM   27  C   UNL     1     -10.295   5.065  70.885  1.00  0.00    -0.260 A  
HETATM   28  C   UNL     1     -10.215   4.679  72.226  1.00  0.00    -0.256 A  
HETATM   29  C   UNL     1     -10.291   5.644  73.219  1.00  0.00    -0.211 A  
HETATM   30  F   UNL     1     -10.245   5.270  74.505  1.00  0.00    -0.205 F  
HETATM   31  C   UNL     1     -10.421   6.986  72.893  1.00  0.00    -0.283 A  
HETATM   32  C   UNL     1     -10.490   7.373  71.548  1.00  0.00    -0.219 A  
ENDBRANCH  24  26
ENDBRANCH  20  21
ENDBRANCH  16  20
ENDBRANCH   1  13
BRANCH   4  33
HETATM   33  C   UNL     1      -8.762  17.376  66.343  1.00  0.00    -0.242 C  
HETATM   34  O   UNL     1      -9.456  18.589  66.039  1.00  0.00    -0.492 OA 
HETATM   35  H   UNL     1      -8.833  19.274  65.826  1.00  0.00     0.000 HD 
ENDBRANCH   4  33
TORSDOF 5
ENDMDL
MODEL      120
REMARK 921   NORMALIZED FREE ENERGY PREDICTED BY IDOCK:   -6.01 KCAL/MOL
REMARK 922        TOTAL FREE ENERGY PREDICTED BY IDOCK:   -8.37 KCAL/MOL
REMARK 923 INTER-LIGAND FREE ENERGY PREDICTED BY IDOCK:   -8.12 KCAL/MOL
REMARK 924 INTRA-LIGAND FREE ENERGY PREDICTED BY IDOCK:   -0.25 KCAL/MOL
REMARK 927      BINDING AFFINITY PREDICTED BY RF-SCORE:    0.00 PKD
ROOT
HETATM    1  C   UNL     1     -11.742  12.731  67.164  1.00  0.00    -0.380 C  
HETATM    2  O   UNL     1     -10.821  11.619  67.151  1.00  0.00    -0.234 OA 
HETATM    3  H   UNL     1     -11.762  15.768  65.930  1.00  0.00     0.000 HD 
HETATM    4  C   UNL     1     -10.455  11.213  65.830  1.00  0.00    -0.253 C  
HETATM    5  O   UNL     1     -12.134  15.005  66.358  1.00  0.00    -0.073 OA 
HETATM    6  C   UNL     1      -9.718  12.348  65.105  1.00  0.00    -0.050 C  
HETATM    7  H   UNL     1     -10.461  15.443  64.445  1.00  0.00     0.000 HD 
HETATM    8  O   UNL     1      -9.902  14.675  64.469  1.00  0.00     0.030 OA 
HETATM    9  O   UNL     1      -9.391  12.024  63.746  1.00  0.00    -0.511 OA 
HETATM   10  C   UNL     1     -10.619  13.583  65.067  1.00  0.00    -0.372 C  
HETATM   11  H   UNL     1      -8.934  12.726  63.297  1.00  0.00     0.000 HD 
HETATM   12  C   UNL     1     -11.138  13.972  66.468  1.00  0.00    -0.314 C  
ENDROOT
BRANCH   1  13
HETATM   13  C   UNL     1     -12.170  13.000  68.604  1.00  0.00    -0.037 A  
HETATM   14  C   UNL     1     -12.795  13.467  71.336  1.00  0.00    -0.420 A  
HETATM   15  C   UNL     1     -13.023  13.769  72.794  1.00  0.00    -0.345 C  
HETATM   16  C   UNL     1     -12.709  12.145  70.856  1.00  0.00    -0.280 A  
HETATM   17  C   UNL     1     -12.285  14.302  69.100  1.00  0.00    -0.272 A  
HETATM   18  C   UNL     1     -12.593  14.531  70.445  1.00  0.00    -0.405 A  
HETATM   19  C   UNL     1     -12.425  11.933  69.488  1.00  0.00     0.067 A  
BRANCH  16  20
HETATM   20  C   UNL     1     -12.787  10.949  71.787  1.00  0.00    -0.509 C  
BRANCH  20  21
HETATM   21  C   UNL     1     -11.889   9.776  71.500  1.00  0.00    -0.399 A  
HETATM   22  C   UNL     1     -10.641   9.709  70.916  1.00  0.00    -0.386 A  
HETATM   23  C   UNL     1     -10.027   8.425  71.098  1.00  0.00    -0.245 A  
HETATM   24  C   UNL     1     -10.815   7.547  71.825  1.00  0.00    -0.227 A  
HETATM   25  S   UNL     1     -12.375   8.230  72.062  1.00  0.00    -0.366 SA 
BRANCH  24  26
HETATM   26  C   UNL     1     -10.482   6.218  72.388  1.00  0.00    -0.223 A  
HETATM   27  C   UNL     1     -10.085   5.154  71.554  1.00  0.00    -0.257 A  
HETATM   28  C   UNL     1      -9.842   3.878  72.069  1.00  0.00    -0.245 A  
HETATM   29  C   UNL     1     -10.010   3.646  73.425  1.00  0.00    -0.119 A  
HETATM   30  F   UNL     1      -9.806   2.414  73.914  1.00  0.00    -0.104 F  
HETATM   31  C   UNL     1     -10.393   4.672  74.276  1.00  0.00    -0.311 A  
HETATM   32  C   UNL     1     -10.626   5.954  73.761  1.00  0.00    -0.275 A  
ENDBRANCH  24  26
ENDBRANCH  20  21
ENDBRANCH  16  20
ENDBRANCH   1  13
BRANCH   4  33
HETATM   33  C   UNL     1      -9.586   9.953  65.914  1.00  0.00    -0.239 C  
HETATM   34  O   UNL     1     -10.406   8.813  66.188  1.00  0.00    -0.365 OA 
HETATM   35  H   UNL     1      -9.868   8.032  66.240  1.00  0.00     0.000 HD 
ENDBRANCH   4  33
TORSDOF 5
ENDMDL
MODEL      121
REMARK 921   NORMALIZED FREE ENERGY PREDICTED BY IDOCK:   -5.97 KCAL/MOL
REMARK 922        TOTAL FREE ENERGY PREDICTED BY IDOCK:   -8.31 KCAL/MOL
REMARK 923 INTER-LIGAND FREE ENERGY PREDICTED BY IDOCK:   -7.25 KCAL/MOL
REMARK 924 INTRA-LIGAND FREE ENERGY PREDICTED BY IDOCK:   -1.06 KCAL/MOL
REMARK 927      BINDING AFFINITY PREDICTED BY RF-SCORE:    0.00 PKD
ROOT
HETATM    1  C   UNL     1      -9.482  17.469  67.269  1.00  0.00    -0.253 C  
HETATM    2  O   UNL     1      -8.081  17.164  67.441  1.00  0.00    -0.174 OA 
HETATM    3  H   UNL     1     -11.335  20.163  67.493  1.00  0.00     0.000 HD 
HETATM    4  C   UNL     1      -7.231  17.962  66.614  1.00  0.00    -0.219 C  
HETATM    5  O   UNL     1     -11.150  19.256  67.281  1.00  0.00    -0.442 OA 
HETATM    6  C   UNL     1      -7.362  19.446  66.984  1.00  0.00    -0.213 C  
HETATM    7  H   UNL     1      -9.878  21.496  67.170  1.00  0.00     0.000 HD 
HETATM    8  O   UNL     1      -8.971  21.233  67.264  1.00  0.00    -0.002 OA 
HETATM    9  O   UNL     1      -6.587  20.306  66.136  1.00  0.00    -0.212 OA 
HETATM   10  C   UNL     1      -8.825  19.870  66.834  1.00  0.00    -0.342 C  
HETATM   11  H   UNL     1      -6.668  21.224  66.365  1.00  0.00     0.000 HD 
HETATM   12  C   UNL     1      -9.784  18.946  67.614  1.00  0.00    -0.314 C  
ENDROOT
BRANCH   1  13
HETATM   13  C   UNL     1     -10.305  16.481  68.091  1.00  0.00    -0.296 A  
HETATM   14  C   UNL     1     -11.702  14.524  69.604  1.00  0.00    -0.356 A  
HETATM   15  C   UNL     1     -12.341  13.459  70.458  1.00  0.00    -0.401 C  
HETATM   16  C   UNL     1     -11.685  14.437  68.198  1.00  0.00    -0.377 A  
HETATM   17  C   UNL     1     -10.359  16.558  69.486  1.00  0.00    -0.266 A  
HETATM   18  C   UNL     1     -11.047  15.594  70.229  1.00  0.00    -0.361 A  
HETATM   19  C   UNL     1     -11.009  15.435  67.461  1.00  0.00    -0.315 A  
BRANCH  16  20
HETATM   20  C   UNL     1     -12.260  13.240  67.463  1.00  0.00    -0.213 C  
BRANCH  20  21
HETATM   21  C   UNL     1     -11.338  12.089  67.166  1.00  0.00    -0.333 A  
HETATM   22  C   UNL     1     -10.305  11.961  66.260  1.00  0.00    -0.259 A  
HETATM   23  C   UNL     1      -9.509  10.794  66.509  1.00  0.00    -0.197 A  
HETATM   24  C   UNL     1      -9.945  10.065  67.604  1.00  0.00    -0.176 A  
HETATM   25  S   UNL     1     -11.449  10.690  68.154  1.00  0.00    -0.129 SA 
BRANCH  24  26
HETATM   26  C   UNL     1      -9.303   8.926  68.300  1.00  0.00    -0.149 A  
HETATM   27  C   UNL     1      -9.695   8.555  69.601  1.00  0.00    -0.179 A  
HETATM   28  C   UNL     1      -9.044   7.530  70.293  1.00  0.00    -0.154 A  
HETATM   29  C   UNL     1      -7.978   6.875  69.697  1.00  0.00    -0.125 A  
HETATM   30  F   UNL     1      -7.334   5.913  70.373  1.00  0.00    -0.075 F  
HETATM   31  C   UNL     1      -7.569   7.210  68.415  1.00  0.00    -0.118 A  
HETATM   32  C   UNL     1      -8.230   8.229  67.717  1.00  0.00    -0.127 A  
ENDBRANCH  24  26
ENDBRANCH  20  21
ENDBRANCH  16  20
ENDBRANCH   1  13
BRANCH   4  33
HETATM   33  C   UNL     1      -5.783  17.480  66.768  1.00  0.00    -0.173 C  
HETATM   34  O   UNL     1      -5.768  16.108  67.174  1.00  0.00    -0.297 OA 
HETATM   35  H   UNL     1      -4.872  15.808  67.269  1.00  0.00     0.000 HD 
ENDBRANCH   4  33
TORSDOF 5
ENDMDL
MODEL      122
REMARK 921   NORMALIZED FREE ENERGY PREDICTED BY IDOCK:   -5.97 KCAL/MOL
REMARK 922        TOTAL FREE ENERGY PREDICTED BY IDOCK:   -8.31 KCAL/MOL
REMARK 923 INTER-LIGAND FREE ENERGY PREDICTED BY IDOCK:   -7.51 KCAL/MOL
REMARK 924 INTRA-LIGAND FREE ENERGY PREDICTED BY IDOCK:   -0.80 KCAL/MOL
REMARK 927      BINDING AFFINITY PREDICTED BY RF-SCORE:    0.00 PKD
ROOT
HETATM    1  C   UNL     1     -10.252  12.157  66.482  1.00  0.00    -0.206 C  
HETATM    2  O   UNL     1      -9.676  11.817  65.203  1.00  0.00    -0.243 OA 
HETATM    3  H   UNL     1     -12.567  14.227  67.530  1.00  0.00     0.000 HD 
HETATM    4  C   UNL     1     -10.651  11.400  64.244  1.00  0.00    -0.355 C  
HETATM    5  O   UNL     1     -11.941  13.518  67.611  1.00  0.00    -0.354 OA 
HETATM    6  C   UNL     1     -11.634  12.541  63.947  1.00  0.00    -0.442 C  
HETATM    7  H   UNL     1     -13.571  14.374  65.805  1.00  0.00     0.000 HD 
HETATM    8  O   UNL     1     -13.156  14.103  64.995  1.00  0.00    -0.728 OA 
HETATM    9  O   UNL     1     -12.683  12.156  63.046  1.00  0.00    -0.747 OA 
HETATM   10  C   UNL     1     -12.302  12.977  65.252  1.00  0.00    -0.486 C  
HETATM   11  H   UNL     1     -13.291  12.862  62.862  1.00  0.00     0.000 HD 
HETATM   12  C   UNL     1     -11.272  13.312  66.352  1.00  0.00    -0.302 C  
ENDROOT
BRANCH   1  13
HETATM   13  C   UNL     1      -9.125  12.460  67.465  1.00  0.00    -0.185 A  
HETATM   14  C   UNL     1      -6.909  12.978  69.166  1.00  0.00    -0.058 A  
HETATM   15  C   UNL     1      -5.679  13.298  69.975  1.00  0.00    -0.127 C  
HETATM   16  C   UNL     1      -7.351  11.653  68.980  1.00  0.00    -0.074 A  
HETATM   17  C   UNL     1      -8.682  13.768  67.687  1.00  0.00    -0.185 A  
HETATM   18  C   UNL     1      -7.591  14.021  68.524  1.00  0.00    -0.130 A  
HETATM   19  C   UNL     1      -8.473  11.418  68.152  1.00  0.00    -0.152 A  
BRANCH  16  20
HETATM   20  C   UNL     1      -6.585  10.467  69.537  1.00  0.00    -0.080 C  
BRANCH  20  21
HETATM   21  C   UNL     1      -7.378   9.328  70.116  1.00  0.00    -0.096 A  
HETATM   22  C   UNL     1      -8.571   9.310  70.808  1.00  0.00    -0.254 A  
HETATM   23  C   UNL     1      -9.109   7.985  70.924  1.00  0.00    -0.161 A  
HETATM   24  C   UNL     1      -8.321   7.025  70.310  1.00  0.00    -0.133 A  
HETATM   25  S   UNL     1      -6.832   7.729  69.815  1.00  0.00    -0.047 SA 
BRANCH  24  26
HETATM   26  C   UNL     1      -8.605   5.597  70.039  1.00  0.00    -0.122 A  
HETATM   27  C   UNL     1      -8.804   5.133  68.724  1.00  0.00    -0.105 A  
HETATM   28  C   UNL     1      -9.147   3.802  68.467  1.00  0.00    -0.196 A  
HETATM   29  C   UNL     1      -9.311   2.922  69.525  1.00  0.00    -0.129 A  
HETATM   30  F   UNL     1      -9.669   1.655  69.279  1.00  0.00    -0.172 F  
HETATM   31  C   UNL     1      -9.115   3.344  70.832  1.00  0.00    -0.184 A  
HETATM   32  C   UNL     1      -8.761   4.675  71.089  1.00  0.00    -0.140 A  
ENDBRANCH  24  26
ENDBRANCH  20  21
ENDBRANCH  16  20
ENDBRANCH   1  13
BRANCH   4  33
HETATM   33  C   UNL     1      -9.937  10.937  62.969  1.00  0.00    -0.274 C  
HETATM   34  O   UNL     1      -8.804  11.772  62.715  1.00  0.00    -0.647 OA 
HETATM   35  H   UNL     1      -8.361  11.485  61.925  1.00  0.00     0.000 HD 
ENDBRANCH   4  33
TORSDOF 5
ENDMDL
MODEL      123
REMARK 921   NORMALIZED FREE ENERGY PREDICTED BY IDOCK:   -5.95 KCAL/MOL
REMARK 922        TOTAL FREE ENERGY PREDICTED BY IDOCK:   -8.28 KCAL/MOL
REMARK 923 INTER-LIGAND FREE ENERGY PREDICTED BY IDOCK:   -7.20 KCAL/MOL
REMARK 924 INTRA-LIGAND FREE ENERGY PREDICTED BY IDOCK:   -1.08 KCAL/MOL
REMARK 927      BINDING AFFINITY PREDICTED BY RF-SCORE:    0.00 PKD
ROOT
HETATM    1  C   UNL     1     -10.082   8.443  70.192  1.00  0.00    -0.191 C  
HETATM    2  O   UNL     1      -9.459   7.167  70.460  1.00  0.00    -0.162 OA 
HETATM    3  H   UNL     1     -12.997   9.802  70.824  1.00  0.00     0.000 HD 
HETATM    4  C   UNL     1      -9.448   6.833  71.850  1.00  0.00    -0.145 C  
HETATM    5  O   UNL     1     -12.093   9.790  70.532  1.00  0.00    -0.248 OA 
HETATM    6  C   UNL     1     -10.882   6.693  72.380  1.00  0.00    -0.235 C  
HETATM    7  H   UNL     1     -13.465   8.666  72.404  1.00  0.00     0.000 HD 
HETATM    8  O   UNL     1     -12.999   7.852  72.552  1.00  0.00    -0.073 OA 
HETATM    9  O   UNL     1     -10.934   6.431  73.790  1.00  0.00    -0.450 OA 
HETATM   10  C   UNL     1     -11.632   8.005  72.140  1.00  0.00    -0.342 C  
HETATM   11  H   UNL     1     -11.821   6.345  74.118  1.00  0.00     0.000 HD 
HETATM   12  C   UNL     1     -11.553   8.463  70.668  1.00  0.00    -0.191 C  
ENDROOT
BRANCH   1  13
HETATM   13  C   UNL     1      -9.927   8.765  68.709  1.00  0.00    -0.197 A  
HETATM   14  C   UNL     1      -9.464   9.317  65.960  1.00  0.00    -0.311 A  
HETATM   15  C   UNL     1      -9.152   9.513  64.500  1.00  0.00    -0.250 C  
HETATM   16  C   UNL     1      -9.077  10.257  66.935  1.00  0.00    -0.159 A  
HETATM   17  C   UNL     1     -10.324   7.860  67.720  1.00  0.00    -0.289 A  
HETATM   18  C   UNL     1     -10.096   8.133  66.367  1.00  0.00    -0.196 A  
HETATM   19  C   UNL     1      -9.341   9.978  68.296  1.00  0.00    -0.136 A  
BRANCH  16  20
HETATM   20  C   UNL     1      -8.275  11.496  66.580  1.00  0.00    -0.129 C  
BRANCH  20  21
HETATM   21  C   UNL     1      -8.501  12.738  67.398  1.00  0.00    -0.191 A  
HETATM   22  C   UNL     1      -7.871  13.206  68.532  1.00  0.00    -0.105 A  
HETATM   23  C   UNL     1      -8.213  14.570  68.817  1.00  0.00    -0.146 A  
HETATM   24  C   UNL     1      -9.087  15.114  67.888  1.00  0.00    -0.179 A  
HETATM   25  S   UNL     1      -9.650  13.879  66.832  1.00  0.00    -0.277 SA 
BRANCH  24  26
HETATM   26  C   UNL     1      -9.528  16.516  67.710  1.00  0.00    -0.222 A  
HETATM   27  C   UNL     1      -9.538  17.418  68.792  1.00  0.00    -0.267 A  
HETATM   28  C   UNL     1     -10.024  18.721  68.648  1.00  0.00    -0.444 A  
HETATM   29  C   UNL     1     -10.523  19.132  67.422  1.00  0.00    -0.458 A  
HETATM   30  F   UNL     1     -11.016  20.372  67.293  1.00  0.00    -0.258 F  
HETATM   31  C   UNL     1     -10.521  18.272  66.334  1.00  0.00    -0.387 A  
HETATM   32  C   UNL     1     -10.024  16.970  66.475  1.00  0.00    -0.318 A  
ENDBRANCH  24  26
ENDBRANCH  20  21
ENDBRANCH  16  20
ENDBRANCH   1  13
BRANCH   4  33
HETATM   33  C   UNL     1      -8.656   5.535  72.047  1.00  0.00    -0.131 C  
HETATM   34  O   UNL     1      -8.075   5.513  73.355  1.00  0.00    -0.113 OA 
HETATM   35  H   UNL     1      -7.584   4.709  73.478  1.00  0.00     0.000 HD 
ENDBRANCH   4  33
TORSDOF 5
ENDMDL
MODEL      124
REMARK 921   NORMALIZED FREE ENERGY PREDICTED BY IDOCK:   -5.91 KCAL/MOL
REMARK 922        TOTAL FREE ENERGY PREDICTED BY IDOCK:   -8.23 KCAL/MOL
REMARK 923 INTER-LIGAND FREE ENERGY PREDICTED BY IDOCK:   -7.42 KCAL/MOL
REMARK 924 INTRA-LIGAND FREE ENERGY PREDICTED BY IDOCK:   -0.82 KCAL/MOL
REMARK 927      BINDING AFFINITY PREDICTED BY RF-SCORE:    0.00 PKD
ROOT
HETATM    1  C   UNL     1     -12.410  11.568  70.533  1.00  0.00    -0.342 C  
HETATM    2  O   UNL     1     -11.563  12.544  69.887  1.00  0.00    -0.255 OA 
HETATM    3  H   UNL     1     -14.260  11.502  73.238  1.00  0.00     0.000 HD 
HETATM    4  C   UNL     1     -12.242  13.767  69.596  1.00  0.00    -0.305 C  
HETATM    5  O   UNL     1     -13.921  11.174  72.413  1.00  0.00     0.239 OA 
HETATM    6  C   UNL     1     -12.708  14.444  70.892  1.00  0.00    -0.355 C  
HETATM    7  H   UNL     1     -14.552  13.476  73.389  1.00  0.00     0.000 HD 
HETATM    8  O   UNL     1     -13.987  14.073  72.913  1.00  0.00    -0.617 OA 
HETATM    9  O   UNL     1     -13.464  15.641  70.659  1.00  0.00    -0.813 OA 
HETATM   10  C   UNL     1     -13.619  13.481  71.657  1.00  0.00    -0.265 C  
HETATM   11  H   UNL     1     -13.752  16.060  71.461  1.00  0.00     0.000 HD 
HETATM   12  C   UNL     1     -12.961  12.102  71.875  1.00  0.00    -0.314 C  
ENDROOT
BRANCH   1  13
HETATM   13  C   UNL     1     -11.633  10.263  70.680  1.00  0.00    -0.435 A  
HETATM   14  C   UNL     1     -10.058   7.925  71.038  1.00  0.00    -0.212 A  
HETATM   15  C   UNL     1      -9.196   6.726  71.334  1.00  0.00    -0.153 C  
HETATM   16  C   UNL     1      -9.755   8.817  69.990  1.00  0.00    -0.182 A  
HETATM   17  C   UNL     1     -11.928   9.349  71.697  1.00  0.00    -0.465 A  
HETATM   18  C   UNL     1     -11.152   8.199  71.872  1.00  0.00    -0.346 A  
HETATM   19  C   UNL     1     -10.567   9.960  69.810  1.00  0.00    -0.296 A  
BRANCH  16  20
HETATM   20  C   UNL     1      -8.514   8.653  69.133  1.00  0.00    -0.124 C  
BRANCH  20  21
HETATM   21  C   UNL     1      -7.986   9.869  68.422  1.00  0.00    -0.096 A  
HETATM   22  C   UNL     1      -8.148  10.305  67.123  1.00  0.00    -0.121 A  
HETATM   23  C   UNL     1      -7.707  11.659  66.948  1.00  0.00    -0.147 A  
HETATM   24  C   UNL     1      -7.229  12.228  68.117  1.00  0.00    -0.101 A  
HETATM   25  S   UNL     1      -7.110  11.024  69.340  1.00  0.00    -0.108 SA 
BRANCH  24  26
HETATM   26  C   UNL     1      -6.865  13.634  68.407  1.00  0.00    -0.102 A  
HETATM   27  C   UNL     1      -6.949  14.627  67.412  1.00  0.00    -0.123 A  
HETATM   28  C   UNL     1      -6.537  15.940  67.657  1.00  0.00    -0.197 A  
HETATM   29  C   UNL     1      -6.017  16.271  68.898  1.00  0.00    -0.129 A  
HETATM   30  F   UNL     1      -5.593  17.523  69.123  1.00  0.00    -0.162 F  
HETATM   31  C   UNL     1      -5.925  15.320  69.904  1.00  0.00    -0.141 A  
HETATM   32  C   UNL     1      -6.349  14.007  69.662  1.00  0.00    -0.130 A  
ENDBRANCH  24  26
ENDBRANCH  20  21
ENDBRANCH  16  20
ENDBRANCH   1  13
BRANCH   4  33
HETATM   33  C   UNL     1     -11.307  14.684  68.798  1.00  0.00    -0.281 C  
HETATM   34  O   UNL     1     -10.121  14.945  69.553  1.00  0.00    -0.339 OA 
HETATM   35  H   UNL     1      -9.541  15.513  69.059  1.00  0.00     0.000 HD 
ENDBRANCH   4  33
TORSDOF 5
ENDMDL
MODEL      125
REMARK 921   NORMALIZED FREE ENERGY PREDICTED BY IDOCK:   -5.85 KCAL/MOL
REMARK 922        TOTAL FREE ENERGY PREDICTED BY IDOCK:   -8.16 KCAL/MOL
REMARK 923 INTER-LIGAND FREE ENERGY PREDICTED BY IDOCK:   -7.65 KCAL/MOL
REMARK 924 INTRA-LIGAND FREE ENERGY PREDICTED BY IDOCK:   -0.52 KCAL/MOL
REMARK 927      BINDING AFFINITY PREDICTED BY RF-SCORE:    0.00 PKD
ROOT
HETATM    1  C   UNL     1     -10.167  13.878  67.596  1.00  0.00    -0.242 C  
HETATM    2  O   UNL     1      -9.147  14.615  68.304  1.00  0.00    -0.177 OA 
HETATM    3  H   UNL     1     -12.426  14.596  65.332  1.00  0.00     0.000 HD 
HETATM    4  C   UNL     1      -8.232  15.282  67.431  1.00  0.00    -0.184 C  
HETATM    5  O   UNL     1     -11.908  14.025  65.886  1.00  0.00    -0.352 OA 
HETATM    6  C   UNL     1      -8.966  16.333  66.587  1.00  0.00    -0.251 C  
HETATM    7  H   UNL     1     -11.516  16.209  64.574  1.00  0.00     0.000 HD 
HETATM    8  O   UNL     1     -10.826  16.635  65.068  1.00  0.00    -0.641 OA 
HETATM    9  O   UNL     1      -8.111  16.984  65.635  1.00  0.00    -0.356 OA 
HETATM   10  C   UNL     1     -10.078  15.645  65.791  1.00  0.00    -0.366 C  
HETATM   11  H   UNL     1      -8.565  17.634  65.113  1.00  0.00     0.000 HD 
HETATM   12  C   UNL     1     -11.010  14.808  66.693  1.00  0.00    -0.326 C  
ENDROOT
BRANCH   1  13
HETATM   13  C   UNL     1     -11.006  13.102  68.607  1.00  0.00    -0.296 A  
HETATM   14  C   UNL     1     -12.431  11.673  70.607  1.00  0.00    -0.386 A  
HETATM   15  C   UNL     1     -13.143  10.991  71.746  1.00  0.00    -0.554 C  
HETATM   16  C   UNL     1     -11.447  11.012  69.844  1.00  0.00    -0.400 A  
HETATM   17  C   UNL     1     -12.004  13.728  69.361  1.00  0.00    -0.397 A  
HETATM   18  C   UNL     1     -12.704  13.023  70.345  1.00  0.00    -0.046 A  
HETATM   19  C   UNL     1     -10.769  11.732  68.835  1.00  0.00    -0.241 A  
BRANCH  16  20
HETATM   20  C   UNL     1     -11.009   9.594  70.159  1.00  0.00    -0.320 C  
BRANCH  20  21
HETATM   21  C   UNL     1     -10.718   8.676  69.003  1.00  0.00    -0.101 A  
HETATM   22  C   UNL     1     -10.638   8.919  67.647  1.00  0.00    -0.292 A  
HETATM   23  C   UNL     1     -10.057   7.818  66.934  1.00  0.00    -0.356 A  
HETATM   24  C   UNL     1      -9.697   6.767  67.762  1.00  0.00    -0.124 A  
HETATM   25  S   UNL     1     -10.291   7.051  69.350  1.00  0.00    -0.213 SA 
BRANCH  24  26
HETATM   26  C   UNL     1      -8.909   5.550  67.460  1.00  0.00    -0.105 A  
HETATM   27  C   UNL     1      -7.672   5.632  66.791  1.00  0.00    -0.100 A  
HETATM   28  C   UNL     1      -6.959   4.483  66.436  1.00  0.00    -0.059 A  
HETATM   29  C   UNL     1      -7.484   3.235  66.732  1.00  0.00    -0.075 A  
HETATM   30  F   UNL     1      -6.815   2.134  66.364  1.00  0.00    -0.039 F  
HETATM   31  C   UNL     1      -8.696   3.117  67.396  1.00  0.00    -0.139 A  
HETATM   32  C   UNL     1      -9.406   4.269  67.762  1.00  0.00    -0.200 A  
ENDBRANCH  24  26
ENDBRANCH  20  21
ENDBRANCH  16  20
ENDBRANCH   1  13
BRANCH   4  33
HETATM   33  C   UNL     1      -7.117  15.923  68.266  1.00  0.00    -0.116 C  
HETATM   34  O   UNL     1      -7.482  15.921  69.649  1.00  0.00    -0.192 OA 
HETATM   35  H   UNL     1      -6.791  16.318  70.166  1.00  0.00     0.000 HD 
ENDBRANCH   4  33
TORSDOF 5
ENDMDL
MODEL      126
REMARK 921   NORMALIZED FREE ENERGY PREDICTED BY IDOCK:   -5.85 KCAL/MOL
REMARK 922        TOTAL FREE ENERGY PREDICTED BY IDOCK:   -8.16 KCAL/MOL
REMARK 923 INTER-LIGAND FREE ENERGY PREDICTED BY IDOCK:   -7.06 KCAL/MOL
REMARK 924 INTRA-LIGAND FREE ENERGY PREDICTED BY IDOCK:   -1.10 KCAL/MOL
REMARK 927      BINDING AFFINITY PREDICTED BY RF-SCORE:    0.00 PKD
ROOT
HETATM    1  C   UNL     1     -12.019   9.247  70.717  1.00  0.00    -0.210 C  
HETATM    2  O   UNL     1     -10.957   9.889  69.979  1.00  0.00    -0.251 OA 
HETATM    3  H   UNL     1     -14.156  10.174  73.024  1.00  0.00     0.000 HD 
HETATM    4  C   UNL     1     -11.391  11.056  69.276  1.00  0.00    -0.282 C  
HETATM    5  O   UNL     1     -13.782   9.588  72.376  1.00  0.00    -0.438 OA 
HETATM    6  C   UNL     1     -11.888  12.121  70.263  1.00  0.00    -0.254 C  
HETATM    7  H   UNL     1     -14.141  12.131  72.607  1.00  0.00     0.000 HD 
HETATM    8  O   UNL     1     -13.435  12.495  72.086  1.00  0.00    -0.532 OA 
HETATM    9  O   UNL     1     -12.409  13.289  69.610  1.00  0.00    -0.224 OA 
HETATM   10  C   UNL     1     -13.025  11.533  71.101  1.00  0.00    -0.233 C  
HETATM   11  H   UNL     1     -12.716  13.949  70.220  1.00  0.00     0.000 HD 
HETATM   12  C   UNL     1     -12.628  10.201  71.771  1.00  0.00    -0.403 C  
ENDROOT
BRANCH   1  13
HETATM   13  C   UNL     1     -11.487   7.950  71.319  1.00  0.00    -0.293 A  
HETATM   14  C   UNL     1     -10.328   5.591  72.401  1.00  0.00    -0.251 A  
HETATM   15  C   UNL     1      -9.630   4.409  73.019  1.00  0.00    -0.156 C  
HETATM   16  C   UNL     1     -10.486   5.715  71.006  1.00  0.00    -0.316 A  
HETATM   17  C   UNL     1     -11.341   7.791  72.701  1.00  0.00    -0.449 A  
HETATM   18  C   UNL     1     -10.772   6.630  73.232  1.00  0.00    -0.315 A  
HETATM   19  C   UNL     1     -11.090   6.883  70.488  1.00  0.00    -0.332 A  
BRANCH  16  20
HETATM   20  C   UNL     1      -9.914   4.692  70.042  1.00  0.00    -0.302 C  
BRANCH  20  21
HETATM   21  C   UNL     1      -9.574   5.152  68.651  1.00  0.00    -0.142 A  
HETATM   22  C   UNL     1     -10.302   5.120  67.479  1.00  0.00    -0.190 A  
HETATM   23  C   UNL     1      -9.705   5.921  66.450  1.00  0.00    -0.168 A  
HETATM   24  C   UNL     1      -8.542   6.554  66.861  1.00  0.00    -0.114 A  
HETATM   25  S   UNL     1      -8.083   5.967  68.412  1.00  0.00    -0.107 SA 
BRANCH  24  26
HETATM   26  C   UNL     1      -7.741   7.598  66.184  1.00  0.00    -0.089 A  
HETATM   27  C   UNL     1      -6.799   8.367  66.895  1.00  0.00    -0.069 A  
HETATM   28  C   UNL     1      -6.093   9.405  66.280  1.00  0.00    -0.060 A  
HETATM   29  C   UNL     1      -6.334   9.698  64.947  1.00  0.00    -0.090 A  
HETATM   30  F   UNL     1      -5.679  10.712  64.365  1.00  0.00    -0.136 F  
HETATM   31  C   UNL     1      -7.249   8.956  64.214  1.00  0.00    -0.091 A  
HETATM   32  C   UNL     1      -7.949   7.908  64.828  1.00  0.00    -0.140 A  
ENDBRANCH  24  26
ENDBRANCH  20  21
ENDBRANCH  16  20
ENDBRANCH   1  13
BRANCH   4  33
HETATM   33  C   UNL     1     -10.234  11.588  68.422  1.00  0.00    -0.205 C  
HETATM   34  O   UNL     1     -10.739  12.108  67.188  1.00  0.00    -0.221 OA 
HETATM   35  H   UNL     1     -10.023  12.438  66.659  1.00  0.00     0.000 HD 
ENDBRANCH   4  33
TORSDOF 5
ENDMDL
MODEL      127
REMARK 921   NORMALIZED FREE ENERGY PREDICTED BY IDOCK:   -5.85 KCAL/MOL
REMARK 922        TOTAL FREE ENERGY PREDICTED BY IDOCK:   -8.16 KCAL/MOL
REMARK 923 INTER-LIGAND FREE ENERGY PREDICTED BY IDOCK:   -7.18 KCAL/MOL
REMARK 924 INTRA-LIGAND FREE ENERGY PREDICTED BY IDOCK:   -0.98 KCAL/MOL
REMARK 927      BINDING AFFINITY PREDICTED BY RF-SCORE:    0.00 PKD
ROOT
HETATM    1  C   UNL     1      -8.814   8.439  69.575  1.00  0.00    -0.145 C  
HETATM    2  O   UNL     1      -9.136   7.053  69.822  1.00  0.00    -0.144 OA 
HETATM    3  H   UNL     1     -10.421  11.288  69.785  1.00  0.00     0.000 HD 
HETATM    4  C   UNL     1      -9.617   6.820  71.148  1.00  0.00    -0.173 C  
HETATM    5  O   UNL     1      -9.661  10.730  69.668  1.00  0.00    -0.080 OA 
HETATM    6  C   UNL     1     -10.930   7.580  71.383  1.00  0.00    -0.231 C  
HETATM    7  H   UNL     1     -11.788  10.704  71.125  1.00  0.00     0.000 HD 
HETATM    8  O   UNL     1     -11.936   9.778  71.274  1.00  0.00    -0.329 OA 
HETATM    9  O   UNL     1     -11.422   7.445  72.725  1.00  0.00    -0.445 OA 
HETATM   10  C   UNL     1     -10.692   9.072  71.143  1.00  0.00    -0.288 C  
HETATM   11  H   UNL     1     -12.234   7.914  72.870  1.00  0.00     0.000 HD 
HETATM   12  C   UNL     1     -10.050   9.347  69.766  1.00  0.00    -0.211 C  
ENDROOT
BRANCH   1  13
HETATM   13  C   UNL     1      -8.190   8.559  68.187  1.00  0.00    -0.120 A  
HETATM   14  C   UNL     1      -6.959   8.942  65.655  1.00  0.00    -0.080 A  
HETATM   15  C   UNL     1      -6.212   9.187  64.370  1.00  0.00    -0.072 C  
HETATM   16  C   UNL     1      -8.167   9.603  65.950  1.00  0.00    -0.119 A  
HETATM   17  C   UNL     1      -7.004   7.895  67.860  1.00  0.00    -0.077 A  
HETATM   18  C   UNL     1      -6.399   8.084  66.613  1.00  0.00    -0.054 A  
HETATM   19  C   UNL     1      -8.780   9.378  67.204  1.00  0.00    -0.134 A  
BRANCH  16  20
HETATM   20  C   UNL     1      -8.760  10.642  65.016  1.00  0.00    -0.186 C  
BRANCH  20  21
HETATM   21  C   UNL     1      -9.815  11.562  65.568  1.00  0.00    -0.234 A  
HETATM   22  C   UNL     1     -11.181  11.595  65.381  1.00  0.00    -0.262 A  
HETATM   23  C   UNL     1     -11.835  12.460  66.320  1.00  0.00    -0.431 A  
HETATM   24  C   UNL     1     -10.954  13.059  67.208  1.00  0.00    -0.264 A  
HETATM   25  S   UNL     1      -9.336  12.736  66.724  1.00  0.00    -0.238 SA 
BRANCH  24  26
HETATM   26  C   UNL     1     -11.231  13.853  68.426  1.00  0.00    -0.291 A  
HETATM   27  C   UNL     1     -11.834  13.266  69.555  1.00  0.00    -0.388 A  
HETATM   28  C   UNL     1     -12.167  14.025  70.681  1.00  0.00    -0.442 A  
HETATM   29  C   UNL     1     -11.915  15.388  70.683  1.00  0.00    -0.356 A  
HETATM   30  F   UNL     1     -12.262  16.120  71.751  1.00  0.00    -0.450 F  
HETATM   31  C   UNL     1     -11.316  15.998  69.591  1.00  0.00    -0.332 A  
HETATM   32  C   UNL     1     -10.973  15.235  68.468  1.00  0.00    -0.266 A  
ENDBRANCH  24  26
ENDBRANCH  20  21
ENDBRANCH  16  20
ENDBRANCH   1  13
BRANCH   4  33
HETATM   33  C   UNL     1      -9.805   5.312  71.357  1.00  0.00    -0.174 C  
HETATM   34  O   UNL     1     -10.073   5.042  72.736  1.00  0.00    -0.162 OA 
HETATM   35  H   UNL     1     -10.190   4.108  72.866  1.00  0.00     0.000 HD 
ENDBRANCH   4  33
TORSDOF 5
ENDMDL
MODEL      128
REMARK 921   NORMALIZED FREE ENERGY PREDICTED BY IDOCK:   -5.82 KCAL/MOL
REMARK 922        TOTAL FREE ENERGY PREDICTED BY IDOCK:   -8.13 KCAL/MOL
REMARK 923 INTER-LIGAND FREE ENERGY PREDICTED BY IDOCK:   -7.28 KCAL/MOL
REMARK 924 INTRA-LIGAND FREE ENERGY PREDICTED BY IDOCK:   -0.84 KCAL/MOL
REMARK 927      BINDING AFFINITY PREDICTED BY RF-SCORE:    0.00 PKD
ROOT
HETATM    1  C   UNL     1     -11.189  10.891  69.490  1.00  0.00    -0.277 C  
HETATM    2  O   UNL     1     -11.566   9.517  69.727  1.00  0.00    -0.092 OA 
HETATM    3  H   UNL     1     -12.422  13.824  70.279  1.00  0.00     0.000 HD 
HETATM    4  C   UNL     1     -11.720   9.212  71.115  1.00  0.00    -0.313 C  
HETATM    5  O   UNL     1     -11.770  13.223  69.937  1.00  0.00    -0.297 OA 
HETATM    6  C   UNL     1     -12.856  10.045  71.724  1.00  0.00    -0.446 C  
HETATM    7  H   UNL     1     -13.459  13.235  71.885  1.00  0.00     0.000 HD 
HETATM    8  O   UNL     1     -13.650  12.313  72.011  1.00  0.00    -0.400 OA 
HETATM    9  O   UNL     1     -13.009   9.836  73.136  1.00  0.00    -0.024 OA 
HETATM   10  C   UNL     1     -12.549  11.530  71.522  1.00  0.00    -0.258 C  
HETATM   11  H   UNL     1     -13.712  10.351  73.513  1.00  0.00     0.000 HD 
HETATM   12  C   UNL     1     -12.249  11.870  70.047  1.00  0.00    -0.217 C  
ENDROOT
BRANCH   1  13
HETATM   13  C   UNL     1     -10.923  11.079  67.999  1.00  0.00    -0.312 A  
HETATM   14  C   UNL     1     -10.552  11.301  65.191  1.00  0.00    -0.343 A  
HETATM   15  C   UNL     1     -10.471  11.406  63.691  1.00  0.00    -0.472 C  
HETATM   16  C   UNL     1      -9.930  10.252  65.896  1.00  0.00    -0.321 A  
HETATM   17  C   UNL     1     -11.509  12.125  67.279  1.00  0.00    -0.413 A  
HETATM   18  C   UNL     1     -11.325  12.233  65.898  1.00  0.00    -0.406 A  
HETATM   19  C   UNL     1     -10.104  10.174  67.297  1.00  0.00    -0.254 A  
BRANCH  16  20
HETATM   20  C   UNL     1      -9.188   9.136  65.183  1.00  0.00    -0.218 C  
BRANCH  20  21
HETATM   21  C   UNL     1      -8.437   8.142  66.025  1.00  0.00    -0.141 A  
HETATM   22  C   UNL     1      -7.125   8.119  66.451  1.00  0.00    -0.075 A  
HETATM   23  C   UNL     1      -6.904   7.133  67.470  1.00  0.00    -0.070 A  
HETATM   24  C   UNL     1      -8.054   6.435  67.805  1.00  0.00    -0.115 A  
HETATM   25  S   UNL     1      -9.315   6.834  66.706  1.00  0.00    -0.164 SA 
BRANCH  24  26
HETATM   26  C   UNL     1      -8.297   5.489  68.918  1.00  0.00    -0.102 A  
HETATM   27  C   UNL     1      -7.255   5.097  69.780  1.00  0.00    -0.060 A  
HETATM   28  C   UNL     1      -7.460   4.147  70.786  1.00  0.00    -0.047 A  
HETATM   29  C   UNL     1      -8.709   3.565  70.929  1.00  0.00    -0.074 A  
HETATM   30  F   UNL     1      -8.897   2.632  71.873  1.00  0.00    -0.082 F  
HETATM   31  C   UNL     1      -9.760   3.932  70.102  1.00  0.00    -0.242 A  
HETATM   32  C   UNL     1      -9.557   4.892  69.102  1.00  0.00    -0.231 A  
ENDBRANCH  24  26
ENDBRANCH  20  21
ENDBRANCH  16  20
ENDBRANCH   1  13
BRANCH   4  33
HETATM   33  C   UNL     1     -11.989   7.710  71.273  1.00  0.00    -0.306 C  
HETATM   34  O   UNL     1     -12.008   7.362  72.660  1.00  0.00    -0.512 OA 
HETATM   35  H   UNL     1     -12.175   6.432  72.758  1.00  0.00     0.000 HD 
ENDBRANCH   4  33
TORSDOF 5
ENDMDL
MODEL      129
REMARK 921   NORMALIZED FREE ENERGY PREDICTED BY IDOCK:   -5.79 KCAL/MOL
REMARK 922        TOTAL FREE ENERGY PREDICTED BY IDOCK:   -8.09 KCAL/MOL
REMARK 923 INTER-LIGAND FREE ENERGY PREDICTED BY IDOCK:   -7.58 KCAL/MOL
REMARK 924 INTRA-LIGAND FREE ENERGY PREDICTED BY IDOCK:   -0.50 KCAL/MOL
REMARK 927      BINDING AFFINITY PREDICTED BY RF-SCORE:    0.00 PKD
ROOT
HETATM    1  C   UNL     1      -7.091  16.928  68.127  1.00  0.00    -0.165 C  
HETATM    2  O   UNL     1      -8.490  17.236  68.308  1.00  0.00    -0.227 OA 
HETATM    3  H   UNL     1      -4.944  17.160  65.660  1.00  0.00     0.000 HD 
HETATM    4  C   UNL     1      -8.806  18.596  68.003  1.00  0.00    -0.306 C  
HETATM    5  O   UNL     1      -5.218  17.010  66.557  1.00  0.00    -0.277 OA 
HETATM    6  C   UNL     1      -8.523  18.894  66.524  1.00  0.00    -0.304 C  
HETATM    7  H   UNL     1      -5.888  18.602  64.643  1.00  0.00     0.000 HD 
HETATM    8  O   UNL     1      -6.801  18.787  64.827  1.00  0.00    -0.373 OA 
HETATM    9  O   UNL     1      -8.750  20.268  66.176  1.00  0.00    -0.553 OA 
HETATM   10  C   UNL     1      -7.051  18.596  66.228  1.00  0.00    -0.245 C  
HETATM   11  H   UNL     1      -8.575  20.452  65.261  1.00  0.00     0.000 HD 
HETATM   12  C   UNL     1      -6.644  17.172  66.667  1.00  0.00    -0.237 C  
ENDROOT
BRANCH   1  13
HETATM   13  C   UNL     1      -6.835  15.499  68.600  1.00  0.00    -0.115 A  
HETATM   14  C   UNL     1      -6.208  12.841  69.384  1.00  0.00    -0.112 A  
HETATM   15  C   UNL     1      -5.763  11.466  69.808  1.00  0.00    -0.088 C  
HETATM   16  C   UNL     1      -6.792  13.078  68.124  1.00  0.00    -0.104 A  
HETATM   17  C   UNL     1      -6.278  15.235  69.855  1.00  0.00    -0.161 A  
HETATM   18  C   UNL     1      -5.970  13.927  70.240  1.00  0.00    -0.155 A  
HETATM   19  C   UNL     1      -7.123  14.404  67.763  1.00  0.00    -0.191 A  
BRANCH  16  20
HETATM   20  C   UNL     1      -6.958  11.972  67.098  1.00  0.00    -0.134 C  
BRANCH  20  21
HETATM   21  C   UNL     1      -8.142  11.055  67.239  1.00  0.00    -0.126 A  
HETATM   22  C   UNL     1      -8.730  10.185  66.344  1.00  0.00    -0.140 A  
HETATM   23  C   UNL     1      -9.660   9.299  66.983  1.00  0.00    -0.223 A  
HETATM   24  C   UNL     1      -9.752   9.505  68.350  1.00  0.00    -0.154 A  
HETATM   25  S   UNL     1      -8.883  10.925  68.781  1.00  0.00    -0.139 SA 
BRANCH  24  26
HETATM   26  C   UNL     1     -10.434   8.697  69.387  1.00  0.00    -0.224 A  
HETATM   27  C   UNL     1     -10.874   7.387  69.115  1.00  0.00    -0.129 A  
HETATM   28  C   UNL     1     -11.584   6.645  70.063  1.00  0.00    -0.423 A  
HETATM   29  C   UNL     1     -11.880   7.214  71.292  1.00  0.00    -0.318 A  
HETATM   30  F   UNL     1     -12.587   6.515  72.190  1.00  0.00    -0.359 F  
HETATM   31  C   UNL     1     -11.456   8.500  71.596  1.00  0.00    -0.365 A  
HETATM   32  C   UNL     1     -10.734   9.238  70.649  1.00  0.00    -0.331 A  
ENDBRANCH  24  26
ENDBRANCH  20  21
ENDBRANCH  16  20
ENDBRANCH   1  13
BRANCH   4  33
HETATM   33  C   UNL     1     -10.276  18.861  68.349  1.00  0.00    -0.373 C  
HETATM   34  O   UNL     1     -10.427  20.193  68.847  1.00  0.00    -0.535 OA 
HETATM   35  H   UNL     1     -11.338  20.358  69.062  1.00  0.00     0.000 HD 
ENDBRANCH   4  33
TORSDOF 5
ENDMDL
MODEL      130
REMARK 921   NORMALIZED FREE ENERGY PREDICTED BY IDOCK:   -5.78 KCAL/MOL
REMARK 922        TOTAL FREE ENERGY PREDICTED BY IDOCK:   -8.06 KCAL/MOL
REMARK 923 INTER-LIGAND FREE ENERGY PREDICTED BY IDOCK:   -7.10 KCAL/MOL
REMARK 924 INTRA-LIGAND FREE ENERGY PREDICTED BY IDOCK:   -0.96 KCAL/MOL
REMARK 927      BINDING AFFINITY PREDICTED BY RF-SCORE:    0.00 PKD
ROOT
HETATM    1  C   UNL     1     -10.147  13.041  66.391  1.00  0.00    -0.279 C  
HETATM    2  O   UNL     1      -8.973  13.748  66.848  1.00  0.00    -0.237 OA 
HETATM    3  H   UNL     1     -12.631  11.456  67.829  1.00  0.00     0.000 HD 
HETATM    4  C   UNL     1      -9.278  14.806  67.759  1.00  0.00    -0.194 C  
HETATM    5  O   UNL     1     -12.158  11.847  67.104  1.00  0.00    -0.590 OA 
HETATM    6  C   UNL     1      -9.925  14.246  69.034  1.00  0.00    -0.097 C  
HETATM    7  H   UNL     1     -12.534  12.391  69.596  1.00  0.00     0.000 HD 
HETATM    8  O   UNL     1     -11.749  12.872  69.831  1.00  0.00    -0.304 OA 
HETATM    9  O   UNL     1     -10.322  15.272  69.956  1.00  0.00    -0.372 OA 
HETATM   10  C   UNL     1     -11.188  13.473  68.654  1.00  0.00    -0.278 C  
HETATM   11  H   UNL     1     -10.722  14.926  70.745  1.00  0.00     0.000 HD 
HETATM   12  C   UNL     1     -10.917  12.405  67.572  1.00  0.00    -0.252 C  
ENDROOT
BRANCH   1  13
HETATM   13  C   UNL     1      -9.730  12.026  65.331  1.00  0.00    -0.203 A  
HETATM   14  C   UNL     1      -9.064  10.016  63.436  1.00  0.00    -0.301 A  
HETATM   15  C   UNL     1      -8.824   8.919  62.432  1.00  0.00    -0.134 C  
HETATM   16  C   UNL     1      -8.453  10.008  64.706  1.00  0.00    -0.180 A  
HETATM   17  C   UNL     1     -10.303  12.026  64.055  1.00  0.00    -0.406 A  
HETATM   18  C   UNL     1      -9.974  11.036  63.124  1.00  0.00    -0.382 A  
HETATM   19  C   UNL     1      -8.776  11.032  65.625  1.00  0.00    -0.162 A  
BRANCH  16  20
HETATM   20  C   UNL     1      -7.561   8.867  65.158  1.00  0.00    -0.099 C  
BRANCH  20  21
HETATM   21  C   UNL     1      -8.158   7.825  66.063  1.00  0.00    -0.117 A  
HETATM   22  C   UNL     1      -7.966   6.460  66.130  1.00  0.00    -0.112 A  
HETATM   23  C   UNL     1      -8.518   5.894  67.327  1.00  0.00    -0.103 A  
HETATM   24  C   UNL     1      -9.108   6.839  68.151  1.00  0.00    -0.123 A  
HETATM   25  S   UNL     1      -9.183   8.351  67.335  1.00  0.00    -0.143 SA 
BRANCH  24  26
HETATM   26  C   UNL     1      -9.613   6.706  69.536  1.00  0.00    -0.150 A  
HETATM   27  C   UNL     1     -10.994   6.627  69.803  1.00  0.00    -0.367 A  
HETATM   28  C   UNL     1     -11.481   6.576  71.112  1.00  0.00    -0.380 A  
HETATM   29  C   UNL     1     -10.591   6.623  72.173  1.00  0.00    -0.212 A  
HETATM   30  F   UNL     1     -11.060   6.605  73.428  1.00  0.00    -0.264 F  
HETATM   31  C   UNL     1      -9.224   6.694  71.947  1.00  0.00    -0.147 A  
HETATM   32  C   UNL     1      -8.735   6.733  70.635  1.00  0.00    -0.143 A  
ENDBRANCH  24  26
ENDBRANCH  20  21
ENDBRANCH  16  20
ENDBRANCH   1  13
BRANCH   4  33
HETATM   33  C   UNL     1      -7.992  15.577  68.082  1.00  0.00    -0.131 C  
HETATM   34  O   UNL     1      -8.306  16.756  68.829  1.00  0.00    -0.239 OA 
HETATM   35  H   UNL     1      -7.510  17.233  69.030  1.00  0.00     0.000 HD 
ENDBRANCH   4  33
TORSDOF 5
ENDMDL
MODEL      131
REMARK 921   NORMALIZED FREE ENERGY PREDICTED BY IDOCK:   -5.77 KCAL/MOL
REMARK 922        TOTAL FREE ENERGY PREDICTED BY IDOCK:   -8.05 KCAL/MOL
REMARK 923 INTER-LIGAND FREE ENERGY PREDICTED BY IDOCK:   -7.08 KCAL/MOL
REMARK 924 INTRA-LIGAND FREE ENERGY PREDICTED BY IDOCK:   -0.97 KCAL/MOL
REMARK 927      BINDING AFFINITY PREDICTED BY RF-SCORE:    0.00 PKD
ROOT
HETATM    1  C   UNL     1      -8.623  16.740  67.595  1.00  0.00    -0.206 C  
HETATM    2  O   UNL     1      -9.317  17.742  66.820  1.00  0.00    -0.264 OA 
HETATM    3  H   UNL     1      -5.714  15.242  67.415  1.00  0.00     0.000 HD 
HETATM    4  C   UNL     1      -8.569  18.951  66.675  1.00  0.00    -0.307 C  
HETATM    5  O   UNL     1      -6.541  15.478  67.817  1.00  0.00    -0.131 OA 
HETATM    6  C   UNL     1      -7.267  18.688  65.907  1.00  0.00    -0.232 C  
HETATM    7  H   UNL     1      -4.770  16.656  66.360  1.00  0.00     0.000 HD 
HETATM    8  O   UNL     1      -5.275  17.313  65.896  1.00  0.00    -0.324 OA 
HETATM    9  O   UNL     1      -6.437  19.853  65.795  1.00  0.00    -0.204 OA 
HETATM   10  C   UNL     1      -6.453  17.629  66.655  1.00  0.00    -0.204 C  
HETATM   11  H   UNL     1      -5.631  19.690  65.320  1.00  0.00     0.000 HD 
HETATM   12  C   UNL     1      -7.276  16.355  66.942  1.00  0.00    -0.231 C  
ENDROOT
BRANCH   1  13
HETATM   13  C   UNL     1      -9.552  15.547  67.802  1.00  0.00    -0.209 A  
HETATM   14  C   UNL     1     -11.136  13.227  68.233  1.00  0.00    -0.294 A  
HETATM   15  C   UNL     1     -11.908  11.975  68.555  1.00  0.00    -0.369 C  
HETATM   16  C   UNL     1     -10.418  13.369  67.028  1.00  0.00    -0.257 A  
HETATM   17  C   UNL     1     -10.293  15.393  68.978  1.00  0.00    -0.243 A  
HETATM   18  C   UNL     1     -11.072  14.252  69.189  1.00  0.00    -0.291 A  
HETATM   19  C   UNL     1      -9.659  14.542  66.820  1.00  0.00    -0.274 A  
BRANCH  16  20
HETATM   20  C   UNL     1     -10.337  12.248  66.009  1.00  0.00    -0.273 C  
BRANCH  20  21
HETATM   21  C   UNL     1      -9.499  11.046  66.351  1.00  0.00    -0.193 A  
HETATM   22  C   UNL     1      -8.399  10.909  67.173  1.00  0.00    -0.125 A  
HETATM   23  C   UNL     1      -8.087   9.534  67.433  1.00  0.00    -0.110 A  
HETATM   24  C   UNL     1      -8.961   8.653  66.815  1.00  0.00    -0.141 A  
HETATM   25  S   UNL     1      -9.992   9.519  65.744  1.00  0.00    -0.140 SA 
BRANCH  24  26
HETATM   26  C   UNL     1      -9.104   7.189  66.978  1.00  0.00    -0.149 A  
HETATM   27  C   UNL     1     -10.355   6.559  66.825  1.00  0.00    -0.279 A  
HETATM   28  C   UNL     1     -10.513   5.189  67.051  1.00  0.00    -0.256 A  
HETATM   29  C   UNL     1      -9.421   4.433  67.451  1.00  0.00    -0.171 A  
HETATM   30  F   UNL     1      -9.580   3.126  67.697  1.00  0.00    -0.237 F  
HETATM   31  C   UNL     1      -8.174   5.020  67.605  1.00  0.00    -0.105 A  
HETATM   32  C   UNL     1      -8.014   6.391  67.367  1.00  0.00    -0.116 A  
ENDBRANCH  24  26
ENDBRANCH  20  21
ENDBRANCH  16  20
ENDBRANCH   1  13
BRANCH   4  33
HETATM   33  C   UNL     1      -9.434  19.994  65.956  1.00  0.00    -0.292 C  
HETATM   34  O   UNL     1     -10.671  19.402  65.548  1.00  0.00    -0.456 OA 
HETATM   35  H   UNL     1     -11.208  20.047  65.103  1.00  0.00     0.000 HD 
ENDBRANCH   4  33
TORSDOF 5
ENDMDL
MODEL      132
REMARK 921   NORMALIZED FREE ENERGY PREDICTED BY IDOCK:   -5.75 KCAL/MOL
REMARK 922        TOTAL FREE ENERGY PREDICTED BY IDOCK:   -8.03 KCAL/MOL
REMARK 923 INTER-LIGAND FREE ENERGY PREDICTED BY IDOCK:   -6.96 KCAL/MOL
REMARK 924 INTRA-LIGAND FREE ENERGY PREDICTED BY IDOCK:   -1.06 KCAL/MOL
REMARK 927      BINDING AFFINITY PREDICTED BY RF-SCORE:    0.00 PKD
ROOT
HETATM    1  C   UNL     1     -10.900  12.489  68.592  1.00  0.00    -0.248 C  
HETATM    2  O   UNL     1     -10.459  13.864  68.574  1.00  0.00    -0.240 OA 
HETATM    3  H   UNL     1     -12.523  10.579  70.705  1.00  0.00     0.000 HD 
HETATM    4  C   UNL     1     -11.525  14.794  68.781  1.00  0.00    -0.301 C  
HETATM    5  O   UNL     1     -12.122  10.803  69.873  1.00  0.00    -0.309 OA 
HETATM    6  C   UNL     1     -12.148  14.596  70.169  1.00  0.00    -0.327 C  
HETATM    7  H   UNL     1     -13.465  12.043  71.692  1.00  0.00     0.000 HD 
HETATM    8  O   UNL     1     -13.153  12.937  71.617  1.00  0.00    -0.394 OA 
HETATM    9  O   UNL     1     -13.274  15.453  70.405  1.00  0.00    -0.685 OA 
HETATM   10  C   UNL     1     -12.650  13.155  70.289  1.00  0.00    -0.063 C  
HETATM   11  H   UNL     1     -13.660  15.331  71.264  1.00  0.00     0.000 HD 
HETATM   12  C   UNL     1     -11.554  12.124  69.945  1.00  0.00    -0.221 C  
ENDROOT
BRANCH   1  13
HETATM   13  C   UNL     1      -9.721  11.588  68.233  1.00  0.00    -0.198 A  
HETATM   14  C   UNL     1      -7.547   9.963  67.394  1.00  0.00    -0.091 A  
HETATM   15  C   UNL     1      -6.363   9.189  66.876  1.00  0.00    -0.063 C  
HETATM   16  C   UNL     1      -8.868   9.507  67.217  1.00  0.00    -0.136 A  
HETATM   17  C   UNL     1      -8.400  12.007  68.419  1.00  0.00    -0.151 A  
HETATM   18  C   UNL     1      -7.331  11.206  68.006  1.00  0.00    -0.088 A  
HETATM   19  C   UNL     1      -9.936  10.317  67.667  1.00  0.00    -0.212 A  
BRANCH  16  20
HETATM   20  C   UNL     1      -9.180   8.236  66.449  1.00  0.00    -0.247 C  
BRANCH  20  21
HETATM   21  C   UNL     1      -9.118   6.931  67.195  1.00  0.00    -0.131 A  
HETATM   22  C   UNL     1      -8.184   5.915  67.174  1.00  0.00    -0.105 A  
HETATM   23  C   UNL     1      -8.372   4.987  68.251  1.00  0.00    -0.095 A  
HETATM   24  C   UNL     1      -9.436   5.320  69.075  1.00  0.00    -0.135 A  
HETATM   25  S   UNL     1     -10.321   6.620  68.378  1.00  0.00    -0.211 SA 
BRANCH  24  26
HETATM   26  C   UNL     1      -9.841   4.747  70.378  1.00  0.00    -0.309 A  
HETATM   27  C   UNL     1     -10.562   5.511  71.316  1.00  0.00    -0.304 A  
HETATM   28  C   UNL     1     -10.883   5.002  72.578  1.00  0.00    -0.257 A  
HETATM   29  C   UNL     1     -10.469   3.725  72.924  1.00  0.00    -0.165 A  
HETATM   30  F   UNL     1     -10.750   3.249  74.144  1.00  0.00    -0.214 F  
HETATM   31  C   UNL     1      -9.763   2.942  72.022  1.00  0.00    -0.230 A  
HETATM   32  C   UNL     1      -9.451   3.449  70.754  1.00  0.00    -0.240 A  
ENDBRANCH  24  26
ENDBRANCH  20  21
ENDBRANCH  16  20
ENDBRANCH   1  13
BRANCH   4  33
HETATM   33  C   UNL     1     -10.986  16.220  68.614  1.00  0.00    -0.340 C  
HETATM   34  O   UNL     1     -10.613  16.752  69.889  1.00  0.00    -0.250 OA 
HETATM   35  H   UNL     1     -10.280  17.635  69.786  1.00  0.00     0.000 HD 
ENDBRANCH   4  33
TORSDOF 5
ENDMDL
MODEL      133
REMARK 921   NORMALIZED FREE ENERGY PREDICTED BY IDOCK:   -5.69 KCAL/MOL
REMARK 922        TOTAL FREE ENERGY PREDICTED BY IDOCK:   -7.95 KCAL/MOL
REMARK 923 INTER-LIGAND FREE ENERGY PREDICTED BY IDOCK:   -6.82 KCAL/MOL
REMARK 924 INTRA-LIGAND FREE ENERGY PREDICTED BY IDOCK:   -1.14 KCAL/MOL
REMARK 927      BINDING AFFINITY PREDICTED BY RF-SCORE:    0.00 PKD
ROOT
HETATM    1  C   UNL     1      -8.491  17.217  67.468  1.00  0.00    -0.198 C  
HETATM    2  O   UNL     1      -7.654  18.142  66.740  1.00  0.00    -0.206 OA 
HETATM    3  H   UNL     1     -10.338  17.364  70.172  1.00  0.00     0.000 HD 
HETATM    4  C   UNL     1      -8.346  19.330  66.347  1.00  0.00    -0.321 C  
HETATM    5  O   UNL     1      -9.997  16.970  69.377  1.00  0.00    -0.203 OA 
HETATM    6  C   UNL     1      -8.817  20.109  67.582  1.00  0.00    -0.309 C  
HETATM    7  H   UNL     1     -10.649  19.340  70.154  1.00  0.00     0.000 HD 
HETATM    8  O   UNL     1     -10.090  19.900  69.629  1.00  0.00    -0.268 OA 
HETATM    9  O   UNL     1      -9.585  21.275  67.249  1.00  0.00    -0.632 OA 
HETATM   10  C   UNL     1      -9.718  19.207  68.428  1.00  0.00    -0.388 C  
HETATM   11  H   UNL     1      -9.876  21.758  68.013  1.00  0.00     0.000 HD 
HETATM   12  C   UNL     1      -9.046  17.858  68.761  1.00  0.00    -0.206 C  
ENDROOT
BRANCH   1  13
HETATM   13  C   UNL     1      -7.702  15.936  67.724  1.00  0.00    -0.156 A  
HETATM   14  C   UNL     1      -6.181  13.555  68.029  1.00  0.00    -0.136 A  
HETATM   15  C   UNL     1      -5.293  12.343  68.123  1.00  0.00    -0.065 C  
HETATM   16  C   UNL     1      -7.458  13.497  67.436  1.00  0.00    -0.136 A  
HETATM   17  C   UNL     1      -6.443  15.963  68.331  1.00  0.00    -0.116 A  
HETATM   18  C   UNL     1      -5.696  14.791  68.481  1.00  0.00    -0.099 A  
HETATM   19  C   UNL     1      -8.212  14.687  67.319  1.00  0.00    -0.235 A  
BRANCH  16  20
HETATM   20  C   UNL     1      -7.992  12.222  66.809  1.00  0.00     0.010 C  
BRANCH  20  21
HETATM   21  C   UNL     1      -8.969  11.402  67.607  1.00  0.00    -0.140 A  
HETATM   22  C   UNL     1     -10.338  11.502  67.747  1.00  0.00    -0.204 A  
HETATM   23  C   UNL     1     -10.903  10.343  68.376  1.00  0.00    -0.289 A  
HETATM   24  C   UNL     1      -9.955   9.382  68.691  1.00  0.00    -0.173 A  
HETATM   25  S   UNL     1      -8.379  10.017  68.429  1.00  0.00    -0.114 SA 
BRANCH  24  26
HETATM   26  C   UNL     1     -10.138   7.991  69.164  1.00  0.00    -0.202 A  
HETATM   27  C   UNL     1     -10.281   7.701  70.535  1.00  0.00    -0.201 A  
HETATM   28  C   UNL     1     -10.379   6.385  70.994  1.00  0.00    -0.247 A  
HETATM   29  C   UNL     1     -10.316   5.339  70.087  1.00  0.00    -0.284 A  
HETATM   30  F   UNL     1     -10.378   4.076  70.531  1.00  0.00    -0.193 F  
HETATM   31  C   UNL     1     -10.182   5.588  68.729  1.00  0.00    -0.270 A  
HETATM   32  C   UNL     1     -10.096   6.908  68.267  1.00  0.00    -0.182 A  
ENDBRANCH  24  26
ENDBRANCH  20  21
ENDBRANCH  16  20
ENDBRANCH   1  13
BRANCH   4  33
HETATM   33  C   UNL     1      -7.421  20.184  65.472  1.00  0.00    -0.164 C  
HETATM   34  O   UNL     1      -7.048  21.374  66.174  1.00  0.00    -0.488 OA 
HETATM   35  H   UNL     1      -6.475  21.903  65.633  1.00  0.00     0.000 HD 
ENDBRANCH   4  33
TORSDOF 5
ENDMDL
MODEL      134
REMARK 921   NORMALIZED FREE ENERGY PREDICTED BY IDOCK:   -5.66 KCAL/MOL
REMARK 922        TOTAL FREE ENERGY PREDICTED BY IDOCK:   -7.91 KCAL/MOL
REMARK 923 INTER-LIGAND FREE ENERGY PREDICTED BY IDOCK:   -7.20 KCAL/MOL
REMARK 924 INTRA-LIGAND FREE ENERGY PREDICTED BY IDOCK:   -0.71 KCAL/MOL
REMARK 927      BINDING AFFINITY PREDICTED BY RF-SCORE:    0.00 PKD
ROOT
HETATM    1  C   UNL     1     -10.136  14.066  66.855  1.00  0.00    -0.259 C  
HETATM    2  O   UNL     1     -10.418  13.361  65.626  1.00  0.00    -0.279 OA 
HETATM    3  H   UNL     1      -9.425  17.161  67.668  1.00  0.00     0.000 HD 
HETATM    4  C   UNL     1     -11.506  13.930  64.894  1.00  0.00    -0.350 C  
HETATM    5  O   UNL     1      -9.651  16.253  67.833  1.00  0.00    -0.224 OA 
HETATM    6  C   UNL     1     -11.171  15.364  64.461  1.00  0.00    -0.299 C  
HETATM    7  H   UNL     1     -10.256  18.035  66.071  1.00  0.00     0.000 HD 
HETATM    8  O   UNL     1     -10.453  17.517  65.300  1.00  0.00    -0.643 OA 
HETATM    9  O   UNL     1     -12.258  16.013  63.785  1.00  0.00    -1.269 OA 
HETATM   10  C   UNL     1     -10.854  16.198  65.704  1.00  0.00    -0.238 C  
HETATM   11  H   UNL     1     -12.051  16.900  63.517  1.00  0.00     0.000 HD 
HETATM   12  C   UNL     1      -9.769  15.544  66.586  1.00  0.00    -0.247 C  
ENDROOT
BRANCH   1  13
HETATM   13  C   UNL     1      -9.054  13.309  67.620  1.00  0.00    -0.204 A  
HETATM   14  C   UNL     1      -6.980  11.836  68.886  1.00  0.00    -0.109 A  
HETATM   15  C   UNL     1      -5.811  11.086  69.468  1.00  0.00    -0.051 C  
HETATM   16  C   UNL     1      -8.162  11.178  68.489  1.00  0.00    -0.149 A  
HETATM   17  C   UNL     1      -7.882  13.942  68.045  1.00  0.00    -0.154 A  
HETATM   18  C   UNL     1      -6.863  13.216  68.668  1.00  0.00    -0.099 A  
HETATM   19  C   UNL     1      -9.194  11.933  67.886  1.00  0.00    -0.187 A  
BRANCH  16  20
HETATM   20  C   UNL     1      -8.305   9.670  68.574  1.00  0.00    -0.117 C  
BRANCH  20  21
HETATM   21  C   UNL     1      -8.300   8.890  67.288  1.00  0.00    -0.104 A  
HETATM   22  C   UNL     1      -7.532   9.019  66.149  1.00  0.00    -0.091 A  
HETATM   23  C   UNL     1      -7.664   7.888  65.277  1.00  0.00    -0.097 A  
HETATM   24  C   UNL     1      -8.520   6.918  65.774  1.00  0.00    -0.146 A  
HETATM   25  S   UNL     1      -9.321   7.515  67.173  1.00  0.00    -0.150 SA 
BRANCH  24  26
HETATM   26  C   UNL     1      -8.777   5.543  65.288  1.00  0.00    -0.136 A  
HETATM   27  C   UNL     1      -8.309   5.116  64.030  1.00  0.00    -0.132 A  
HETATM   28  C   UNL     1      -8.612   3.845  63.534  1.00  0.00    -0.096 A  
HETATM   29  C   UNL     1      -9.404   2.990  64.285  1.00  0.00    -0.138 A  
HETATM   30  F   UNL     1      -9.720   1.783  63.795  1.00  0.00    -0.109 F  
HETATM   31  C   UNL     1      -9.876   3.375  65.531  1.00  0.00     0.041 A  
HETATM   32  C   UNL     1      -9.563   4.645  66.033  1.00  0.00    -0.189 A  
ENDBRANCH  24  26
ENDBRANCH  20  21
ENDBRANCH  16  20
ENDBRANCH   1  13
BRANCH   4  33
HETATM   33  C   UNL     1     -11.814  13.043  63.681  1.00  0.00    -0.516 C  
HETATM   34  O   UNL     1     -10.601  12.724  62.992  1.00  0.00    -0.458 OA 
HETATM   35  H   UNL     1     -10.791  12.174  62.240  1.00  0.00     0.000 HD 
ENDBRANCH   4  33
TORSDOF 5
ENDMDL
MODEL      135
REMARK 921   NORMALIZED FREE ENERGY PREDICTED BY IDOCK:   -5.66 KCAL/MOL
REMARK 922        TOTAL FREE ENERGY PREDICTED BY IDOCK:   -7.91 KCAL/MOL
REMARK 923 INTER-LIGAND FREE ENERGY PREDICTED BY IDOCK:   -7.70 KCAL/MOL
REMARK 924 INTRA-LIGAND FREE ENERGY PREDICTED BY IDOCK:   -0.21 KCAL/MOL
REMARK 927      BINDING AFFINITY PREDICTED BY RF-SCORE:    0.00 PKD
ROOT
HETATM    1  C   UNL     1      -8.783  15.535  66.445  1.00  0.00    -0.298 C  
HETATM    2  O   UNL     1      -7.602  16.359  66.548  1.00  0.00    -0.250 OA 
HETATM    3  H   UNL     1     -11.868  15.722  67.537  1.00  0.00     0.000 HD 
HETATM    4  C   UNL     1      -7.811  17.695  66.084  1.00  0.00    -0.234 C  
HETATM    5  O   UNL     1     -11.151  15.364  67.027  1.00  0.00    -0.322 OA 
HETATM    6  C   UNL     1      -8.864  18.403  66.947  1.00  0.00    -0.279 C  
HETATM    7  H   UNL     1     -11.936  17.710  67.754  1.00  0.00     0.000 HD 
HETATM    8  O   UNL     1     -11.128  18.208  67.780  1.00  0.00    -0.210 OA 
HETATM    9  O   UNL     1      -9.172  19.726  66.482  1.00  0.00    -0.344 OA 
HETATM   10  C   UNL     1     -10.166  17.600  66.904  1.00  0.00    -0.334 C  
HETATM   11  H   UNL     1      -9.824  20.164  67.016  1.00  0.00     0.000 HD 
HETATM   12  C   UNL     1      -9.950  16.117  67.276  1.00  0.00    -0.248 C  
ENDROOT
BRANCH   1  13
HETATM   13  C   UNL     1      -8.422  14.105  66.838  1.00  0.00    -0.117 A  
HETATM   14  C   UNL     1      -7.683  11.421  67.404  1.00  0.00    -0.135 A  
HETATM   15  C   UNL     1      -7.192  10.017  67.644  1.00  0.00    -0.088 C  
HETATM   16  C   UNL     1      -8.862  11.681  66.678  1.00  0.00    -0.187 A  
HETATM   17  C   UNL     1      -7.271  13.820  67.578  1.00  0.00    -0.173 A  
HETATM   18  C   UNL     1      -6.908  12.499  67.856  1.00  0.00    -0.105 A  
HETATM   19  C   UNL     1      -9.228  13.024  66.431  1.00  0.00    -0.141 A  
BRANCH  16  20
HETATM   20  C   UNL     1      -9.677  10.567  66.048  1.00  0.00    -0.257 C  
BRANCH  20  21
HETATM   21  C   UNL     1     -10.145   9.449  66.940  1.00  0.00    -0.248 A  
HETATM   22  C   UNL     1     -10.202   8.086  66.735  1.00  0.00    -0.367 A  
HETATM   23  C   UNL     1     -10.447   7.366  67.951  1.00  0.00    -0.265 A  
HETATM   24  C   UNL     1     -10.560   8.194  69.057  1.00  0.00    -0.151 A  
HETATM   25  S   UNL     1     -10.601   9.836  68.548  1.00  0.00    -0.215 SA 
BRANCH  24  26
HETATM   26  C   UNL     1     -10.621   7.850  70.496  1.00  0.00    -0.223 A  
HETATM   27  C   UNL     1      -9.780   8.484  71.430  1.00  0.00    -0.287 A  
HETATM   28  C   UNL     1      -9.779   8.112  72.778  1.00  0.00    -0.351 A  
HETATM   29  C   UNL     1     -10.609   7.087  73.204  1.00  0.00    -0.318 A  
HETATM   30  F   UNL     1     -10.585   6.711  74.490  1.00  0.00    -0.339 F  
HETATM   31  C   UNL     1     -11.456   6.446  72.311  1.00  0.00    -0.339 A  
HETATM   32  C   UNL     1     -11.465   6.827  70.963  1.00  0.00    -0.372 A  
ENDBRANCH  24  26
ENDBRANCH  20  21
ENDBRANCH  16  20
ENDBRANCH   1  13
BRANCH   4  33
HETATM   33  C   UNL     1      -6.477  18.450  66.108  1.00  0.00    -0.225 C  
HETATM   34  O   UNL     1      -6.010  18.656  64.772  1.00  0.00    -0.280 OA 
HETATM   35  H   UNL     1      -5.183  19.124  64.786  1.00  0.00     0.000 HD 
ENDBRANCH   4  33
TORSDOF 5
ENDMDL
MODEL      136
REMARK 921   NORMALIZED FREE ENERGY PREDICTED BY IDOCK:   -5.61 KCAL/MOL
REMARK 922        TOTAL FREE ENERGY PREDICTED BY IDOCK:   -7.85 KCAL/MOL
REMARK 923 INTER-LIGAND FREE ENERGY PREDICTED BY IDOCK:   -7.71 KCAL/MOL
REMARK 924 INTRA-LIGAND FREE ENERGY PREDICTED BY IDOCK:   -0.13 KCAL/MOL
REMARK 927      BINDING AFFINITY PREDICTED BY RF-SCORE:    0.00 PKD
ROOT
HETATM    1  C   UNL     1      -9.902   4.274  69.966  1.00  0.00    -0.205 C  
HETATM    2  O   UNL     1     -10.392   5.063  71.073  1.00  0.00    -0.223 OA 
HETATM    3  H   UNL     1      -7.501   2.085  69.536  1.00  0.00     0.000 HD 
HETATM    4  C   UNL     1     -10.750   4.270  72.208  1.00  0.00     0.043 C  
HETATM    5  O   UNL     1      -8.275   2.579  69.293  1.00  0.00    -0.050 OA 
HETATM    6  C   UNL     1      -9.519   3.536  72.758  1.00  0.00    -0.114 C  
HETATM    7  H   UNL     1      -7.346   1.506  71.446  1.00  0.00     0.000 HD 
HETATM    8  O   UNL     1      -7.718   2.046  72.133  1.00  0.00    -0.043 OA 
HETATM    9  O   UNL     1      -9.831   2.664  73.854  1.00  0.00    -0.093 OA 
HETATM   10  C   UNL     1      -8.921   2.666  71.651  1.00  0.00    -0.084 C  
HETATM   11  H   UNL     1      -9.070   2.210  74.195  1.00  0.00     0.000 HD 
HETATM   12  C   UNL     1      -8.642   3.470  70.362  1.00  0.00    -0.062 C  
ENDROOT
BRANCH   1  13
HETATM   13  C   UNL     1      -9.675   5.193  68.769  1.00  0.00    -0.215 A  
HETATM   14  C   UNL     1      -9.090   6.946  66.611  1.00  0.00    -0.172 A  
HETATM   15  C   UNL     1      -8.670   7.835  65.470  1.00  0.00    -0.102 C  
HETATM   16  C   UNL     1      -9.542   7.475  67.836  1.00  0.00    -0.161 A  
HETATM   17  C   UNL     1      -9.248   4.693  67.535  1.00  0.00    -0.148 A  
HETATM   18  C   UNL     1      -8.961   5.556  66.474  1.00  0.00    -0.123 A  
HETATM   19  C   UNL     1      -9.855   6.585  68.889  1.00  0.00    -0.142 A  
BRANCH  16  20
HETATM   20  C   UNL     1      -9.582   8.969  68.097  1.00  0.00    -0.164 C  
BRANCH  20  21
HETATM   21  C   UNL     1     -10.529   9.473  69.152  1.00  0.00    -0.210 A  
HETATM   22  C   UNL     1     -10.797   9.016  70.426  1.00  0.00    -0.284 A  
HETATM   23  C   UNL     1     -11.559   9.961  71.190  1.00  0.00    -0.468 A  
HETATM   24  C   UNL     1     -11.847  11.120  70.487  1.00  0.00    -0.351 A  
HETATM   25  S   UNL     1     -11.384  10.927  68.841  1.00  0.00    -0.313 SA 
BRANCH  24  26
HETATM   26  C   UNL     1     -12.432  12.395  70.959  1.00  0.00    -0.353 A  
HETATM   27  C   UNL     1     -13.240  12.441  72.112  1.00  0.00    -0.491 A  
HETATM   28  C   UNL     1     -13.856  13.627  72.522  1.00  0.00    -0.620 A  
HETATM   29  C   UNL     1     -13.686  14.780  71.771  1.00  0.00    -0.421 A  
HETATM   30  F   UNL     1     -14.302  15.909  72.148  1.00  0.00    -0.528 F  
HETATM   31  C   UNL     1     -12.892  14.772  70.634  1.00  0.00    -0.398 A  
HETATM   32  C   UNL     1     -12.264  13.586  70.230  1.00  0.00    -0.417 A  
ENDBRANCH  24  26
ENDBRANCH  20  21
ENDBRANCH  16  20
ENDBRANCH   1  13
BRANCH   4  33
HETATM   33  C   UNL     1     -11.379   5.174  73.274  1.00  0.00    -0.290 C  
HETATM   34  O   UNL     1     -12.544   5.814  72.745  1.00  0.00    -0.511 OA 
HETATM   35  H   UNL     1     -12.934   6.374  73.406  1.00  0.00     0.000 HD 
ENDBRANCH   4  33
TORSDOF 5
ENDMDL
MODEL      137
REMARK 921   NORMALIZED FREE ENERGY PREDICTED BY IDOCK:   -5.58 KCAL/MOL
REMARK 922        TOTAL FREE ENERGY PREDICTED BY IDOCK:   -7.81 KCAL/MOL
REMARK 923 INTER-LIGAND FREE ENERGY PREDICTED BY IDOCK:   -7.59 KCAL/MOL
REMARK 924 INTRA-LIGAND FREE ENERGY PREDICTED BY IDOCK:   -0.22 KCAL/MOL
REMARK 927      BINDING AFFINITY PREDICTED BY RF-SCORE:    0.00 PKD
ROOT
HETATM    1  C   UNL     1      -9.152  16.715  68.219  1.00  0.00    -0.218 C  
HETATM    2  O   UNL     1      -9.131  17.929  67.437  1.00  0.00    -0.242 OA 
HETATM    3  H   UNL     1      -6.922  14.921  69.817  1.00  0.00     0.000 HD 
HETATM    4  C   UNL     1      -8.570  19.038  68.143  1.00  0.00    -0.320 C  
HETATM    5  O   UNL     1      -7.797  15.179  69.554  1.00  0.00    -0.210 OA 
HETATM    6  C   UNL     1      -7.100  18.765  68.491  1.00  0.00    -0.274 C  
HETATM    7  H   UNL     1      -5.583  16.382  70.100  1.00  0.00     0.000 HD 
HETATM    8  O   UNL     1      -5.636  17.176  69.581  1.00  0.00    -0.180 OA 
HETATM    9  O   UNL     1      -6.505  19.814  69.269  1.00  0.00    -0.305 OA 
HETATM   10  C   UNL     1      -7.016  17.486  69.327  1.00  0.00    -0.172 C  
HETATM   11  H   UNL     1      -5.595  19.645  69.484  1.00  0.00     0.000 HD 
HETATM   12  C   UNL     1      -7.727  16.296  68.648  1.00  0.00    -0.192 C  
ENDROOT
BRANCH   1  13
HETATM   13  C   UNL     1      -9.883  15.633  67.429  1.00  0.00    -0.225 A  
HETATM   14  C   UNL     1     -11.246  13.518  66.109  1.00  0.00    -0.306 A  
HETATM   15  C   UNL     1     -12.032  12.383  65.508  1.00  0.00    -0.453 C  
HETATM   16  C   UNL     1      -9.854  13.435  66.307  1.00  0.00    -0.295 A  
HETATM   17  C   UNL     1     -11.261  15.702  67.199  1.00  0.00    -0.152 A  
HETATM   18  C   UNL     1     -11.930  14.661  66.549  1.00  0.00    -0.284 A  
HETATM   19  C   UNL     1      -9.189  14.509  66.940  1.00  0.00    -0.267 A  
BRANCH  16  20
HETATM   20  C   UNL     1      -9.072  12.177  65.975  1.00  0.00    -0.057 C  
BRANCH  20  21
HETATM   21  C   UNL     1      -9.651  10.856  66.403  1.00  0.00    -0.197 A  
HETATM   22  C   UNL     1      -9.986   9.732  65.677  1.00  0.00    -0.352 A  
HETATM   23  C   UNL     1     -10.240   8.600  66.520  1.00  0.00    -0.295 A  
HETATM   24  C   UNL     1     -10.082   8.882  67.868  1.00  0.00    -0.206 A  
HETATM   25  S   UNL     1      -9.862  10.574  68.083  1.00  0.00    -0.157 SA 
BRANCH  24  26
HETATM   26  C   UNL     1     -10.062   7.967  69.032  1.00  0.00    -0.204 A  
HETATM   27  C   UNL     1      -9.124   8.131  70.069  1.00  0.00    -0.151 A  
HETATM   28  C   UNL     1      -9.050   7.227  71.134  1.00  0.00    -0.152 A  
HETATM   29  C   UNL     1      -9.904   6.136  71.163  1.00  0.00    -0.181 A  
HETATM   30  F   UNL     1      -9.812   5.254  72.167  1.00  0.00    -0.178 F  
HETATM   31  C   UNL     1     -10.845   5.948  70.161  1.00  0.00    -0.402 A  
HETATM   32  C   UNL     1     -10.927   6.860  69.101  1.00  0.00    -0.240 A  
ENDBRANCH  24  26
ENDBRANCH  20  21
ENDBRANCH  16  20
ENDBRANCH   1  13
BRANCH   4  33
HETATM   33  C   UNL     1      -8.710  20.302  67.287  1.00  0.00    -0.352 C  
HETATM   34  O   UNL     1      -7.490  20.552  66.584  1.00  0.00    -0.376 OA 
HETATM   35  H   UNL     1      -7.576  21.335  66.053  1.00  0.00     0.000 HD 
ENDBRANCH   4  33
TORSDOF 5
ENDMDL
MODEL      138
REMARK 921   NORMALIZED FREE ENERGY PREDICTED BY IDOCK:   -5.55 KCAL/MOL
REMARK 922        TOTAL FREE ENERGY PREDICTED BY IDOCK:   -7.77 KCAL/MOL
REMARK 923 INTER-LIGAND FREE ENERGY PREDICTED BY IDOCK:   -6.73 KCAL/MOL
REMARK 924 INTRA-LIGAND FREE ENERGY PREDICTED BY IDOCK:   -1.04 KCAL/MOL
REMARK 927      BINDING AFFINITY PREDICTED BY RF-SCORE:    0.00 PKD
ROOT
HETATM    1  C   UNL     1      -9.789  13.858  68.152  1.00  0.00    -0.240 C  
HETATM    2  O   UNL     1      -8.482  13.759  68.759  1.00  0.00    -0.097 OA 
HETATM    3  H   UNL     1     -11.545  16.248  66.756  1.00  0.00     0.000 HD 
HETATM    4  C   UNL     1      -7.430  14.189  67.893  1.00  0.00    -0.152 C  
HETATM    5  O   UNL     1     -11.346  15.353  67.005  1.00  0.00    -0.288 OA 
HETATM    6  C   UNL     1      -7.594  15.675  67.545  1.00  0.00    -0.175 C  
HETATM    7  H   UNL     1     -10.006  17.419  66.239  1.00  0.00     0.000 HD 
HETATM    8  O   UNL     1      -9.158  17.287  66.645  1.00  0.00    -0.245 OA 
HETATM    9  O   UNL     1      -6.607  16.145  66.616  1.00  0.00    -0.250 OA 
HETATM   10  C   UNL     1      -8.961  15.886  66.891  1.00  0.00    -0.231 C  
HETATM   11  H   UNL     1      -6.708  17.065  66.401  1.00  0.00     0.000 HD 
HETATM   12  C   UNL     1     -10.112  15.314  67.746  1.00  0.00    -0.230 C  
ENDROOT
BRANCH   1  13
HETATM   13  C   UNL     1     -10.820  13.257  69.102  1.00  0.00    -0.148 A  
HETATM   14  C   UNL     1     -12.604  12.069  70.968  1.00  0.00    -0.370 A  
HETATM   15  C   UNL     1     -13.475  11.470  72.041  1.00  0.00    -0.298 C  
HETATM   16  C   UNL     1     -12.030  11.280  69.951  1.00  0.00    -0.440 A  
HETATM   17  C   UNL     1     -11.423  14.022  70.105  1.00  0.00    -0.199 A  
HETATM   18  C   UNL     1     -12.300  13.437  71.022  1.00  0.00    -0.401 A  
HETATM   19  C   UNL     1     -11.167  11.894  69.015  1.00  0.00    -0.316 A  
BRANCH  16  20
HETATM   20  C   UNL     1     -12.211   9.773  69.909  1.00  0.00     0.231 C  
BRANCH  20  21
HETATM   21  C   UNL     1     -11.169   8.922  70.582  1.00  0.00    -0.266 A  
HETATM   22  C   UNL     1     -10.079   9.262  71.356  1.00  0.00    -0.348 A  
HETATM   23  C   UNL     1      -9.520   8.126  72.030  1.00  0.00    -0.279 A  
HETATM   24  C   UNL     1     -10.201   6.949  71.765  1.00  0.00    -0.189 A  
HETATM   25  S   UNL     1     -11.355   7.218  70.518  1.00  0.00    -0.266 SA 
BRANCH  24  26
HETATM   26  C   UNL     1     -10.071   5.615  72.395  1.00  0.00    -0.214 A  
HETATM   27  C   UNL     1     -11.133   5.051  73.128  1.00  0.00    -0.395 A  
HETATM   28  C   UNL     1     -10.992   3.826  73.788  1.00  0.00    -0.312 A  
HETATM   29  C   UNL     1      -9.778   3.160  73.737  1.00  0.00    -0.103 A  
HETATM   30  F   UNL     1      -9.634   2.001  74.395  1.00  0.00    -0.086 F  
HETATM   31  C   UNL     1      -8.713   3.683  73.018  1.00  0.00    -0.096 A  
HETATM   32  C   UNL     1      -8.858   4.905  72.347  1.00  0.00    -0.130 A  
ENDBRANCH  24  26
ENDBRANCH  20  21
ENDBRANCH  16  20
ENDBRANCH   1  13
BRANCH   4  33
HETATM   33  C   UNL     1      -6.080  13.924  68.571  1.00  0.00    -0.093 C  
HETATM   34  O   UNL     1      -6.194  12.814  69.466  1.00  0.00    -0.108 OA 
HETATM   35  H   UNL     1      -5.358  12.649  69.886  1.00  0.00     0.000 HD 
ENDBRANCH   4  33
TORSDOF 5
ENDMDL
MODEL      139
REMARK 921   NORMALIZED FREE ENERGY PREDICTED BY IDOCK:   -5.55 KCAL/MOL
REMARK 922        TOTAL FREE ENERGY PREDICTED BY IDOCK:   -7.77 KCAL/MOL
REMARK 923 INTER-LIGAND FREE ENERGY PREDICTED BY IDOCK:   -6.83 KCAL/MOL
REMARK 924 INTRA-LIGAND FREE ENERGY PREDICTED BY IDOCK:   -0.94 KCAL/MOL
REMARK 927      BINDING AFFINITY PREDICTED BY RF-SCORE:    0.00 PKD
ROOT
HETATM    1  C   UNL     1      -7.355   5.672  67.788  1.00  0.00    -0.077 C  
HETATM    2  O   UNL     1      -8.059   5.826  66.536  1.00  0.00    -0.101 OA 
HETATM    3  H   UNL     1      -5.326   3.441  69.071  1.00  0.00     0.000 HD 
HETATM    4  C   UNL     1      -7.193   5.786  65.400  1.00  0.00    -0.070 C  
HETATM    5  O   UNL     1      -5.788   4.270  69.034  1.00  0.00    -0.020 OA 
HETATM    6  C   UNL     1      -6.502   4.419  65.300  1.00  0.00    -0.036 C  
HETATM    7  H   UNL     1      -4.663   2.683  67.342  1.00  0.00     0.000 HD 
HETATM    8  O   UNL     1      -5.147   2.845  66.541  1.00  0.00    -0.004 OA 
HETATM    9  O   UNL     1      -5.560   4.345  64.220  1.00  0.00    -0.013 OA 
HETATM   10  C   UNL     1      -5.722   4.159  66.591  1.00  0.00    -0.022 C  
HETATM   11  H   UNL     1      -5.133   3.499  64.158  1.00  0.00     0.000 HD 
HETATM   12  C   UNL     1      -6.603   4.323  67.849  1.00  0.00    -0.043 C  
ENDROOT
BRANCH   1  13
HETATM   13  C   UNL     1      -8.344   5.860  68.935  1.00  0.00    -0.102 A  
HETATM   14  C   UNL     1     -10.294   6.294  70.956  1.00  0.00    -0.258 A  
HETATM   15  C   UNL     1     -11.410   6.500  71.946  1.00  0.00    -0.327 C  
HETATM   16  C   UNL     1      -9.422   7.339  70.592  1.00  0.00    -0.164 A  
HETATM   17  C   UNL     1      -9.205   4.832  69.332  1.00  0.00    -0.169 A  
HETATM   18  C   UNL     1     -10.164   5.047  70.327  1.00  0.00    -0.328 A  
HETATM   19  C   UNL     1      -8.440   7.095  69.605  1.00  0.00    -0.134 A  
BRANCH  16  20
HETATM   20  C   UNL     1      -9.588   8.746  71.135  1.00  0.00    -0.309 C  
BRANCH  20  21
HETATM   21  C   UNL     1     -10.601   9.639  70.473  1.00  0.00    -0.306 A  
HETATM   22  C   UNL     1     -11.723  10.268  70.972  1.00  0.00    -0.461 A  
HETATM   23  C   UNL     1     -12.241  11.251  70.065  1.00  0.00    -0.389 A  
HETATM   24  C   UNL     1     -11.498  11.357  68.900  1.00  0.00    -0.298 A  
HETATM   25  S   UNL     1     -10.332  10.095  68.841  1.00  0.00    -0.220 SA 
BRANCH  24  26
HETATM   26  C   UNL     1     -11.577  12.360  67.813  1.00  0.00    -0.413 A  
HETATM   27  C   UNL     1     -11.745  11.967  66.472  1.00  0.00    -0.330 A  
HETATM   28  C   UNL     1     -11.746  12.903  65.433  1.00  0.00    -0.413 A  
HETATM   29  C   UNL     1     -11.560  14.245  65.725  1.00  0.00    -0.346 A  
HETATM   30  F   UNL     1     -11.530  15.139  64.726  1.00  0.00    -0.365 F  
HETATM   31  C   UNL     1     -11.399  14.669  67.036  1.00  0.00    -0.362 A  
HETATM   32  C   UNL     1     -11.410  13.731  68.077  1.00  0.00    -0.318 A  
ENDBRANCH  24  26
ENDBRANCH  20  21
ENDBRANCH  16  20
ENDBRANCH   1  13
BRANCH   4  33
HETATM   33  C   UNL     1      -8.007   6.089  64.136  1.00  0.00    -0.119 C  
HETATM   34  O   UNL     1      -8.262   7.493  64.045  1.00  0.00    -0.317 OA 
HETATM   35  H   UNL     1      -8.766   7.681  63.263  1.00  0.00     0.000 HD 
ENDBRANCH   4  33
TORSDOF 5
ENDMDL
MODEL      140
REMARK 921   NORMALIZED FREE ENERGY PREDICTED BY IDOCK:   -5.55 KCAL/MOL
REMARK 922        TOTAL FREE ENERGY PREDICTED BY IDOCK:   -7.77 KCAL/MOL
REMARK 923 INTER-LIGAND FREE ENERGY PREDICTED BY IDOCK:   -7.46 KCAL/MOL
REMARK 924 INTRA-LIGAND FREE ENERGY PREDICTED BY IDOCK:   -0.31 KCAL/MOL
REMARK 927      BINDING AFFINITY PREDICTED BY RF-SCORE:    0.00 PKD
ROOT
HETATM    1  C   UNL     1     -10.373   8.087  69.097  1.00  0.00    -0.220 C  
HETATM    2  O   UNL     1     -10.758   7.535  70.375  1.00  0.00    -0.229 OA 
HETATM    3  H   UNL     1      -7.635   8.128  67.296  1.00  0.00     0.000 HD 
HETATM    4  C   UNL     1     -10.537   6.126  70.464  1.00  0.00    -0.253 C  
HETATM    5  O   UNL     1      -8.558   8.271  67.471  1.00  0.00    -0.128 OA 
HETATM    6  C   UNL     1      -9.041   5.809  70.330  1.00  0.00    -0.146 C  
HETATM    7  H   UNL     1      -6.799   6.485  68.075  1.00  0.00     0.000 HD 
HETATM    8  O   UNL     1      -7.115   6.144  68.904  1.00  0.00    -0.076 OA 
HETATM    9  O   UNL     1      -8.764   4.400  70.337  1.00  0.00    -0.082 OA 
HETATM   10  C   UNL     1      -8.532   6.358  68.996  1.00  0.00    -0.124 C  
HETATM   11  H   UNL     1      -7.839   4.204  70.254  1.00  0.00     0.000 HD 
HETATM   12  C   UNL     1      -8.872   7.853  68.812  1.00  0.00    -0.138 C  
ENDROOT
BRANCH   1  13
HETATM   13  C   UNL     1     -10.769   9.560  69.057  1.00  0.00    -0.224 A  
HETATM   14  C   UNL     1     -11.673  12.251  68.937  1.00  0.00    -0.380 A  
HETATM   15  C   UNL     1     -12.251  13.642  68.924  1.00  0.00    -0.221 C  
HETATM   16  C   UNL     1     -11.346  11.571  67.747  1.00  0.00    -0.364 A  
HETATM   17  C   UNL     1     -11.076  10.266  70.225  1.00  0.00    -0.388 A  
HETATM   18  C   UNL     1     -11.520  11.590  70.164  1.00  0.00    -0.258 A  
HETATM   19  C   UNL     1     -10.871  10.242  67.829  1.00  0.00    -0.346 A  
BRANCH  16  20
HETATM   20  C   UNL     1     -11.608  12.177  66.381  1.00  0.00    -0.429 C  
BRANCH  20  21
HETATM   21  C   UNL     1     -10.776  13.360  65.966  1.00  0.00    -0.278 A  
HETATM   22  C   UNL     1     -10.984  14.324  65.000  1.00  0.00    -0.394 A  
HETATM   23  C   UNL     1     -10.078  15.428  65.135  1.00  0.00    -0.299 A  
HETATM   24  C   UNL     1      -9.208  15.287  66.205  1.00  0.00    -0.310 A  
HETATM   25  S   UNL     1      -9.361  13.709  66.871  1.00  0.00    -0.259 SA 
BRANCH  24  26
HETATM   26  C   UNL     1      -8.267  16.265  66.796  1.00  0.00    -0.294 A  
HETATM   27  C   UNL     1      -8.630  17.616  66.960  1.00  0.00    -0.252 A  
HETATM   28  C   UNL     1      -7.721  18.560  67.448  1.00  0.00    -0.233 A  
HETATM   29  C   UNL     1      -6.429  18.166  67.760  1.00  0.00    -0.188 A  
HETATM   30  F   UNL     1      -5.550  19.077  68.198  1.00  0.00    -0.184 F  
HETATM   31  C   UNL     1      -6.040  16.842  67.616  1.00  0.00    -0.161 A  
HETATM   32  C   UNL     1      -6.954  15.894  67.139  1.00  0.00    -0.227 A  
ENDBRANCH  24  26
ENDBRANCH  20  21
ENDBRANCH  16  20
ENDBRANCH   1  13
BRANCH   4  33
HETATM   33  C   UNL     1     -11.094   5.613  71.797  1.00  0.00    -0.199 C  
HETATM   34  O   UNL     1     -10.379   6.206  72.885  1.00  0.00    -0.184 OA 
HETATM   35  H   UNL     1     -10.724   5.889  73.711  1.00  0.00     0.000 HD 
ENDBRANCH   4  33
TORSDOF 5
ENDMDL
MODEL      141
REMARK 921   NORMALIZED FREE ENERGY PREDICTED BY IDOCK:   -5.54 KCAL/MOL
REMARK 922        TOTAL FREE ENERGY PREDICTED BY IDOCK:   -7.76 KCAL/MOL
REMARK 923 INTER-LIGAND FREE ENERGY PREDICTED BY IDOCK:   -6.80 KCAL/MOL
REMARK 924 INTRA-LIGAND FREE ENERGY PREDICTED BY IDOCK:   -0.96 KCAL/MOL
REMARK 927      BINDING AFFINITY PREDICTED BY RF-SCORE:    0.00 PKD
ROOT
HETATM    1  C   UNL     1      -8.432   5.632  66.771  1.00  0.00    -0.111 C  
HETATM    2  O   UNL     1      -9.602   5.150  66.076  1.00  0.00    -0.155 OA 
HETATM    3  H   UNL     1      -5.839   4.252  68.224  1.00  0.00     0.000 HD 
HETATM    4  C   UNL     1      -9.284   4.302  64.970  1.00  0.00    -0.155 C  
HETATM    5  O   UNL     1      -6.356   4.970  67.879  1.00  0.00    -0.037 OA 
HETATM    6  C   UNL     1      -8.561   3.038  65.454  1.00  0.00    -0.112 C  
HETATM    7  H   UNL     1      -5.876   2.525  67.213  1.00  0.00     0.000 HD 
HETATM    8  O   UNL     1      -6.661   2.272  66.743  1.00  0.00    -0.038 OA 
HETATM    9  O   UNL     1      -8.148   2.182  64.378  1.00  0.00    -0.073 OA 
HETATM   10  C   UNL     1      -7.296   3.446  66.211  1.00  0.00    -0.072 C  
HETATM   11  H   UNL     1      -7.701   1.400  64.677  1.00  0.00     0.000 HD 
HETATM   12  C   UNL     1      -7.589   4.465  67.333  1.00  0.00    -0.081 C  
ENDROOT
BRANCH   1  13
HETATM   13  C   UNL     1      -8.872   6.625  67.844  1.00  0.00    -0.115 A  
HETATM   14  C   UNL     1      -9.785   8.560  69.714  1.00  0.00    -0.179 A  
HETATM   15  C   UNL     1     -10.375   9.579  70.653  1.00  0.00    -0.369 C  
HETATM   16  C   UNL     1      -8.722   8.876  68.846  1.00  0.00    -0.136 A  
HETATM   17  C   UNL     1      -9.909   6.328  68.733  1.00  0.00    -0.156 A  
HETATM   18  C   UNL     1     -10.358   7.281  69.653  1.00  0.00    -0.227 A  
HETATM   19  C   UNL     1      -8.262   7.891  67.942  1.00  0.00    -0.129 A  
BRANCH  16  20
HETATM   20  C   UNL     1      -8.143  10.277  68.767  1.00  0.00    -0.120 C  
BRANCH  20  21
HETATM   21  C   UNL     1      -8.897  11.304  67.968  1.00  0.00    -0.148 A  
HETATM   22  C   UNL     1     -10.098  11.229  67.293  1.00  0.00    -0.214 A  
HETATM   23  C   UNL     1     -10.583  12.523  66.907  1.00  0.00    -0.255 A  
HETATM   24  C   UNL     1      -9.748  13.555  67.304  1.00  0.00    -0.236 A  
HETATM   25  S   UNL     1      -8.282  12.906  67.928  1.00  0.00    -0.179 SA 
BRANCH  24  26
HETATM   26  C   UNL     1      -9.970  15.019  67.275  1.00  0.00    -0.233 A  
HETATM   27  C   UNL     1     -10.165  15.749  68.463  1.00  0.00    -0.216 A  
HETATM   28  C   UNL     1     -10.450  17.117  68.439  1.00  0.00    -0.376 A  
HETATM   29  C   UNL     1     -10.560  17.769  67.220  1.00  0.00    -0.316 A  
HETATM   30  F   UNL     1     -10.863  19.074  67.197  1.00  0.00    -0.477 F  
HETATM   31  C   UNL     1     -10.366  17.083  66.031  1.00  0.00    -0.324 A  
HETATM   32  C   UNL     1     -10.070  15.714  66.056  1.00  0.00    -0.355 A  
ENDBRANCH  24  26
ENDBRANCH  20  21
ENDBRANCH  16  20
ENDBRANCH   1  13
BRANCH   4  33
HETATM   33  C   UNL     1     -10.574   3.949  64.219  1.00  0.00    -0.223 C  
HETATM   34  O   UNL     1     -11.711   4.353  64.988  1.00  0.00    -0.984 OA 
HETATM   35  H   UNL     1     -12.510   4.135  64.524  1.00  0.00     0.000 HD 
ENDBRANCH   4  33
TORSDOF 5
ENDMDL
MODEL      142
REMARK 921   NORMALIZED FREE ENERGY PREDICTED BY IDOCK:   -5.54 KCAL/MOL
REMARK 922        TOTAL FREE ENERGY PREDICTED BY IDOCK:   -7.76 KCAL/MOL
REMARK 923 INTER-LIGAND FREE ENERGY PREDICTED BY IDOCK:   -7.12 KCAL/MOL
REMARK 924 INTRA-LIGAND FREE ENERGY PREDICTED BY IDOCK:   -0.64 KCAL/MOL
REMARK 927      BINDING AFFINITY PREDICTED BY RF-SCORE:    0.00 PKD
ROOT
HETATM    1  C   UNL     1     -10.443  13.617  66.743  1.00  0.00    -0.270 C  
HETATM    2  O   UNL     1     -10.774  12.637  65.735  1.00  0.00    -0.260 OA 
HETATM    3  H   UNL     1      -9.755  16.822  66.754  1.00  0.00     0.000 HD 
HETATM    4  C   UNL     1     -11.911  13.006  64.950  1.00  0.00    -0.396 C  
HETATM    5  O   UNL     1      -9.953  15.979  67.143  1.00  0.00    -0.241 OA 
HETATM    6  C   UNL     1     -11.629  14.297  64.171  1.00  0.00    -0.194 C  
HETATM    7  H   UNL     1     -10.687  17.283  65.044  1.00  0.00     0.000 HD 
HETATM    8  O   UNL     1     -10.913  16.594  64.431  1.00  0.00    -0.924 OA 
HETATM    9  O   UNL     1     -12.764  14.758  63.422  1.00  0.00    -0.732 OA 
HETATM   10  C   UNL     1     -11.265  15.407  65.159  1.00  0.00    -0.350 C  
HETATM   11  H   UNL     1     -12.589  15.557  62.939  1.00  0.00     0.000 HD 
HETATM   12  C   UNL     1     -10.122  14.991  66.110  1.00  0.00    -0.294 C  
ENDROOT
BRANCH   1  13
HETATM   13  C   UNL     1      -9.307  13.074  67.604  1.00  0.00    -0.202 A  
HETATM   14  C   UNL     1      -7.111  12.003  69.056  1.00  0.00    -0.077 A  
HETATM   15  C   UNL     1      -5.877  11.475  69.740  1.00  0.00    -0.104 C  
HETATM   16  C   UNL     1      -8.139  11.147  68.614  1.00  0.00    -0.150 A  
HETATM   17  C   UNL     1      -8.285  13.905  68.075  1.00  0.00    -0.161 A  
HETATM   18  C   UNL     1      -7.206  13.377  68.789  1.00  0.00    -0.092 A  
HETATM   19  C   UNL     1      -9.237  11.702  67.918  1.00  0.00    -0.171 A  
BRANCH  16  20
HETATM   20  C   UNL     1      -8.040   9.639  68.752  1.00  0.00    -0.097 C  
BRANCH  20  21
HETATM   21  C   UNL     1      -8.575   9.013  70.011  1.00  0.00    -0.151 A  
HETATM   22  C   UNL     1      -9.759   9.207  70.692  1.00  0.00    -0.314 A  
HETATM   23  C   UNL     1      -9.984   8.198  71.685  1.00  0.00    -0.252 A  
HETATM   24  C   UNL     1      -8.973   7.250  71.733  1.00  0.00    -0.127 A  
HETATM   25  S   UNL     1      -7.667   7.748  70.732  1.00  0.00    -0.085 SA 
BRANCH  24  26
HETATM   26  C   UNL     1      -8.913   5.965  72.466  1.00  0.00    -0.132 A  
HETATM   27  C   UNL     1      -8.933   4.735  71.780  1.00  0.00    -0.154 A  
HETATM   28  C   UNL     1      -8.951   3.518  72.468  1.00  0.00    -0.118 A  
HETATM   29  C   UNL     1      -8.968   3.518  73.854  1.00  0.00    -0.087 A  
HETATM   30  F   UNL     1      -9.016   2.352  74.513  1.00  0.00    -0.070 F  
HETATM   31  C   UNL     1      -8.941   4.711  74.562  1.00  0.00    -0.112 A  
HETATM   32  C   UNL     1      -8.911   5.930  73.872  1.00  0.00    -0.126 A  
ENDBRANCH  24  26
ENDBRANCH  20  21
ENDBRANCH  16  20
ENDBRANCH   1  13
BRANCH   4  33
HETATM   33  C   UNL     1     -12.263  11.852  64.003  1.00  0.00    -0.339 C  
HETATM   34  O   UNL     1     -13.634  11.950  63.605  1.00  0.00    -0.337 OA 
HETATM   35  H   UNL     1     -13.852  11.236  63.018  1.00  0.00     0.000 HD 
ENDBRANCH   4  33
TORSDOF 5
ENDMDL
MODEL      143
REMARK 921   NORMALIZED FREE ENERGY PREDICTED BY IDOCK:   -5.54 KCAL/MOL
REMARK 922        TOTAL FREE ENERGY PREDICTED BY IDOCK:   -7.76 KCAL/MOL
REMARK 923 INTER-LIGAND FREE ENERGY PREDICTED BY IDOCK:   -6.59 KCAL/MOL
REMARK 924 INTRA-LIGAND FREE ENERGY PREDICTED BY IDOCK:   -1.17 KCAL/MOL
REMARK 927      BINDING AFFINITY PREDICTED BY RF-SCORE:    0.00 PKD
ROOT
HETATM    1  C   UNL     1     -11.102  10.291  70.601  1.00  0.00    -0.280 C  
HETATM    2  O   UNL     1      -9.878   9.534  70.708  1.00  0.00    -0.272 OA 
HETATM    3  H   UNL     1     -14.295   9.641  70.953  1.00  0.00     0.000 HD 
HETATM    4  C   UNL     1      -9.729   8.891  71.977  1.00  0.00    -0.234 C  
HETATM    5  O   UNL     1     -13.534  10.196  70.836  1.00  0.00    -0.345 OA 
HETATM    6  C   UNL     1     -10.850   7.866  72.194  1.00  0.00    -0.269 C  
HETATM    7  H   UNL     1     -14.095   8.050  72.151  1.00  0.00     0.000 HD 
HETATM    8  O   UNL     1     -13.256   7.609  72.211  1.00  0.00    -0.116 OA 
HETATM    9  O   UNL     1     -10.796   7.242  73.486  1.00  0.00    -0.482 OA 
HETATM   10  C   UNL     1     -12.201   8.577  72.097  1.00  0.00    -0.382 C  
HETATM   11  H   UNL     1     -11.489   6.608  73.620  1.00  0.00     0.000 HD 
HETATM   12  C   UNL     1     -12.343   9.388  70.791  1.00  0.00    -0.120 C  
ENDROOT
BRANCH   1  13
HETATM   13  C   UNL     1     -11.104  11.039  69.270  1.00  0.00    -0.312 A  
HETATM   14  C   UNL     1     -11.240  12.321  66.738  1.00  0.00    -0.371 A  
HETATM   15  C   UNL     1     -11.429  12.991  65.402  1.00  0.00    -0.344 C  
HETATM   16  C   UNL     1     -10.556  11.095  66.864  1.00  0.00    -0.304 A  
HETATM   17  C   UNL     1     -11.755  12.267  69.123  1.00  0.00    -0.377 A  
HETATM   18  C   UNL     1     -11.821  12.897  67.877  1.00  0.00    -0.388 A  
HETATM   19  C   UNL     1     -10.475  10.487  68.137  1.00  0.00    -0.217 A  
BRANCH  16  20
HETATM   20  C   UNL     1     -10.017  10.352  65.655  1.00  0.00    -0.337 C  
BRANCH  20  21
HETATM   21  C   UNL     1      -8.835   9.444  65.860  1.00  0.00    -0.162 A  
HETATM   22  C   UNL     1      -7.489   9.718  65.990  1.00  0.00    -0.102 A  
HETATM   23  C   UNL     1      -6.748   8.580  66.453  1.00  0.00    -0.070 A  
HETATM   24  C   UNL     1      -7.545   7.469  66.676  1.00  0.00    -0.097 A  
HETATM   25  S   UNL     1      -9.134   7.770  66.091  1.00  0.00    -0.118 SA 
BRANCH  24  26
HETATM   26  C   UNL     1      -7.214   6.179  67.325  1.00  0.00    -0.075 A  
HETATM   27  C   UNL     1      -6.547   6.139  68.565  1.00  0.00    -0.059 A  
HETATM   28  C   UNL     1      -6.165   4.927  69.147  1.00  0.00    -0.030 A  
HETATM   29  C   UNL     1      -6.430   3.739  68.485  1.00  0.00    -0.037 A  
HETATM   30  F   UNL     1      -6.036   2.579  69.028  1.00  0.00    -0.022 F  
HETATM   31  C   UNL     1      -7.091   3.741  67.265  1.00  0.00    -0.059 A  
HETATM   32  C   UNL     1      -7.485   4.955  66.688  1.00  0.00    -0.087 A  
ENDBRANCH  24  26
ENDBRANCH  20  21
ENDBRANCH  16  20
ENDBRANCH   1  13
BRANCH   4  33
HETATM   33  C   UNL     1      -8.349   8.226  72.044  1.00  0.00    -0.165 C  
HETATM   34  O   UNL     1      -7.533   8.893  73.012  1.00  0.00    -0.355 OA 
HETATM   35  H   UNL     1      -6.678   8.481  73.054  1.00  0.00     0.000 HD 
ENDBRANCH   4  33
TORSDOF 5
ENDMDL
MODEL      144
REMARK 921   NORMALIZED FREE ENERGY PREDICTED BY IDOCK:   -5.52 KCAL/MOL
REMARK 922        TOTAL FREE ENERGY PREDICTED BY IDOCK:   -7.73 KCAL/MOL
REMARK 923 INTER-LIGAND FREE ENERGY PREDICTED BY IDOCK:   -7.41 KCAL/MOL
REMARK 924 INTRA-LIGAND FREE ENERGY PREDICTED BY IDOCK:   -0.31 KCAL/MOL
REMARK 927      BINDING AFFINITY PREDICTED BY RF-SCORE:    0.00 PKD
ROOT
HETATM    1  C   UNL     1      -9.359  13.753  66.005  1.00  0.00    -0.015 C  
HETATM    2  O   UNL     1      -9.671  15.152  66.179  1.00  0.00    -0.269 OA 
HETATM    3  H   UNL     1     -11.083  11.023  65.440  1.00  0.00     0.000 HD 
HETATM    4  C   UNL     1     -10.406  15.701  65.083  1.00  0.00    -0.334 C  
HETATM    5  O   UNL     1     -10.294  11.545  65.530  1.00  0.00    -0.253 OA 
HETATM    6  C   UNL     1     -11.767  15.004  64.948  1.00  0.00    -0.336 C  
HETATM    7  H   UNL     1     -12.674  11.902  64.602  1.00  0.00     0.000 HD 
HETATM    8  O   UNL     1     -12.813  12.834  64.720  1.00  0.00    -0.707 OA 
HETATM    9  O   UNL     1     -12.520  15.462  63.815  1.00  0.00    -0.969 OA 
HETATM   10  C   UNL     1     -11.542  13.503  64.758  1.00  0.00    -0.349 C  
HETATM   11  H   UNL     1     -13.363  15.031  63.731  1.00  0.00     0.000 HD 
HETATM   12  C   UNL     1     -10.642  12.903  65.859  1.00  0.00    -0.269 C  
ENDROOT
BRANCH   1  13
HETATM   13  C   UNL     1      -8.467  13.300  67.158  1.00  0.00    -0.182 A  
HETATM   14  C   UNL     1      -6.693  12.388  69.182  1.00  0.00    -0.090 A  
HETATM   15  C   UNL     1      -5.664  11.939  70.185  1.00  0.00    -0.147 C  
HETATM   16  C   UNL     1      -7.584  11.481  68.574  1.00  0.00    -0.130 A  
HETATM   17  C   UNL     1      -7.591  14.185  67.794  1.00  0.00    -0.175 A  
HETATM   18  C   UNL     1      -6.719  13.735  68.790  1.00  0.00    -0.103 A  
HETATM   19  C   UNL     1      -8.478  11.959  67.589  1.00  0.00    -0.156 A  
BRANCH  16  20
HETATM   20  C   UNL     1      -7.523   9.991  68.853  1.00  0.00    -0.083 C  
BRANCH  20  21
HETATM   21  C   UNL     1      -8.640   9.380  69.654  1.00  0.00    -0.168 A  
HETATM   22  C   UNL     1     -10.010   9.455  69.507  1.00  0.00    -0.200 A  
HETATM   23  C   UNL     1     -10.694   8.490  70.319  1.00  0.00    -0.242 A  
HETATM   24  C   UNL     1      -9.832   7.696  71.058  1.00  0.00    -0.174 A  
HETATM   25  S   UNL     1      -8.229   8.302  70.923  1.00  0.00    -0.127 SA 
BRANCH  24  26
HETATM   26  C   UNL     1     -10.113   6.481  71.857  1.00  0.00    -0.200 A  
HETATM   27  C   UNL     1     -10.212   5.216  71.247  1.00  0.00    -0.292 A  
HETATM   28  C   UNL     1     -10.550   4.077  71.984  1.00  0.00     0.062 A  
HETATM   29  C   UNL     1     -10.812   4.194  73.340  1.00  0.00    -0.244 A  
HETATM   30  F   UNL     1     -11.166   3.107  74.039  1.00  0.00    -0.263 F  
HETATM   31  C   UNL     1     -10.717   5.424  73.975  1.00  0.00    -0.253 A  
HETATM   32  C   UNL     1     -10.367   6.563  73.238  1.00  0.00    -0.260 A  
ENDBRANCH  24  26
ENDBRANCH  20  21
ENDBRANCH  16  20
ENDBRANCH   1  13
BRANCH   4  33
HETATM   33  C   UNL     1     -10.575  17.210  65.295  1.00  0.00    -0.043 C  
HETATM   34  O   UNL     1      -9.529  17.703  66.138  1.00  0.00    -0.441 OA 
HETATM   35  H   UNL     1      -9.633  18.638  66.270  1.00  0.00     0.000 HD 
ENDBRANCH   4  33
TORSDOF 5
ENDMDL
MODEL      145
REMARK 921   NORMALIZED FREE ENERGY PREDICTED BY IDOCK:   -5.51 KCAL/MOL
REMARK 922        TOTAL FREE ENERGY PREDICTED BY IDOCK:   -7.72 KCAL/MOL
REMARK 923 INTER-LIGAND FREE ENERGY PREDICTED BY IDOCK:   -7.01 KCAL/MOL
REMARK 924 INTRA-LIGAND FREE ENERGY PREDICTED BY IDOCK:   -0.71 KCAL/MOL
REMARK 927      BINDING AFFINITY PREDICTED BY RF-SCORE:    0.00 PKD
ROOT
HETATM    1  C   UNL     1      -9.510  13.905  66.135  1.00  0.00    -0.171 C  
HETATM    2  O   UNL     1     -10.076  15.218  65.929  1.00  0.00    -0.287 OA 
HETATM    3  H   UNL     1     -10.681  10.846  66.261  1.00  0.00     0.000 HD 
HETATM    4  C   UNL     1     -10.813  15.322  64.709  1.00  0.00    -0.358 C  
HETATM    5  O   UNL     1     -10.006  11.513  66.231  1.00  0.00    -0.208 OA 
HETATM    6  C   UNL     1     -12.017  14.370  64.726  1.00  0.00    -0.447 C  
HETATM    7  H   UNL     1     -12.336  11.167  65.182  1.00  0.00     0.000 HD 
HETATM    8  O   UNL     1     -12.645  12.055  65.048  1.00  0.00    -0.415 OA 
HETATM    9  O   UNL     1     -12.753  14.376  63.494  1.00  0.00    -0.926 OA 
HETATM   10  C   UNL     1     -11.518  12.940  64.942  1.00  0.00    -0.315 C  
HETATM   11  H   UNL     1     -13.498  13.787  63.505  1.00  0.00     0.000 HD 
HETATM   12  C   UNL     1     -10.610  12.819  66.184  1.00  0.00    -0.266 C  
ENDROOT
BRANCH   1  13
HETATM   13  C   UNL     1      -8.641  13.935  67.389  1.00  0.00    -0.206 A  
HETATM   14  C   UNL     1      -6.877  14.005  69.615  1.00  0.00    -0.017 A  
HETATM   15  C   UNL     1      -5.880  14.125  70.739  1.00  0.00    -0.203 C  
HETATM   16  C   UNL     1      -7.044  12.806  68.895  1.00  0.00    -0.067 A  
HETATM   17  C   UNL     1      -8.475  15.105  68.136  1.00  0.00    -0.152 A  
HETATM   18  C   UNL     1      -7.608  15.139  69.231  1.00  0.00    -0.201 A  
HETATM   19  C   UNL     1      -7.947  12.783  67.808  1.00  0.00    -0.157 A  
BRANCH  16  20
HETATM   20  C   UNL     1      -6.192  11.580  69.172  1.00  0.00    -0.071 C  
BRANCH  20  21
HETATM   21  C   UNL     1      -6.898  10.270  69.393  1.00  0.00    -0.076 A  
HETATM   22  C   UNL     1      -7.605   9.789  70.476  1.00  0.00    -0.110 A  
HETATM   23  C   UNL     1      -8.351   8.607  70.153  1.00  0.00    -0.126 A  
HETATM   24  C   UNL     1      -8.205   8.220  68.830  1.00  0.00    -0.116 A  
HETATM   25  S   UNL     1      -6.980   9.167  68.081  1.00  0.00    -0.077 SA 
BRANCH  24  26
HETATM   26  C   UNL     1      -8.938   7.190  68.058  1.00  0.00    -0.127 A  
HETATM   27  C   UNL     1      -8.271   6.072  67.521  1.00  0.00    -0.106 A  
HETATM   28  C   UNL     1      -8.941   5.136  66.728  1.00  0.00    -0.113 A  
HETATM   29  C   UNL     1     -10.286   5.318  66.448  1.00  0.00    -0.268 A  
HETATM   30  F   UNL     1     -10.921   4.436  65.663  1.00  0.00    -0.293 F  
HETATM   31  C   UNL     1     -10.976   6.404  66.967  1.00  0.00    -0.463 A  
HETATM   32  C   UNL     1     -10.307   7.336  67.771  1.00  0.00    -0.267 A  
ENDBRANCH  24  26
ENDBRANCH  20  21
ENDBRANCH  16  20
ENDBRANCH   1  13
BRANCH   4  33
HETATM   33  C   UNL     1     -11.260  16.776  64.515  1.00  0.00     0.219 C  
HETATM   34  O   UNL     1     -10.602  17.619  65.466  1.00  0.00    -0.622 OA 
HETATM   35  H   UNL     1     -10.879  18.520  65.346  1.00  0.00     0.000 HD 
ENDBRANCH   4  33
TORSDOF 5
ENDMDL
MODEL      146
REMARK 921   NORMALIZED FREE ENERGY PREDICTED BY IDOCK:   -5.51 KCAL/MOL
REMARK 922        TOTAL FREE ENERGY PREDICTED BY IDOCK:   -7.72 KCAL/MOL
REMARK 923 INTER-LIGAND FREE ENERGY PREDICTED BY IDOCK:   -6.60 KCAL/MOL
REMARK 924 INTRA-LIGAND FREE ENERGY PREDICTED BY IDOCK:   -1.12 KCAL/MOL
REMARK 927      BINDING AFFINITY PREDICTED BY RF-SCORE:    0.00 PKD
ROOT
HETATM    1  C   UNL     1      -8.361   5.862  66.123  1.00  0.00    -0.124 C  
HETATM    2  O   UNL     1      -7.786   6.491  64.957  1.00  0.00    -0.089 OA 
HETATM    3  H   UNL     1     -10.834   3.784  66.680  1.00  0.00     0.000 HD 
HETATM    4  C   UNL     1      -7.378   5.552  63.960  1.00  0.00    -0.058 C  
HETATM    5  O   UNL     1     -10.065   4.294  66.906  1.00  0.00    -0.196 OA 
HETATM    6  C   UNL     1      -8.590   4.771  63.432  1.00  0.00    -0.131 C  
HETATM    7  H   UNL     1     -10.885   2.963  64.856  1.00  0.00     0.000 HD 
HETATM    8  O   UNL     1     -10.460   3.403  64.129  1.00  0.00    -0.211 OA 
HETATM    9  O   UNL     1      -8.232   3.758  62.480  1.00  0.00    -0.073 OA 
HETATM   10  C   UNL     1      -9.275   4.062  64.602  1.00  0.00    -0.151 C  
HETATM   11  H   UNL     1      -8.981   3.275  62.153  1.00  0.00     0.000 HD 
HETATM   12  C   UNL     1      -9.612   5.031  65.755  1.00  0.00    -0.148 C  
ENDROOT
BRANCH   1  13
HETATM   13  C   UNL     1      -8.639   6.933  67.174  1.00  0.00    -0.121 A  
HETATM   14  C   UNL     1      -9.312   8.840  69.169  1.00  0.00    -0.149 A  
HETATM   15  C   UNL     1      -9.708   9.762  70.293  1.00  0.00    -0.279 C  
HETATM   16  C   UNL     1      -9.907   8.925  67.895  1.00  0.00    -0.205 A  
HETATM   17  C   UNL     1      -8.046   6.886  68.439  1.00  0.00    -0.120 A  
HETATM   18  C   UNL     1      -8.377   7.826  69.420  1.00  0.00    -0.133 A  
HETATM   19  C   UNL     1      -9.538   7.984  66.906  1.00  0.00    -0.265 A  
BRANCH  16  20
HETATM   20  C   UNL     1     -11.018   9.913  67.594  1.00  0.00    -0.263 C  
BRANCH  20  21
HETATM   21  C   UNL     1     -10.646  11.203  66.915  1.00  0.00    -0.258 A  
HETATM   22  C   UNL     1     -10.573  11.540  65.579  1.00  0.00    -0.334 A  
HETATM   23  C   UNL     1     -10.454  12.956  65.383  1.00  0.00    -0.308 A  
HETATM   24  C   UNL     1     -10.450  13.668  66.572  1.00  0.00    -0.281 A  
HETATM   25  S   UNL     1     -10.353  12.578  67.899  1.00  0.00    -0.222 SA 
BRANCH  24  26
HETATM   26  C   UNL     1     -10.536  15.128  66.803  1.00  0.00    -0.283 A  
HETATM   27  C   UNL     1     -10.167  16.045  65.800  1.00  0.00    -0.401 A  
HETATM   28  C   UNL     1     -10.174  17.423  66.035  1.00  0.00    -0.308 A  
HETATM   29  C   UNL     1     -10.534  17.900  67.286  1.00  0.00    -0.366 A  
HETATM   30  F   UNL     1     -10.511  19.219  67.521  1.00  0.00    -0.414 F  
HETATM   31  C   UNL     1     -10.909  17.025  68.295  1.00  0.00    -0.341 A  
HETATM   32  C   UNL     1     -10.913  15.645  68.055  1.00  0.00    -0.318 A  
ENDBRANCH  24  26
ENDBRANCH  20  21
ENDBRANCH  16  20
ENDBRANCH   1  13
BRANCH   4  33
HETATM   33  C   UNL     1      -6.665   6.299  62.827  1.00  0.00    -0.037 C  
HETATM   34  O   UNL     1      -5.546   5.535  62.368  1.00  0.00    -0.014 OA 
HETATM   35  H   UNL     1      -5.104   5.997  61.666  1.00  0.00     0.000 HD 
ENDBRANCH   4  33
TORSDOF 5
ENDMDL
MODEL      147
REMARK 921   NORMALIZED FREE ENERGY PREDICTED BY IDOCK:   -5.50 KCAL/MOL
REMARK 922        TOTAL FREE ENERGY PREDICTED BY IDOCK:   -7.70 KCAL/MOL
REMARK 923 INTER-LIGAND FREE ENERGY PREDICTED BY IDOCK:   -6.86 KCAL/MOL
REMARK 924 INTRA-LIGAND FREE ENERGY PREDICTED BY IDOCK:   -0.84 KCAL/MOL
REMARK 927      BINDING AFFINITY PREDICTED BY RF-SCORE:    0.00 PKD
ROOT
HETATM    1  C   UNL     1      -8.851   7.504  66.438  1.00  0.00    -0.156 C  
HETATM    2  O   UNL     1      -9.755   6.381  66.514  1.00  0.00    -0.163 OA 
HETATM    3  H   UNL     1      -5.673   7.996  67.074  1.00  0.00     0.000 HD 
HETATM    4  C   UNL     1      -9.307   5.250  65.763  1.00  0.00    -0.139 C  
HETATM    5  O   UNL     1      -6.534   8.222  66.742  1.00  0.00    -0.054 OA 
HETATM    6  C   UNL     1      -7.977   4.727  66.323  1.00  0.00    -0.103 C  
HETATM    7  H   UNL     1      -5.080   6.096  66.866  1.00  0.00     0.000 HD 
HETATM    8  O   UNL     1      -5.722   5.398  66.890  1.00  0.00    -0.016 OA 
HETATM    9  O   UNL     1      -7.439   3.637  65.561  1.00  0.00    -0.075 OA 
HETATM   10  C   UNL     1      -6.942   5.854  66.285  1.00  0.00    -0.063 C  
HETATM   11  H   UNL     1      -6.616   3.313  65.907  1.00  0.00     0.000 HD 
HETATM   12  C   UNL     1      -7.449   7.136  66.978  1.00  0.00    -0.097 C  
ENDROOT
BRANCH   1  13
HETATM   13  C   UNL     1      -9.479   8.693  67.159  1.00  0.00    -0.207 A  
HETATM   14  C   UNL     1     -10.783  10.902  68.380  1.00  0.00    -0.240 A  
HETATM   15  C   UNL     1     -11.576  12.019  69.008  1.00  0.00    -0.370 C  
HETATM   16  C   UNL     1     -10.003  11.104  67.224  1.00  0.00    -0.211 A  
HETATM   17  C   UNL     1     -10.239   8.524  68.320  1.00  0.00    -0.244 A  
HETATM   18  C   UNL     1     -10.880   9.612  68.920  1.00  0.00    -0.201 A  
HETATM   19  C   UNL     1      -9.339   9.998  66.647  1.00  0.00    -0.202 A  
BRANCH  16  20
HETATM   20  C   UNL     1      -9.958  12.444  66.513  1.00  0.00    -0.242 C  
BRANCH  20  21
HETATM   21  C   UNL     1      -8.997  13.481  67.028  1.00  0.00    -0.231 A  
HETATM   22  C   UNL     1      -7.643  13.418  67.286  1.00  0.00    -0.076 A  
HETATM   23  C   UNL     1      -7.072  14.717  67.495  1.00  0.00    -0.203 A  
HETATM   24  C   UNL     1      -7.999  15.741  67.380  1.00  0.00    -0.168 A  
HETATM   25  S   UNL     1      -9.581  15.078  67.257  1.00  0.00    -0.210 SA 
BRANCH  24  26
HETATM   26  C   UNL     1      -7.791  17.206  67.334  1.00  0.00    -0.191 A  
HETATM   27  C   UNL     1      -8.182  18.030  68.407  1.00  0.00    -0.305 A  
HETATM   28  C   UNL     1      -8.057  19.421  68.340  1.00  0.00    -0.378 A  
HETATM   29  C   UNL     1      -7.555  20.006  67.187  1.00  0.00    -0.287 A  
HETATM   30  F   UNL     1      -7.465  21.341  67.112  1.00  0.00    -0.393 F  
HETATM   31  C   UNL     1      -7.154  19.224  66.114  1.00  0.00    -0.273 A  
HETATM   32  C   UNL     1      -7.269  17.830  66.187  1.00  0.00    -0.346 A  
ENDBRANCH  24  26
ENDBRANCH  20  21
ENDBRANCH  16  20
ENDBRANCH   1  13
BRANCH   4  33
HETATM   33  C   UNL     1     -10.388   4.163  65.797  1.00  0.00    -0.065 C  
HETATM   34  O   UNL     1     -11.307   4.356  64.717  1.00  0.00    -0.952 OA 
HETATM   35  H   UNL     1     -11.976   3.683  64.738  1.00  0.00     0.000 HD 
ENDBRANCH   4  33
TORSDOF 5
ENDMDL
MODEL      148
REMARK 921   NORMALIZED FREE ENERGY PREDICTED BY IDOCK:   -5.45 KCAL/MOL
REMARK 922        TOTAL FREE ENERGY PREDICTED BY IDOCK:   -7.64 KCAL/MOL
REMARK 923 INTER-LIGAND FREE ENERGY PREDICTED BY IDOCK:   -6.60 KCAL/MOL
REMARK 924 INTRA-LIGAND FREE ENERGY PREDICTED BY IDOCK:   -1.04 KCAL/MOL
REMARK 927      BINDING AFFINITY PREDICTED BY RF-SCORE:    0.00 PKD
ROOT
HETATM    1  C   UNL     1      -9.182  17.197  68.879  1.00  0.00    -0.200 C  
HETATM    2  O   UNL     1      -9.752  18.098  67.905  1.00  0.00    -0.280 OA 
HETATM    3  H   UNL     1      -6.533  15.271  69.015  1.00  0.00     0.000 HD 
HETATM    4  C   UNL     1      -8.842  19.119  67.489  1.00  0.00    -0.295 C  
HETATM    5  O   UNL     1      -7.300  15.713  69.360  1.00  0.00    -0.194 OA 
HETATM    6  C   UNL     1      -7.624  18.499  66.790  1.00  0.00    -0.229 C  
HETATM    7  H   UNL     1      -5.436  16.260  67.665  1.00  0.00     0.000 HD 
HETATM    8  O   UNL     1      -5.858  16.869  67.071  1.00  0.00    -0.147 OA 
HETATM    9  O   UNL     1      -6.637  19.472  66.416  1.00  0.00    -0.184 OA 
HETATM   10  C   UNL     1      -6.945  17.519  67.748  1.00  0.00    -0.172 C  
HETATM   11  H   UNL     1      -5.884  19.089  65.983  1.00  0.00     0.000 HD 
HETATM   12  C   UNL     1      -7.933  16.479  68.318  1.00  0.00    -0.177 C  
ENDROOT
BRANCH   1  13
HETATM   13  C   UNL     1     -10.266  16.233  69.353  1.00  0.00    -0.265 A  
HETATM   14  C   UNL     1     -12.154  14.322  70.277  1.00  0.00    -0.403 A  
HETATM   15  C   UNL     1     -13.080  13.284  70.855  1.00  0.00    -0.076 C  
HETATM   16  C   UNL     1     -11.591  14.182  68.993  1.00  0.00    -0.342 A  
HETATM   17  C   UNL     1     -10.858  16.363  70.613  1.00  0.00     0.021 A  
HETATM   18  C   UNL     1     -11.787  15.421  71.066  1.00  0.00    -0.406 A  
HETATM   19  C   UNL     1     -10.675  15.158  68.540  1.00  0.00    -0.240 A  
BRANCH  16  20
HETATM   20  C   UNL     1     -11.841  12.952  68.139  1.00  0.00    -0.380 C  
BRANCH  20  21
HETATM   21  C   UNL     1     -10.700  11.992  67.939  1.00  0.00    -0.210 A  
HETATM   22  C   UNL     1     -10.361  10.831  68.603  1.00  0.00    -0.208 A  
HETATM   23  C   UNL     1      -9.361  10.080  67.903  1.00  0.00    -0.151 A  
HETATM   24  C   UNL     1      -8.967  10.677  66.716  1.00  0.00    -0.138 A  
HETATM   25  S   UNL     1      -9.652  12.250  66.605  1.00  0.00    -0.227 SA 
BRANCH  24  26
HETATM   26  C   UNL     1      -8.118  10.148  65.624  1.00  0.00    -0.149 A  
HETATM   27  C   UNL     1      -8.675   9.411  64.562  1.00  0.00    -0.233 A  
HETATM   28  C   UNL     1      -7.872   8.844  63.568  1.00  0.00    -0.141 A  
HETATM   29  C   UNL     1      -6.495   8.994  63.636  1.00  0.00    -0.089 A  
HETATM   30  F   UNL     1      -5.724   8.425  62.700  1.00  0.00    -0.070 F  
HETATM   31  C   UNL     1      -5.913   9.720  64.665  1.00  0.00    -0.092 A  
HETATM   32  C   UNL     1      -6.719  10.297  65.654  1.00  0.00    -0.122 A  
ENDBRANCH  24  26
ENDBRANCH  20  21
ENDBRANCH  16  20
ENDBRANCH   1  13
BRANCH   4  33
HETATM   33  C   UNL     1      -9.573  20.098  66.563  1.00  0.00    -0.404 C  
HETATM   34  O   UNL     1     -10.955  19.738  66.468  1.00  0.00    -0.399 OA 
HETATM   35  H   UNL     1     -11.408  20.344  65.894  1.00  0.00     0.000 HD 
ENDBRANCH   4  33
TORSDOF 5
ENDMDL
MODEL      149
REMARK 921   NORMALIZED FREE ENERGY PREDICTED BY IDOCK:   -5.43 KCAL/MOL
REMARK 922        TOTAL FREE ENERGY PREDICTED BY IDOCK:   -7.62 KCAL/MOL
REMARK 923 INTER-LIGAND FREE ENERGY PREDICTED BY IDOCK:   -7.11 KCAL/MOL
REMARK 924 INTRA-LIGAND FREE ENERGY PREDICTED BY IDOCK:   -0.51 KCAL/MOL
REMARK 927      BINDING AFFINITY PREDICTED BY RF-SCORE:    0.00 PKD
ROOT
HETATM    1  C   UNL     1     -10.048  14.575  67.362  1.00  0.00    -0.235 C  
HETATM    2  O   UNL     1      -8.686  15.021  67.180  1.00  0.00    -0.192 OA 
HETATM    3  H   UNL     1     -12.390  15.061  69.604  1.00  0.00     0.000 HD 
HETATM    4  C   UNL     1      -8.562  16.445  67.175  1.00  0.00    -0.181 C  
HETATM    5  O   UNL     1     -12.031  14.752  68.780  1.00  0.00    -0.304 OA 
HETATM    6  C   UNL     1      -8.992  17.026  68.529  1.00  0.00    -0.263 C  
HETATM    7  H   UNL     1     -11.709  16.809  70.301  1.00  0.00     0.000 HD 
HETATM    8  O   UNL     1     -10.813  17.070  70.122  1.00  0.00    -0.089 OA 
HETATM    9  O   UNL     1      -8.960  18.461  68.559  1.00  0.00    -0.312 OA 
HETATM   10  C   UNL     1     -10.434  16.605  68.817  1.00  0.00    -0.324 C  
HETATM   11  H   UNL     1      -9.226  18.820  69.396  1.00  0.00     0.000 HD 
HETATM   12  C   UNL     1     -10.631  15.078  68.703  1.00  0.00    -0.237 C  
ENDROOT
BRANCH   1  13
HETATM   13  C   UNL     1     -10.091  13.056  67.222  1.00  0.00    -0.235 A  
HETATM   14  C   UNL     1     -10.352  10.239  66.949  1.00  0.00    -0.298 A  
HETATM   15  C   UNL     1     -10.574   8.767  66.724  1.00  0.00    -0.220 C  
HETATM   16  C   UNL     1     -10.593  10.844  68.198  1.00  0.00    -0.233 A  
HETATM   17  C   UNL     1      -9.834  12.428  65.999  1.00  0.00    -0.268 A  
HETATM   18  C   UNL     1      -9.962  11.042  65.866  1.00  0.00    -0.289 A  
HETATM   19  C   UNL     1     -10.430  12.243  68.322  1.00  0.00    -0.236 A  
BRANCH  16  20
HETATM   20  C   UNL     1     -11.141  10.059  69.375  1.00  0.00    -0.265 C  
BRANCH  20  21
HETATM   21  C   UNL     1     -10.346   8.879  69.864  1.00  0.00    -0.206 A  
HETATM   22  C   UNL     1      -9.023   8.767  70.240  1.00  0.00    -0.174 A  
HETATM   23  C   UNL     1      -8.755   7.527  70.909  1.00  0.00    -0.142 A  
HETATM   24  C   UNL     1      -9.879   6.727  71.038  1.00  0.00    -0.182 A  
HETATM   25  S   UNL     1     -11.177   7.402  70.134  1.00  0.00    -0.172 SA 
BRANCH  24  26
HETATM   26  C   UNL     1     -10.072   5.482  71.817  1.00  0.00    -0.247 A  
HETATM   27  C   UNL     1     -10.665   5.509  73.094  1.00  0.00    -0.308 A  
HETATM   28  C   UNL     1     -10.783   4.349  73.866  1.00  0.00    -0.340 A  
HETATM   29  C   UNL     1     -10.291   3.150  73.375  1.00  0.00    -0.148 A  
HETATM   30  F   UNL     1     -10.377   2.045  74.128  1.00  0.00    -0.127 F  
HETATM   31  C   UNL     1      -9.708   3.086  72.118  1.00  0.00    -0.231 A  
HETATM   32  C   UNL     1      -9.601   4.246  71.340  1.00  0.00    -0.239 A  
ENDBRANCH  24  26
ENDBRANCH  20  21
ENDBRANCH  16  20
ENDBRANCH   1  13
BRANCH   4  33
HETATM   33  C   UNL     1      -7.112  16.822  66.846  1.00  0.00    -0.223 C  
HETATM   34  O   UNL     1      -7.028  18.218  66.547  1.00  0.00    -0.192 OA 
HETATM   35  H   UNL     1      -6.130  18.452  66.344  1.00  0.00     0.000 HD 
ENDBRANCH   4  33
TORSDOF 5
ENDMDL
MODEL      150
REMARK 921   NORMALIZED FREE ENERGY PREDICTED BY IDOCK:   -5.37 KCAL/MOL
REMARK 922        TOTAL FREE ENERGY PREDICTED BY IDOCK:   -7.55 KCAL/MOL
REMARK 923 INTER-LIGAND FREE ENERGY PREDICTED BY IDOCK:   -7.30 KCAL/MOL
REMARK 924 INTRA-LIGAND FREE ENERGY PREDICTED BY IDOCK:   -0.25 KCAL/MOL
REMARK 927      BINDING AFFINITY PREDICTED BY RF-SCORE:    0.00 PKD
ROOT
HETATM    1  C   UNL     1      -9.861  16.293  67.361  1.00  0.00    -0.242 C  
HETATM    2  O   UNL     1      -9.994  17.588  66.736  1.00  0.00    -0.286 OA 
HETATM    3  H   UNL     1      -7.453  14.656  68.866  1.00  0.00     0.000 HD 
HETATM    4  C   UNL     1      -9.643  18.666  67.606  1.00  0.00    -0.300 C  
HETATM    5  O   UNL     1      -8.345  14.813  68.581  1.00  0.00    -0.152 OA 
HETATM    6  C   UNL     1      -8.165  18.570  68.010  1.00  0.00    -0.268 C  
HETATM    7  H   UNL     1      -6.369  16.249  69.408  1.00  0.00     0.000 HD 
HETATM    8  O   UNL     1      -6.522  17.087  68.987  1.00  0.00    -0.178 OA 
HETATM    9  O   UNL     1      -7.773  19.586  68.945  1.00  0.00    -0.358 OA 
HETATM   10  C   UNL     1      -7.920  17.220  68.687  1.00  0.00    -0.267 C  
HETATM   11  H   UNL     1      -6.859  19.527  69.195  1.00  0.00     0.000 HD 
HETATM   12  C   UNL     1      -8.409  16.036  67.825  1.00  0.00    -0.150 C  
ENDROOT
BRANCH   1  13
HETATM   13  C   UNL     1     -10.381  15.226  66.401  1.00  0.00    -0.296 A  
HETATM   14  C   UNL     1     -11.501  13.234  64.712  1.00  0.00    -0.355 A  
HETATM   15  C   UNL     1     -12.197  12.234  63.828  1.00  0.00    -0.642 C  
HETATM   16  C   UNL     1     -10.916  12.861  65.939  1.00  0.00    -0.300 A  
HETATM   17  C   UNL     1     -10.945  15.567  65.168  1.00  0.00    -0.422 A  
HETATM   18  C   UNL     1     -11.495  14.586  64.338  1.00  0.00    -0.282 A  
HETATM   19  C   UNL     1     -10.340  13.863  66.753  1.00  0.00    -0.272 A  
BRANCH  16  20
HETATM   20  C   UNL     1     -11.001  11.441  66.467  1.00  0.00    -0.328 C  
BRANCH  20  21
HETATM   21  C   UNL     1      -9.863  10.937  67.312  1.00  0.00    -0.175 A  
HETATM   22  C   UNL     1      -9.360  11.381  68.518  1.00  0.00    -0.180 A  
HETATM   23  C   UNL     1      -8.454  10.438  69.106  1.00  0.00    -0.168 A  
HETATM   24  C   UNL     1      -8.295   9.291  68.343  1.00  0.00    -0.119 A  
HETATM   25  S   UNL     1      -9.068   9.499  66.821  1.00  0.00    -0.150 SA 
BRANCH  24  26
HETATM   26  C   UNL     1      -7.616   8.018  68.675  1.00  0.00    -0.100 A  
HETATM   27  C   UNL     1      -7.569   7.543  70.000  1.00  0.00    -0.088 A  
HETATM   28  C   UNL     1      -6.866   6.381  70.333  1.00  0.00    -0.058 A  
HETATM   29  C   UNL     1      -6.185   5.690  69.343  1.00  0.00    -0.032 A  
HETATM   30  F   UNL     1      -5.485   4.593  69.668  1.00  0.00    -0.006 F  
HETATM   31  C   UNL     1      -6.215   6.126  68.027  1.00  0.00    -0.029 A  
HETATM   32  C   UNL     1      -6.929   7.284  67.692  1.00  0.00    -0.076 A  
ENDBRANCH  24  26
ENDBRANCH  20  21
ENDBRANCH  16  20
ENDBRANCH   1  13
BRANCH   4  33
HETATM   33  C   UNL     1      -9.939  19.996  66.903  1.00  0.00    -0.449 C  
HETATM   34  O   UNL     1      -8.758  20.803  66.868  1.00  0.00    -0.568 OA 
HETATM   35  H   UNL     1      -8.941  21.627  66.433  1.00  0.00     0.000 HD 
ENDBRANCH   4  33
TORSDOF 5
ENDMDL
MODEL      151
REMARK 921   NORMALIZED FREE ENERGY PREDICTED BY IDOCK:   -5.37 KCAL/MOL
REMARK 922        TOTAL FREE ENERGY PREDICTED BY IDOCK:   -7.54 KCAL/MOL
REMARK 923 INTER-LIGAND FREE ENERGY PREDICTED BY IDOCK:   -6.54 KCAL/MOL
REMARK 924 INTRA-LIGAND FREE ENERGY PREDICTED BY IDOCK:   -1.00 KCAL/MOL
REMARK 927      BINDING AFFINITY PREDICTED BY RF-SCORE:    0.00 PKD
ROOT
HETATM    1  C   UNL     1     -10.358  11.299  68.964  1.00  0.00    -0.166 C  
HETATM    2  O   UNL     1     -11.312  11.632  67.932  1.00  0.00    -0.254 OA 
HETATM    3  H   UNL     1      -7.132  10.733  69.075  1.00  0.00     0.000 HD 
HETATM    4  C   UNL     1     -10.959  12.812  67.206  1.00  0.00    -0.262 C  
HETATM    5  O   UNL     1      -7.997  10.883  69.439  1.00  0.00    -0.119 OA 
HETATM    6  C   UNL     1      -9.629  12.609  66.467  1.00  0.00    -0.248 C  
HETATM    7  H   UNL     1      -6.643  11.747  67.421  1.00  0.00     0.000 HD 
HETATM    8  O   UNL     1      -7.317  11.971  66.790  1.00  0.00    -0.088 OA 
HETATM    9  O   UNL     1      -9.184  13.789  65.780  1.00  0.00    -0.485 OA 
HETATM   10  C   UNL     1      -8.544  12.249  67.484  1.00  0.00    -0.174 C  
HETATM   11  H   UNL     1      -8.362  13.664  65.323  1.00  0.00     0.000 HD 
HETATM   12  C   UNL     1      -8.950  11.055  68.374  1.00  0.00    -0.158 C  
ENDROOT
BRANCH   1  13
HETATM   13  C   UNL     1     -10.889  10.110  69.761  1.00  0.00    -0.320 A  
HETATM   14  C   UNL     1     -11.708   7.865  71.296  1.00  0.00    -0.313 A  
HETATM   15  C   UNL     1     -12.066   6.708  72.193  1.00  0.00    -0.299 C  
HETATM   16  C   UNL     1     -11.136   7.669  70.024  1.00  0.00    -0.201 A  
HETATM   17  C   UNL     1     -11.482  10.279  71.016  1.00  0.00    -0.386 A  
HETATM   18  C   UNL     1     -11.885   9.173  71.770  1.00  0.00    -0.453 A  
HETATM   19  C   UNL     1     -10.761   8.799  69.263  1.00  0.00    -0.166 A  
BRANCH  16  20
HETATM   20  C   UNL     1     -10.797   6.284  69.504  1.00  0.00    -0.404 C  
BRANCH  20  21
HETATM   21  C   UNL     1     -10.178   6.180  68.136  1.00  0.00    -0.175 A  
HETATM   22  C   UNL     1     -10.655   5.638  66.961  1.00  0.00    -0.358 A  
HETATM   23  C   UNL     1      -9.853   6.007  65.830  1.00  0.00     0.150 A  
HETATM   24  C   UNL     1      -8.790   6.830  66.166  1.00  0.00    -0.148 A  
HETATM   25  S   UNL     1      -8.660   6.937  67.878  1.00  0.00    -0.122 SA 
BRANCH  24  26
HETATM   26  C   UNL     1      -7.856   7.576  65.292  1.00  0.00    -0.120 A  
HETATM   27  C   UNL     1      -8.268   8.066  64.038  1.00  0.00    -0.049 A  
HETATM   28  C   UNL     1      -7.372   8.705  63.176  1.00  0.00    -0.101 A  
HETATM   29  C   UNL     1      -6.046   8.847  63.553  1.00  0.00    -0.084 A  
HETATM   30  F   UNL     1      -5.181   9.432  62.713  1.00  0.00    -0.072 F  
HETATM   31  C   UNL     1      -5.607   8.383  64.785  1.00  0.00    -0.044 A  
HETATM   32  C   UNL     1      -6.508   7.752  65.653  1.00  0.00    -0.042 A  
ENDBRANCH  24  26
ENDBRANCH  20  21
ENDBRANCH  16  20
ENDBRANCH   1  13
BRANCH   4  33
HETATM   33  C   UNL     1     -12.088  13.157  66.228  1.00  0.00    -0.397 C  
HETATM   34  O   UNL     1     -12.177  12.153  65.213  1.00  0.00    -0.484 OA 
HETATM   35  H   UNL     1     -12.877  12.366  64.607  1.00  0.00     0.000 HD 
ENDBRANCH   4  33
TORSDOF 5
ENDMDL
MODEL      152
REMARK 921   NORMALIZED FREE ENERGY PREDICTED BY IDOCK:   -5.33 KCAL/MOL
REMARK 922        TOTAL FREE ENERGY PREDICTED BY IDOCK:   -7.49 KCAL/MOL
REMARK 923 INTER-LIGAND FREE ENERGY PREDICTED BY IDOCK:   -6.30 KCAL/MOL
REMARK 924 INTRA-LIGAND FREE ENERGY PREDICTED BY IDOCK:   -1.19 KCAL/MOL
REMARK 927      BINDING AFFINITY PREDICTED BY RF-SCORE:    0.00 PKD
ROOT
HETATM    1  C   UNL     1      -7.907   8.241  66.703  1.00  0.00    -0.094 C  
HETATM    2  O   UNL     1      -8.072   9.360  65.805  1.00  0.00    -0.111 OA 
HETATM    3  H   UNL     1      -8.285   4.992  66.486  1.00  0.00     0.000 HD 
HETATM    4  C   UNL     1      -7.305   9.231  64.606  1.00  0.00    -0.101 C  
HETATM    5  O   UNL     1      -8.017   5.806  66.895  1.00  0.00    -0.101 OA 
HETATM    6  C   UNL     1      -7.766   8.007  63.803  1.00  0.00    -0.135 C  
HETATM    7  H   UNL     1      -8.059   4.846  64.503  1.00  0.00     0.000 HD 
HETATM    8  O   UNL     1      -8.144   5.622  63.961  1.00  0.00    -0.119 OA 
HETATM    9  O   UNL     1      -6.980   7.782  62.623  1.00  0.00    -0.078 OA 
HETATM   10  C   UNL     1      -7.630   6.758  64.675  1.00  0.00    -0.105 C  
HETATM   11  H   UNL     1      -7.266   7.026  62.126  1.00  0.00     0.000 HD 
HETATM   12  C   UNL     1      -8.341   6.915  66.036  1.00  0.00    -0.134 C  
ENDROOT
BRANCH   1  13
HETATM   13  C   UNL     1      -8.657   8.534  67.999  1.00  0.00    -0.134 A  
HETATM   14  C   UNL     1     -10.167   8.946  70.370  1.00  0.00    -0.236 A  
HETATM   15  C   UNL     1     -10.976   9.048  71.637  1.00  0.00    -0.435 C  
HETATM   16  C   UNL     1     -10.638   9.459  69.145  1.00  0.00    -0.234 A  
HETATM   17  C   UNL     1      -8.200   8.057  69.231  1.00  0.00    -0.127 A  
HETATM   18  C   UNL     1      -8.944   8.260  70.397  1.00  0.00    -0.146 A  
HETATM   19  C   UNL     1      -9.859   9.269  67.981  1.00  0.00    -0.191 A  
BRANCH  16  20
HETATM   20  C   UNL     1     -12.009  10.096  69.019  1.00  0.00     0.244 C  
BRANCH  20  21
HETATM   21  C   UNL     1     -12.098  11.596  69.105  1.00  0.00    -0.251 A  
HETATM   22  C   UNL     1     -12.352  12.431  70.174  1.00  0.00    -0.209 A  
HETATM   23  C   UNL     1     -12.062  13.802  69.868  1.00  0.00    -0.412 A  
HETATM   24  C   UNL     1     -11.584  13.981  68.579  1.00  0.00    -0.322 A  
HETATM   25  S   UNL     1     -11.726  12.509  67.701  1.00  0.00    -0.325 SA 
BRANCH  24  26
HETATM   26  C   UNL     1     -10.999  15.183  67.944  1.00  0.00    -0.302 A  
HETATM   27  C   UNL     1     -11.110  16.451  68.546  1.00  0.00    -0.357 A  
HETATM   28  C   UNL     1     -10.625  17.601  67.916  1.00  0.00    -0.390 A  
HETATM   29  C   UNL     1     -10.038  17.498  66.665  1.00  0.00    -0.328 A  
HETATM   30  F   UNL     1      -9.601  18.605  66.048  1.00  0.00    -0.317 F  
HETATM   31  C   UNL     1      -9.906  16.264  66.046  1.00  0.00    -0.371 A  
HETATM   32  C   UNL     1     -10.381  15.110  66.682  1.00  0.00    -0.274 A  
ENDBRANCH  24  26
ENDBRANCH  20  21
ENDBRANCH  16  20
ENDBRANCH   1  13
BRANCH   4  33
HETATM   33  C   UNL     1      -7.440  10.517  63.782  1.00  0.00     0.079 C  
HETATM   34  O   UNL     1      -6.267  10.711  62.986  1.00  0.00    -0.284 OA 
HETATM   35  H   UNL     1      -6.350  11.508  62.476  1.00  0.00     0.000 HD 
ENDBRANCH   4  33
TORSDOF 5
ENDMDL
MODEL      153
REMARK 921   NORMALIZED FREE ENERGY PREDICTED BY IDOCK:   -5.32 KCAL/MOL
REMARK 922        TOTAL FREE ENERGY PREDICTED BY IDOCK:   -7.48 KCAL/MOL
REMARK 923 INTER-LIGAND FREE ENERGY PREDICTED BY IDOCK:   -6.57 KCAL/MOL
REMARK 924 INTRA-LIGAND FREE ENERGY PREDICTED BY IDOCK:   -0.91 KCAL/MOL
REMARK 927      BINDING AFFINITY PREDICTED BY RF-SCORE:    0.00 PKD
ROOT
HETATM    1  C   UNL     1      -8.774   5.857  65.855  1.00  0.00    -0.150 C  
HETATM    2  O   UNL     1      -8.463   5.645  67.249  1.00  0.00    -0.108 OA 
HETATM    3  H   UNL     1      -8.850   3.988  63.163  1.00  0.00     0.000 HD 
HETATM    4  C   UNL     1      -9.249   4.611  67.845  1.00  0.00    -0.127 C  
HETATM    5  O   UNL     1      -9.000   4.775  63.675  1.00  0.00    -0.140 OA 
HETATM    6  C   UNL     1      -8.966   3.263  67.166  1.00  0.00    -0.157 C  
HETATM    7  H   UNL     1      -9.108   2.232  64.087  1.00  0.00     0.000 HD 
HETATM    8  O   UNL     1      -8.921   2.156  65.015  1.00  0.00    -0.116 OA 
HETATM    9  O   UNL     1      -9.784   2.198  67.673  1.00  0.00    -0.404 OA 
HETATM   10  C   UNL     1      -9.268   3.386  65.671  1.00  0.00    -0.154 C  
HETATM   11  H   UNL     1      -9.609   1.365  67.253  1.00  0.00     0.000 HD 
HETATM   12  C   UNL     1      -8.532   4.578  65.022  1.00  0.00    -0.128 C  
ENDROOT
BRANCH   1  13
HETATM   13  C   UNL     1      -7.981   7.060  65.350  1.00  0.00    -0.129 A  
HETATM   14  C   UNL     1      -6.402   9.286  64.560  1.00  0.00    -0.077 A  
HETATM   15  C   UNL     1      -5.471  10.407  64.180  1.00  0.00    -0.149 C  
HETATM   16  C   UNL     1      -7.419   9.458  65.519  1.00  0.00    -0.095 A  
HETATM   17  C   UNL     1      -6.982   6.922  64.382  1.00  0.00    -0.055 A  
HETATM   18  C   UNL     1      -6.206   8.018  63.994  1.00  0.00    -0.062 A  
HETATM   19  C   UNL     1      -8.213   8.345  65.879  1.00  0.00    -0.123 A  
BRANCH  16  20
HETATM   20  C   UNL     1      -7.603  10.766  66.266  1.00  0.00    -0.142 C  
BRANCH  20  21
HETATM   21  C   UNL     1      -8.914  10.997  66.966  1.00  0.00    -0.148 A  
HETATM   22  C   UNL     1     -10.174  11.268  66.471  1.00  0.00    -0.269 A  
HETATM   23  C   UNL     1     -11.189  11.134  67.475  1.00  0.00    -0.369 A  
HETATM   24  C   UNL     1     -10.684  10.755  68.709  1.00  0.00    -0.208 A  
HETATM   25  S   UNL     1      -8.966  10.802  68.670  1.00  0.00    -0.166 SA 
BRANCH  24  26
HETATM   26  C   UNL     1     -11.397  10.330  69.935  1.00  0.00    -0.354 A  
HETATM   27  C   UNL     1     -11.148   9.075  70.523  1.00  0.00    -0.297 A  
HETATM   28  C   UNL     1     -11.871   8.636  71.637  1.00  0.00    -0.389 A  
HETATM   29  C   UNL     1     -12.866   9.444  72.165  1.00  0.00    -0.401 A  
HETATM   30  F   UNL     1     -13.579   9.010  73.214  1.00  0.00    -0.310 F  
HETATM   31  C   UNL     1     -13.133  10.689  71.615  1.00  0.00    -0.555 A  
HETATM   32  C   UNL     1     -12.401  11.133  70.506  1.00  0.00    -0.454 A  
ENDBRANCH  24  26
ENDBRANCH  20  21
ENDBRANCH  16  20
ENDBRANCH   1  13
BRANCH   4  33
HETATM   33  C   UNL     1      -8.943   4.549  69.346  1.00  0.00    -0.095 C  
HETATM   34  O   UNL     1     -10.143   4.759  70.096  1.00  0.00    -0.242 OA 
HETATM   35  H   UNL     1      -9.954   4.721  71.026  1.00  0.00     0.000 HD 
ENDBRANCH   4  33
TORSDOF 5
ENDMDL
MODEL      154
REMARK 921   NORMALIZED FREE ENERGY PREDICTED BY IDOCK:   -5.26 KCAL/MOL
REMARK 922        TOTAL FREE ENERGY PREDICTED BY IDOCK:   -7.40 KCAL/MOL
REMARK 923 INTER-LIGAND FREE ENERGY PREDICTED BY IDOCK:   -6.61 KCAL/MOL
REMARK 924 INTRA-LIGAND FREE ENERGY PREDICTED BY IDOCK:   -0.78 KCAL/MOL
REMARK 927      BINDING AFFINITY PREDICTED BY RF-SCORE:    0.00 PKD
ROOT
HETATM    1  C   UNL     1     -10.384  13.540  68.209  1.00  0.00    -0.252 C  
HETATM    2  O   UNL     1     -10.986  13.452  66.899  1.00  0.00    -0.278 OA 
HETATM    3  H   UNL     1      -7.430  14.350  69.378  1.00  0.00     0.000 HD 
HETATM    4  C   UNL     1     -10.896  14.673  66.161  1.00  0.00    -0.321 C  
HETATM    5  O   UNL     1      -8.353  14.131  69.435  1.00  0.00     0.194 OA 
HETATM    6  C   UNL     1      -9.428  15.035  65.899  1.00  0.00    -0.278 C  
HETATM    7  H   UNL     1      -6.849  15.475  67.829  1.00  0.00     0.000 HD 
HETATM    8  O   UNL     1      -7.303  15.403  66.998  1.00  0.00    -0.196 OA 
HETATM    9  O   UNL     1      -9.273  16.293  65.226  1.00  0.00    -0.175 OA 
HETATM   10  C   UNL     1      -8.697  15.152  67.238  1.00  0.00    -0.202 C  
HETATM   11  H   UNL     1      -8.365  16.517  65.063  1.00  0.00     0.000 HD 
HETATM   12  C   UNL     1      -8.882  13.896  68.117  1.00  0.00    -0.184 C  
ENDROOT
BRANCH   1  13
HETATM   13  C   UNL     1     -10.646  12.238  68.961  1.00  0.00    -0.104 A  
HETATM   14  C   UNL     1     -11.057   9.888  70.504  1.00  0.00    -0.398 A  
HETATM   15  C   UNL     1     -11.301   8.712  71.413  1.00  0.00    -0.350 C  
HETATM   16  C   UNL     1      -9.791  10.138  69.938  1.00  0.00    -0.223 A  
HETATM   17  C   UNL     1     -11.899  11.954  69.514  1.00  0.00    -0.395 A  
HETATM   18  C   UNL     1     -12.100  10.797  70.273  1.00  0.00    -0.433 A  
HETATM   19  C   UNL     1      -9.614  11.298  69.149  1.00  0.00     0.038 A  
BRANCH  16  20
HETATM   20  C   UNL     1      -8.587   9.270  70.252  1.00  0.00    -0.234 C  
BRANCH  20  21
HETATM   21  C   UNL     1      -8.490   7.932  69.571  1.00  0.00    -0.133 A  
HETATM   22  C   UNL     1      -8.645   6.650  70.059  1.00  0.00    -0.140 A  
HETATM   23  C   UNL     1      -8.747   5.680  69.007  1.00  0.00    -0.104 A  
HETATM   24  C   UNL     1      -8.679   6.244  67.742  1.00  0.00    -0.113 A  
HETATM   25  S   UNL     1      -8.256   7.906  67.872  1.00  0.00    -0.130 SA 
BRANCH  24  26
HETATM   26  C   UNL     1      -8.931   5.633  66.417  1.00  0.00    -0.134 A  
HETATM   27  C   UNL     1      -9.685   4.450  66.294  1.00  0.00    -0.224 A  
HETATM   28  C   UNL     1      -9.864   3.826  65.055  1.00  0.00    -0.175 A  
HETATM   29  C   UNL     1      -9.273   4.371  63.926  1.00  0.00    -0.128 A  
HETATM   30  F   UNL     1      -9.420   3.756  62.744  1.00  0.00    -0.094 F  
HETATM   31  C   UNL     1      -8.530   5.539  64.010  1.00  0.00    -0.043 A  
HETATM   32  C   UNL     1      -8.360   6.170  65.249  1.00  0.00    -0.144 A  
ENDBRANCH  24  26
ENDBRANCH  20  21
ENDBRANCH  16  20
ENDBRANCH   1  13
BRANCH   4  33
HETATM   33  C   UNL     1     -11.673  14.523  64.847  1.00  0.00    -0.402 C  
HETATM   34  O   UNL     1     -11.544  15.716  64.067  1.00  0.00    -0.859 OA 
HETATM   35  H   UNL     1     -12.024  15.623  63.253  1.00  0.00     0.000 HD 
ENDBRANCH   4  33
TORSDOF 5
ENDMDL
MODEL      155
REMARK 921   NORMALIZED FREE ENERGY PREDICTED BY IDOCK:   -5.17 KCAL/MOL
REMARK 922        TOTAL FREE ENERGY PREDICTED BY IDOCK:   -7.28 KCAL/MOL
REMARK 923 INTER-LIGAND FREE ENERGY PREDICTED BY IDOCK:   -6.50 KCAL/MOL
REMARK 924 INTRA-LIGAND FREE ENERGY PREDICTED BY IDOCK:   -0.78 KCAL/MOL
REMARK 927      BINDING AFFINITY PREDICTED BY RF-SCORE:    0.00 PKD
ROOT
HETATM    1  C   UNL     1      -7.408   5.984  66.937  1.00  0.00    -0.076 C  
HETATM    2  O   UNL     1      -8.562   5.743  66.102  1.00  0.00    -0.125 OA 
HETATM    3  H   UNL     1      -6.644   5.454  70.080  1.00  0.00     0.000 HD 
HETATM    4  C   UNL     1      -8.969   4.373  66.094  1.00  0.00    -0.121 C  
HETATM    5  O   UNL     1      -6.473   5.694  69.177  1.00  0.00    -0.039 OA 
HETATM    6  C   UNL     1      -9.399   3.933  67.500  1.00  0.00    -0.191 C  
HETATM    7  H   UNL     1      -7.936   3.961  70.403  1.00  0.00     0.000 HD 
HETATM    8  O   UNL     1      -8.658   3.825  69.802  1.00  0.00    -0.061 OA 
HETATM    9  O   UNL     1      -9.747   2.542  67.570  1.00  0.00    -0.391 OA 
HETATM   10  C   UNL     1      -8.234   4.151  68.469  1.00  0.00    -0.083 C  
HETATM   11  H   UNL     1     -10.013   2.270  68.439  1.00  0.00     0.000 HD 
HETATM   12  C   UNL     1      -7.685   5.593  68.407  1.00  0.00    -0.092 C  
ENDROOT
BRANCH   1  13
HETATM   13  C   UNL     1      -6.978   7.439  66.775  1.00  0.00    -0.077 A  
HETATM   14  C   UNL     1      -6.102  10.139  66.638  1.00  0.00    -0.065 A  
HETATM   15  C   UNL     1      -5.539  11.536  66.618  1.00  0.00    -0.140 C  
HETATM   16  C   UNL     1      -7.275   9.821  67.351  1.00  0.00    -0.086 A  
HETATM   17  C   UNL     1      -5.831   7.785  66.053  1.00  0.00    -0.037 A  
HETATM   18  C   UNL     1      -5.401   9.114  65.987  1.00  0.00    -0.040 A  
HETATM   19  C   UNL     1      -7.710   8.476  67.384  1.00  0.00    -0.098 A  
BRANCH  16  20
HETATM   20  C   UNL     1      -8.010  10.854  68.185  1.00  0.00    -0.117 C  
BRANCH  20  21
HETATM   21  C   UNL     1      -8.784  11.920  67.460  1.00  0.00    -0.163 A  
HETATM   22  C   UNL     1      -9.918  11.848  66.677  1.00  0.00    -0.220 A  
HETATM   23  C   UNL     1     -10.480  13.142  66.417  1.00  0.00    -0.287 A  
HETATM   24  C   UNL     1      -9.769  14.170  67.014  1.00  0.00    -0.258 A  
HETATM   25  S   UNL     1      -8.307  13.554  67.677  1.00  0.00    -0.193 SA 
BRANCH  24  26
HETATM   26  C   UNL     1     -10.111  15.604  67.151  1.00  0.00    -0.256 A  
HETATM   27  C   UNL     1     -10.234  16.434  66.020  1.00  0.00    -0.373 A  
HETATM   28  C   UNL     1     -10.484  17.804  66.145  1.00  0.00    -0.301 A  
HETATM   29  C   UNL     1     -10.595  18.364  67.407  1.00  0.00    -0.413 A  
HETATM   30  F   UNL     1     -10.803  19.683  67.527  1.00  0.00    -0.535 F  
HETATM   31  C   UNL     1     -10.486  17.576  68.544  1.00  0.00    -0.361 A  
HETATM   32  C   UNL     1     -10.248  16.201  68.418  1.00  0.00    -0.240 A  
ENDBRANCH  24  26
ENDBRANCH  20  21
ENDBRANCH  16  20
ENDBRANCH   1  13
BRANCH   4  33
HETATM   33  C   UNL     1     -10.109   4.193  65.085  1.00  0.00    -0.209 C  
HETATM   34  O   UNL     1     -11.259   4.930  65.512  1.00  0.00    -0.850 OA 
HETATM   35  H   UNL     1     -11.965   4.819  64.887  1.00  0.00     0.000 HD 
ENDBRANCH   4  33
TORSDOF 5
ENDMDL
MODEL      156
REMARK 921   NORMALIZED FREE ENERGY PREDICTED BY IDOCK:   -5.16 KCAL/MOL
REMARK 922        TOTAL FREE ENERGY PREDICTED BY IDOCK:   -7.27 KCAL/MOL
REMARK 923 INTER-LIGAND FREE ENERGY PREDICTED BY IDOCK:   -6.67 KCAL/MOL
REMARK 924 INTRA-LIGAND FREE ENERGY PREDICTED BY IDOCK:   -0.59 KCAL/MOL
REMARK 927      BINDING AFFINITY PREDICTED BY RF-SCORE:    0.00 PKD
ROOT
HETATM    1  C   UNL     1      -9.523  14.754  67.825  1.00  0.00    -0.204 C  
HETATM    2  O   UNL     1      -8.296  15.002  68.546  1.00  0.00    -0.146 OA 
HETATM    3  H   UNL     1     -11.453  16.490  65.824  1.00  0.00     0.000 HD 
HETATM    4  C   UNL     1      -7.229  15.437  67.700  1.00  0.00    -0.182 C  
HETATM    5  O   UNL     1     -11.148  15.707  66.269  1.00  0.00    -0.258 OA 
HETATM    6  C   UNL     1      -7.581  16.778  67.040  1.00  0.00    -0.200 C  
HETATM    7  H   UNL     1     -10.065  17.792  65.206  1.00  0.00     0.000 HD 
HETATM    8  O   UNL     1      -9.260  17.891  65.700  1.00  0.00    -0.362 OA 
HETATM    9  O   UNL     1      -6.577  17.228  66.119  1.00  0.00    -0.229 OA 
HETATM   10  C   UNL     1      -8.878  16.618  66.246  1.00  0.00    -0.312 C  
HETATM   11  H   UNL     1      -6.794  18.058  65.711  1.00  0.00     0.000 HD 
HETATM   12  C   UNL     1     -10.019  16.027  67.101  1.00  0.00    -0.249 C  
ENDROOT
BRANCH   1  13
HETATM   13  C   UNL     1     -10.552  14.172  68.790  1.00  0.00    -0.258 A  
HETATM   14  C   UNL     1     -12.332  13.041  70.694  1.00  0.00    -0.391 A  
HETATM   15  C   UNL     1     -13.207  12.484  71.787  1.00  0.00    -0.444 C  
HETATM   16  C   UNL     1     -11.668  12.203  69.776  1.00  0.00    -0.381 A  
HETATM   17  C   UNL     1     -11.243  14.984  69.696  1.00  0.00    -0.296 A  
HETATM   18  C   UNL     1     -12.119  14.425  70.632  1.00  0.00    -0.404 A  
HETATM   19  C   UNL     1     -10.808  12.787  68.818  1.00  0.00    -0.270 A  
BRANCH  16  20
HETATM   20  C   UNL     1     -11.750  10.691  69.867  1.00  0.00    -0.395 C  
BRANCH  20  21
HETATM   21  C   UNL     1     -10.497   9.902  69.600  1.00  0.00    -0.249 A  
HETATM   22  C   UNL     1      -9.172  10.285  69.562  1.00  0.00    -0.191 A  
HETATM   23  C   UNL     1      -8.283   9.159  69.553  1.00  0.00    -0.120 A  
HETATM   24  C   UNL     1      -8.949   7.944  69.595  1.00  0.00    -0.146 A  
HETATM   25  S   UNL     1     -10.638   8.203  69.406  1.00  0.00    -0.160 SA 
BRANCH  24  26
HETATM   26  C   UNL     1      -8.414   6.577  69.791  1.00  0.00    -0.131 A  
HETATM   27  C   UNL     1      -8.622   5.570  68.829  1.00  0.00    -0.100 A  
HETATM   28  C   UNL     1      -8.186   4.259  69.040  1.00  0.00    -0.077 A  
HETATM   29  C   UNL     1      -7.550   3.935  70.229  1.00  0.00    -0.045 A  
HETATM   30  F   UNL     1      -7.159   2.672  70.444  1.00  0.00    -0.033 F  
HETATM   31  C   UNL     1      -7.323   4.904  71.196  1.00  0.00    -0.068 A  
HETATM   32  C   UNL     1      -7.750   6.220  70.978  1.00  0.00    -0.105 A  
ENDBRANCH  24  26
ENDBRANCH  20  21
ENDBRANCH  16  20
ENDBRANCH   1  13
BRANCH   4  33
HETATM   33  C   UNL     1      -5.943  15.546  68.527  1.00  0.00    -0.097 C  
HETATM   34  O   UNL     1      -6.264  15.865  69.885  1.00  0.00    -0.173 OA 
HETATM   35  H   UNL     1      -5.468  15.933  70.398  1.00  0.00     0.000 HD 
ENDBRANCH   4  33
TORSDOF 5
ENDMDL
MODEL      157
REMARK 921   NORMALIZED FREE ENERGY PREDICTED BY IDOCK:   -5.06 KCAL/MOL
REMARK 922        TOTAL FREE ENERGY PREDICTED BY IDOCK:   -7.14 KCAL/MOL
REMARK 923 INTER-LIGAND FREE ENERGY PREDICTED BY IDOCK:   -6.78 KCAL/MOL
REMARK 924 INTRA-LIGAND FREE ENERGY PREDICTED BY IDOCK:   -0.36 KCAL/MOL
REMARK 927      BINDING AFFINITY PREDICTED BY RF-SCORE:    0.00 PKD
ROOT
HETATM    1  C   UNL     1     -10.469  11.623  68.799  1.00  0.00    -0.204 C  
HETATM    2  O   UNL     1     -11.404  12.029  67.777  1.00  0.00    -0.260 OA 
HETATM    3  H   UNL     1      -7.251  11.010  68.916  1.00  0.00     0.000 HD 
HETATM    4  C   UNL     1     -11.028  13.246  67.127  1.00  0.00    -0.272 C  
HETATM    5  O   UNL     1      -8.119  11.150  69.277  1.00  0.00    -0.076 OA 
HETATM    6  C   UNL     1      -9.691  13.071  66.394  1.00  0.00    -0.268 C  
HETATM    7  H   UNL     1      -6.729  12.116  67.332  1.00  0.00     0.000 HD 
HETATM    8  O   UNL     1      -7.391  12.386  66.707  1.00  0.00     0.007 OA 
HETATM    9  O   UNL     1      -9.224  14.284  65.785  1.00  0.00    -0.515 OA 
HETATM   10  C   UNL     1      -8.624  12.637  67.401  1.00  0.00    -0.189 C  
HETATM   11  H   UNL     1      -8.396  14.176  65.331  1.00  0.00     0.000 HD 
HETATM   12  C   UNL     1      -9.056  11.397  68.213  1.00  0.00    -0.179 C  
ENDROOT
BRANCH   1  13
HETATM   13  C   UNL     1     -11.024  10.396  69.516  1.00  0.00    -0.307 A  
HETATM   14  C   UNL     1     -11.895   8.087  70.925  1.00  0.00    -0.236 A  
HETATM   15  C   UNL     1     -12.294   6.901  71.763  1.00  0.00    -0.401 C  
HETATM   16  C   UNL     1     -11.153   7.940  69.736  1.00  0.00    -0.079 A  
HETATM   17  C   UNL     1     -11.783  10.513  70.684  1.00  0.00    -0.453 A  
HETATM   18  C   UNL     1     -12.211   9.377  71.376  1.00  0.00    -0.438 A  
HETATM   19  C   UNL     1     -10.753   9.100  69.034  1.00  0.00    -0.176 A  
BRANCH  16  20
HETATM   20  C   UNL     1     -10.666   6.585  69.259  1.00  0.00    -0.329 C  
BRANCH  20  21
HETATM   21  C   UNL     1     -10.184   6.472  67.838  1.00  0.00    -0.168 A  
HETATM   22  C   UNL     1      -9.577   7.391  67.008  1.00  0.00    -0.221 A  
HETATM   23  C   UNL     1      -9.029   6.779  65.832  1.00  0.00    -0.095 A  
HETATM   24  C   UNL     1      -9.221   5.407  65.797  1.00  0.00    -0.138 A  
HETATM   25  S   UNL     1     -10.267   4.936  67.077  1.00  0.00    -0.151 SA 
BRANCH  24  26
HETATM   26  C   UNL     1      -8.656   4.395  64.875  1.00  0.00    -0.130 A  
HETATM   27  C   UNL     1      -8.824   3.017  65.117  1.00  0.00    -0.127 A  
HETATM   28  C   UNL     1      -8.231   2.056  64.294  1.00  0.00    -0.078 A  
HETATM   29  C   UNL     1      -7.447   2.463  63.225  1.00  0.00    -0.057 A  
HETATM   30  F   UNL     1      -6.854   1.541  62.454  1.00  0.00    -0.017 F  
HETATM   31  C   UNL     1      -7.267   3.811  62.953  1.00  0.00    -0.048 A  
HETATM   32  C   UNL     1      -7.870   4.774  63.773  1.00  0.00    -0.085 A  
ENDBRANCH  24  26
ENDBRANCH  20  21
ENDBRANCH  16  20
ENDBRANCH   1  13
BRANCH   4  33
HETATM   33  C   UNL     1     -12.141  13.663  66.158  1.00  0.00    -0.436 C  
HETATM   34  O   UNL     1     -12.539  12.543  65.362  1.00  0.00    -0.656 OA 
HETATM   35  H   UNL     1     -13.228  12.801  64.762  1.00  0.00     0.000 HD 
ENDBRANCH   4  33
TORSDOF 5
ENDMDL
MODEL      158
REMARK 921   NORMALIZED FREE ENERGY PREDICTED BY IDOCK:   -5.06 KCAL/MOL
REMARK 922        TOTAL FREE ENERGY PREDICTED BY IDOCK:   -7.14 KCAL/MOL
REMARK 923 INTER-LIGAND FREE ENERGY PREDICTED BY IDOCK:   -6.56 KCAL/MOL
REMARK 924 INTRA-LIGAND FREE ENERGY PREDICTED BY IDOCK:   -0.58 KCAL/MOL
REMARK 927      BINDING AFFINITY PREDICTED BY RF-SCORE:    0.00 PKD
ROOT
HETATM    1  C   UNL     1     -11.510  13.304  68.858  1.00  0.00    -0.298 C  
HETATM    2  O   UNL     1     -10.653  12.873  67.778  1.00  0.00    -0.216 OA 
HETATM    3  H   UNL     1     -11.566  15.841  70.932  1.00  0.00     0.000 HD 
HETATM    4  C   UNL     1     -10.500  13.863  66.759  1.00  0.00    -0.270 C  
HETATM    5  O   UNL     1     -11.907  15.063  70.508  1.00  0.00    -0.259 OA 
HETATM    6  C   UNL     1      -9.822  15.118  67.327  1.00  0.00    -0.228 C  
HETATM    7  H   UNL     1     -10.508  17.110  69.803  1.00  0.00     0.000 HD 
HETATM    8  O   UNL     1      -9.987  16.776  69.082  1.00  0.00    -0.267 OA 
HETATM    9  O   UNL     1      -9.709  16.178  66.366  1.00  0.00    -0.250 OA 
HETATM   10  C   UNL     1     -10.661  15.655  68.488  1.00  0.00    -0.264 C  
HETATM   11  H   UNL     1      -9.290  16.954  66.717  1.00  0.00     0.000 HD 
HETATM   12  C   UNL     1     -10.955  14.571  69.548  1.00  0.00    -0.224 C  
ENDROOT
BRANCH   1  13
HETATM   13  C   UNL     1     -11.713  12.137  69.821  1.00  0.00    -0.381 A  
HETATM   14  C   UNL     1     -11.965  10.039  71.720  1.00  0.00    -0.254 A  
HETATM   15  C   UNL     1     -12.088   9.008  72.811  1.00  0.00     0.216 C  
HETATM   16  C   UNL     1     -10.899  10.022  70.799  1.00  0.00    -0.330 A  
HETATM   17  C   UNL     1     -12.776  12.118  70.730  1.00  0.00    -0.220 A  
HETATM   18  C   UNL     1     -12.899  11.084  71.664  1.00  0.00    -0.540 A  
HETATM   19  C   UNL     1     -10.807  11.060  69.843  1.00  0.00    -0.142 A  
BRANCH  16  20
HETATM   20  C   UNL     1      -9.784   8.997  70.884  1.00  0.00    -0.329 C  
BRANCH  20  21
HETATM   21  C   UNL     1     -10.045   7.626  70.321  1.00  0.00    -0.198 A  
HETATM   22  C   UNL     1     -11.189   6.856  70.298  1.00  0.00    -0.363 A  
HETATM   23  C   UNL     1     -11.069   5.735  69.411  1.00  0.00    -0.259 A  
HETATM   24  C   UNL     1      -9.841   5.682  68.770  1.00  0.00    -0.146 A  
HETATM   25  S   UNL     1      -8.786   6.861  69.443  1.00  0.00    -0.132 SA 
BRANCH  24  26
HETATM   26  C   UNL     1      -9.390   4.816  67.656  1.00  0.00    -0.161 A  
HETATM   27  C   UNL     1      -9.581   3.422  67.696  1.00  0.00    -0.160 A  
HETATM   28  C   UNL     1      -9.092   2.590  66.684  1.00  0.00    -0.121 A  
HETATM   29  C   UNL     1      -8.389   3.145  65.626  1.00  0.00    -0.100 A  
HETATM   30  F   UNL     1      -7.894   2.345  64.672  1.00  0.00    -0.069 F  
HETATM   31  C   UNL     1      -8.188   4.516  65.551  1.00  0.00    -0.110 A  
HETATM   32  C   UNL     1      -8.689   5.349  66.560  1.00  0.00    -0.117 A  
ENDBRANCH  24  26
ENDBRANCH  20  21
ENDBRANCH  16  20
ENDBRANCH   1  13
BRANCH   4  33
HETATM   33  C   UNL     1      -9.687  13.271  65.601  1.00  0.00    -0.083 C  
HETATM   34  O   UNL     1      -8.424  12.803  66.082  1.00  0.00    -0.285 OA 
HETATM   35  H   UNL     1      -7.920  12.436  65.366  1.00  0.00     0.000 HD 
ENDBRANCH   4  33
TORSDOF 5
ENDMDL
MODEL      159
REMARK 921   NORMALIZED FREE ENERGY PREDICTED BY IDOCK:   -5.03 KCAL/MOL
REMARK 922        TOTAL FREE ENERGY PREDICTED BY IDOCK:   -7.10 KCAL/MOL
REMARK 923 INTER-LIGAND FREE ENERGY PREDICTED BY IDOCK:   -6.32 KCAL/MOL
REMARK 924 INTRA-LIGAND FREE ENERGY PREDICTED BY IDOCK:   -0.78 KCAL/MOL
REMARK 927      BINDING AFFINITY PREDICTED BY RF-SCORE:    0.00 PKD
ROOT
HETATM    1  C   UNL     1     -10.031  15.283  68.087  1.00  0.00    -0.221 C  
HETATM    2  O   UNL     1     -10.420  15.488  66.712  1.00  0.00    -0.283 OA 
HETATM    3  H   UNL     1      -7.265  15.623  69.813  1.00  0.00     0.000 HD 
HETATM    4  C   UNL     1     -10.154  16.815  66.249  1.00  0.00    -0.326 C  
HETATM    5  O   UNL     1      -8.195  15.472  69.690  1.00  0.00    -0.230 OA 
HETATM    6  C   UNL     1      -8.646  17.101  66.282  1.00  0.00    -0.241 C  
HETATM    7  H   UNL     1      -6.389  16.968  68.617  1.00  0.00     0.000 HD 
HETATM    8  O   UNL     1      -6.708  17.088  67.731  1.00  0.00    -0.141 OA 
HETATM    9  O   UNL     1      -8.324  18.446  65.899  1.00  0.00    -0.502 OA 
HETATM   10  C   UNL     1      -8.133  16.908  67.710  1.00  0.00    -0.181 C  
HETATM   11  H   UNL     1      -7.391  18.624  65.919  1.00  0.00     0.000 HD 
HETATM   12  C   UNL     1      -8.518  15.529  68.288  1.00  0.00    -0.156 C  
ENDROOT
BRANCH   1  13
HETATM   13  C   UNL     1     -10.474  13.888  68.521  1.00  0.00    -0.253 A  
HETATM   14  C   UNL     1     -11.216  11.321  69.486  1.00  0.00    -0.337 A  
HETATM   15  C   UNL     1     -11.628  10.010  70.103  1.00  0.00    -0.320 C  
HETATM   16  C   UNL     1      -9.917  11.528  68.981  1.00  0.00    -0.040 A  
HETATM   17  C   UNL     1     -11.764  13.650  69.005  1.00  0.00    -0.375 A  
HETATM   18  C   UNL     1     -12.128  12.386  69.479  1.00  0.00    -0.250 A  
HETATM   19  C   UNL     1      -9.575  12.804  68.479  1.00  0.00    -0.113 A  
BRANCH  16  20
HETATM   20  C   UNL     1      -8.841  10.462  69.076  1.00  0.00    -0.176 C  
BRANCH  20  21
HETATM   21  C   UNL     1      -8.674   9.526  67.910  1.00  0.00    -0.119 A  
HETATM   22  C   UNL     1      -7.826   9.570  66.823  1.00  0.00    -0.101 A  
HETATM   23  C   UNL     1      -7.804   8.330  66.103  1.00  0.00    -0.098 A  
HETATM   24  C   UNL     1      -8.627   7.365  66.662  1.00  0.00    -0.127 A  
HETATM   25  S   UNL     1      -9.581   8.070  67.907  1.00  0.00    -0.159 SA 
BRANCH  24  26
HETATM   26  C   UNL     1      -8.745   5.922  66.349  1.00  0.00    -0.131 A  
HETATM   27  C   UNL     1      -8.664   5.458  65.022  1.00  0.00    -0.116 A  
HETATM   28  C   UNL     1      -8.849   4.107  64.711  1.00  0.00    -0.135 A  
HETATM   29  C   UNL     1      -9.136   3.207  65.724  1.00  0.00    -0.149 A  
HETATM   30  F   UNL     1      -9.344   1.918  65.422  1.00  0.00    -0.131 F  
HETATM   31  C   UNL     1      -9.217   3.629  67.043  1.00  0.00    -0.208 A  
HETATM   32  C   UNL     1      -9.020   4.980  67.356  1.00  0.00    -0.111 A  
ENDBRANCH  24  26
ENDBRANCH  20  21
ENDBRANCH  16  20
ENDBRANCH   1  13
BRANCH   4  33
HETATM   33  C   UNL     1     -10.717  16.975  64.832  1.00  0.00     0.158 C  
HETATM   34  O   UNL     1     -10.910  15.689  64.236  1.00  0.00    -0.746 OA 
HETATM   35  H   UNL     1     -11.259  15.788  63.358  1.00  0.00     0.000 HD 
ENDBRANCH   4  33
TORSDOF 5
ENDMDL
MODEL      160
REMARK 921   NORMALIZED FREE ENERGY PREDICTED BY IDOCK:   -5.03 KCAL/MOL
REMARK 922        TOTAL FREE ENERGY PREDICTED BY IDOCK:   -7.10 KCAL/MOL
REMARK 923 INTER-LIGAND FREE ENERGY PREDICTED BY IDOCK:   -6.34 KCAL/MOL
REMARK 924 INTRA-LIGAND FREE ENERGY PREDICTED BY IDOCK:   -0.76 KCAL/MOL
REMARK 927      BINDING AFFINITY PREDICTED BY RF-SCORE:    0.00 PKD
ROOT
HETATM    1  C   UNL     1      -8.897   7.168  67.138  1.00  0.00    -0.121 C  
HETATM    2  O   UNL     1      -8.921   6.444  68.387  1.00  0.00    -0.122 OA 
HETATM    3  H   UNL     1      -8.052   6.476  64.048  1.00  0.00     0.000 HD 
HETATM    4  C   UNL     1      -9.693   5.242  68.320  1.00  0.00    -0.140 C  
HETATM    5  O   UNL     1      -8.425   7.002  64.745  1.00  0.00    -0.031 OA 
HETATM    6  C   UNL     1      -9.078   4.266  67.307  1.00  0.00    -0.137 C  
HETATM    7  H   UNL     1      -8.306   4.494  64.158  1.00  0.00     0.000 HD 
HETATM    8  O   UNL     1      -8.350   4.072  65.008  1.00  0.00    -0.103 OA 
HETATM    9  O   UNL     1      -9.853   3.069  67.141  1.00  0.00    -0.357 OA 
HETATM   10  C   UNL     1      -9.006   4.947  65.939  1.00  0.00    -0.134 C  
HETATM   11  H   UNL     1      -9.472   2.466  66.515  1.00  0.00     0.000 HD 
HETATM   12  C   UNL     1      -8.290   6.313  66.002  1.00  0.00    -0.138 C  
ENDROOT
BRANCH   1  13
HETATM   13  C   UNL     1      -8.164   8.490  67.350  1.00  0.00    -0.109 A  
HETATM   14  C   UNL     1      -6.828  10.932  67.922  1.00  0.00    -0.068 A  
HETATM   15  C   UNL     1      -6.072  12.173  68.319  1.00  0.00    -0.052 C  
HETATM   16  C   UNL     1      -8.236  10.898  67.891  1.00  0.00    -0.114 A  
HETATM   17  C   UNL     1      -6.767   8.557  67.363  1.00  0.00    -0.063 A  
HETATM   18  C   UNL     1      -6.111   9.759  67.644  1.00  0.00    -0.051 A  
HETATM   19  C   UNL     1      -8.882   9.680  67.577  1.00  0.00    -0.129 A  
BRANCH  16  20
HETATM   20  C   UNL     1      -9.075  12.092  68.307  1.00  0.00    -0.190 C  
BRANCH  20  21
HETATM   21  C   UNL     1      -9.165  13.253  67.355  1.00  0.00    -0.216 A  
HETATM   22  C   UNL     1      -9.715  13.354  66.094  1.00  0.00    -0.260 A  
HETATM   23  C   UNL     1      -9.832  14.717  65.663  1.00  0.00    -0.361 A  
HETATM   24  C   UNL     1      -9.380  15.625  66.608  1.00  0.00    -0.265 A  
HETATM   25  S   UNL     1      -8.608  14.784  67.894  1.00  0.00    -0.175 SA 
BRANCH  24  26
HETATM   26  C   UNL     1      -9.499  17.100  66.638  1.00  0.00    -0.279 A  
HETATM   27  C   UNL     1      -8.391  17.925  66.366  1.00  0.00    -0.273 A  
HETATM   28  C   UNL     1      -8.477  19.317  66.466  1.00  0.00    -0.336 A  
HETATM   29  C   UNL     1      -9.672  19.900  66.858  1.00  0.00    -0.407 A  
HETATM   30  F   UNL     1      -9.745  21.232  66.983  1.00  0.00    -0.485 F  
HETATM   31  C   UNL     1     -10.786  19.118  67.127  1.00  0.00    -0.567 A  
HETATM   32  C   UNL     1     -10.702  17.724  67.016  1.00  0.00    -0.192 A  
ENDBRANCH  24  26
ENDBRANCH  20  21
ENDBRANCH  16  20
ENDBRANCH   1  13
BRANCH   4  33
HETATM   33  C   UNL     1      -9.769   4.615  69.717  1.00  0.00    -0.209 C  
HETATM   34  O   UNL     1     -10.465   5.493  70.607  1.00  0.00    -0.248 OA 
HETATM   35  H   UNL     1     -10.513   5.105  71.473  1.00  0.00     0.000 HD 
ENDBRANCH   4  33
TORSDOF 5
ENDMDL
MODEL      161
REMARK 921   NORMALIZED FREE ENERGY PREDICTED BY IDOCK:   -5.01 KCAL/MOL
REMARK 922        TOTAL FREE ENERGY PREDICTED BY IDOCK:   -7.07 KCAL/MOL
REMARK 923 INTER-LIGAND FREE ENERGY PREDICTED BY IDOCK:   -6.73 KCAL/MOL
REMARK 924 INTRA-LIGAND FREE ENERGY PREDICTED BY IDOCK:   -0.35 KCAL/MOL
REMARK 927      BINDING AFFINITY PREDICTED BY RF-SCORE:    0.00 PKD
ROOT
HETATM    1  C   UNL     1      -9.034   5.807  66.627  1.00  0.00    -0.123 C  
HETATM    2  O   UNL     1      -8.941   5.526  68.040  1.00  0.00    -0.109 OA 
HETATM    3  H   UNL     1      -8.508   4.120  63.866  1.00  0.00     0.000 HD 
HETATM    4  C   UNL     1      -9.726   4.399  68.438  1.00  0.00    -0.105 C  
HETATM    5  O   UNL     1      -8.805   4.857  64.386  1.00  0.00    -0.152 OA 
HETATM    6  C   UNL     1      -9.224   3.124  67.746  1.00  0.00    -0.196 C  
HETATM    7  H   UNL     1      -8.767   2.292  64.638  1.00  0.00     0.000 HD 
HETATM    8  O   UNL     1      -8.731   2.169  65.579  1.00  0.00    -0.108 OA 
HETATM    9  O   UNL     1     -10.022   1.971  68.050  1.00  0.00    -0.211 OA 
HETATM   10  C   UNL     1      -9.283   3.323  66.231  1.00  0.00    -0.145 C  
HETATM   11  H   UNL     1      -9.711   1.182  67.622  1.00  0.00     0.000 HD 
HETATM   12  C   UNL     1      -8.552   4.606  65.780  1.00  0.00    -0.122 C  
ENDROOT
BRANCH   1  13
HETATM   13  C   UNL     1      -8.272   7.095  66.329  1.00  0.00    -0.124 A  
HETATM   14  C   UNL     1      -6.754   9.463  65.924  1.00  0.00    -0.081 A  
HETATM   15  C   UNL     1      -5.856  10.658  65.744  1.00  0.00    -0.138 C  
HETATM   16  C   UNL     1      -7.810   9.462  66.858  1.00  0.00    -0.105 A  
HETATM   17  C   UNL     1      -7.235   7.130  65.392  1.00  0.00    -0.070 A  
HETATM   18  C   UNL     1      -6.489   8.296  65.193  1.00  0.00    -0.052 A  
HETATM   19  C   UNL     1      -8.572   8.283  67.025  1.00  0.00    -0.124 A  
BRANCH  16  20
HETATM   20  C   UNL     1      -8.070  10.643  67.774  1.00  0.00    -0.111 C  
BRANCH  20  21
HETATM   21  C   UNL     1      -9.389  10.695  68.496  1.00  0.00    -0.170 A  
HETATM   22  C   UNL     1     -10.034   9.759  69.278  1.00  0.00    -0.201 A  
HETATM   23  C   UNL     1     -11.134  10.326  70.003  1.00  0.00    -0.373 A  
HETATM   24  C   UNL     1     -11.297  11.682  69.766  1.00  0.00    -0.200 A  
HETATM   25  S   UNL     1     -10.255  12.176  68.490  1.00  0.00    -0.177 SA 
BRANCH  24  26
HETATM   26  C   UNL     1     -12.172  12.665  70.446  1.00  0.00    -0.368 A  
HETATM   27  C   UNL     1     -12.255  13.997  69.998  1.00  0.00    -0.414 A  
HETATM   28  C   UNL     1     -13.021  14.948  70.679  1.00  0.00    -0.389 A  
HETATM   29  C   UNL     1     -13.699  14.580  71.830  1.00  0.00    -0.418 A  
HETATM   30  F   UNL     1     -14.408  15.500  72.499  1.00  0.00    -0.580 F  
HETATM   31  C   UNL     1     -13.646  13.275  72.296  1.00  0.00    -0.703 A  
HETATM   32  C   UNL     1     -12.888  12.319  71.607  1.00  0.00    -0.378 A  
ENDBRANCH  24  26
ENDBRANCH  20  21
ENDBRANCH  16  20
ENDBRANCH   1  13
BRANCH   4  33
HETATM   33  C   UNL     1      -9.669   4.261  69.964  1.00  0.00    -0.217 C  
HETATM   34  O   UNL     1      -8.895   3.111  70.320  1.00  0.00    -0.068 OA 
HETATM   35  H   UNL     1      -8.860   3.025  71.265  1.00  0.00     0.000 HD 
ENDBRANCH   4  33
TORSDOF 5
ENDMDL
MODEL      162
REMARK 921   NORMALIZED FREE ENERGY PREDICTED BY IDOCK:   -4.97 KCAL/MOL
REMARK 922        TOTAL FREE ENERGY PREDICTED BY IDOCK:   -7.02 KCAL/MOL
REMARK 923 INTER-LIGAND FREE ENERGY PREDICTED BY IDOCK:   -6.92 KCAL/MOL
REMARK 924 INTRA-LIGAND FREE ENERGY PREDICTED BY IDOCK:   -0.10 KCAL/MOL
REMARK 927      BINDING AFFINITY PREDICTED BY RF-SCORE:    0.00 PKD
ROOT
HETATM    1  C   UNL     1     -11.151  12.179  68.683  1.00  0.00    -0.251 C  
HETATM    2  O   UNL     1     -12.142  12.450  67.667  1.00  0.00    -0.470 OA 
HETATM    3  H   UNL     1      -8.021  11.208  68.698  1.00  0.00     0.000 HD 
HETATM    4  C   UNL     1     -11.710  13.424  66.714  1.00  0.00    -0.385 C  
HETATM    5  O   UNL     1      -8.826  11.536  69.080  1.00  0.00    -0.018 OA 
HETATM    6  C   UNL     1     -10.483  12.915  65.945  1.00  0.00    -0.279 C  
HETATM    7  H   UNL     1      -7.555  11.837  66.857  1.00  0.00     0.000 HD 
HETATM    8  O   UNL     1      -8.248  12.036  66.238  1.00  0.00     0.017 OA 
HETATM    9  O   UNL     1      -9.958  13.883  65.024  1.00  0.00    -0.563 OA 
HETATM   10  C   UNL     1      -9.367  12.596  66.942  1.00  0.00    -0.228 C  
HETATM   11  H   UNL     1      -9.199  13.568  64.548  1.00  0.00     0.000 HD 
HETATM   12  C   UNL     1      -9.839  11.645  68.063  1.00  0.00    -0.190 C  
ENDROOT
BRANCH   1  13
HETATM   13  C   UNL     1     -11.754  11.233  69.718  1.00  0.00    -0.422 A  
HETATM   14  C   UNL     1     -12.730   9.502  71.749  1.00  0.00    -0.492 A  
HETATM   15  C   UNL     1     -13.208   8.661  72.904  1.00  0.00     0.021 C  
HETATM   16  C   UNL     1     -11.751   9.038  70.848  1.00  0.00    -0.327 A  
HETATM   17  C   UNL     1     -12.743  11.660  70.609  1.00  0.00    -0.224 A  
HETATM   18  C   UNL     1     -13.223  10.807  71.608  1.00  0.00    -0.487 A  
HETATM   19  C   UNL     1     -11.298   9.904  69.827  1.00  0.00    -0.241 A  
BRANCH  16  20
HETATM   20  C   UNL     1     -11.081   7.687  71.019  1.00  0.00    -0.273 C  
BRANCH  20  21
HETATM   21  C   UNL     1      -9.715   7.499  70.417  1.00  0.00    -0.179 A  
HETATM   22  C   UNL     1      -8.598   6.840  70.885  1.00  0.00    -0.137 A  
HETATM   23  C   UNL     1      -7.604   6.667  69.865  1.00  0.00    -0.100 A  
HETATM   24  C   UNL     1      -7.990   7.188  68.640  1.00  0.00    -0.123 A  
HETATM   25  S   UNL     1      -9.448   8.081  68.825  1.00  0.00    -0.148 SA 
BRANCH  24  26
HETATM   26  C   UNL     1      -7.354   7.053  67.309  1.00  0.00    -0.091 A  
HETATM   27  C   UNL     1      -7.945   7.613  66.160  1.00  0.00    -0.110 A  
HETATM   28  C   UNL     1      -7.390   7.426  64.891  1.00  0.00    -0.080 A  
HETATM   29  C   UNL     1      -6.245   6.658  64.754  1.00  0.00    -0.038 A  
HETATM   30  F   UNL     1      -5.731   6.453  63.533  1.00  0.00    -0.021 F  
HETATM   31  C   UNL     1      -5.632   6.097  65.865  1.00  0.00    -0.013 A  
HETATM   32  C   UNL     1      -6.182   6.294  67.138  1.00  0.00    -0.032 A  
ENDBRANCH  24  26
ENDBRANCH  20  21
ENDBRANCH  16  20
ENDBRANCH   1  13
BRANCH   4  33
HETATM   33  C   UNL     1     -12.869  13.741  65.760  1.00  0.00    -0.379 C  
HETATM   34  O   UNL     1     -12.663  13.081  64.508  1.00  0.00    -0.656 OA 
HETATM   35  H   UNL     1     -13.381  13.277  63.917  1.00  0.00     0.000 HD 
ENDBRANCH   4  33
TORSDOF 5
ENDMDL
MODEL      163
REMARK 921   NORMALIZED FREE ENERGY PREDICTED BY IDOCK:   -4.85 KCAL/MOL
REMARK 922        TOTAL FREE ENERGY PREDICTED BY IDOCK:   -6.87 KCAL/MOL
REMARK 923 INTER-LIGAND FREE ENERGY PREDICTED BY IDOCK:   -7.09 KCAL/MOL
REMARK 924 INTRA-LIGAND FREE ENERGY PREDICTED BY IDOCK:    0.22 KCAL/MOL
REMARK 927      BINDING AFFINITY PREDICTED BY RF-SCORE:    0.00 PKD
ROOT
HETATM    1  C   UNL     1     -10.643  11.066  69.467  1.00  0.00    -0.138 C  
HETATM    2  O   UNL     1     -11.316  11.677  68.345  1.00  0.00    -0.231 OA 
HETATM    3  H   UNL     1      -7.784   9.530  69.925  1.00  0.00     0.000 HD 
HETATM    4  C   UNL     1     -10.534  12.690  67.708  1.00  0.00    -0.221 C  
HETATM    5  O   UNL     1      -8.598   9.940  70.192  1.00  0.00    -0.195 OA 
HETATM    6  C   UNL     1      -9.251  12.086  67.120  1.00  0.00    -0.190 C  
HETATM    7  H   UNL     1      -6.812  10.343  68.376  1.00  0.00     0.000 HD 
HETATM    8  O   UNL     1      -7.304  10.764  67.681  1.00  0.00    -0.091 OA 
HETATM    9  O   UNL     1      -8.387  13.070  66.532  1.00  0.00    -0.410 OA 
HETATM   10  C   UNL     1      -8.460  11.408  68.240  1.00  0.00    -0.154 C  
HETATM   11  H   UNL     1      -7.594  12.697  66.168  1.00  0.00     0.000 HD 
HETATM   12  C   UNL     1      -9.317  10.398  69.033  1.00  0.00    -0.194 C  
ENDROOT
BRANCH   1  13
HETATM   13  C   UNL     1     -11.605  10.100  70.152  1.00  0.00    -0.350 A  
HETATM   14  C   UNL     1     -13.292   8.311  71.577  1.00  0.00    -0.309 A  
HETATM   15  C   UNL     1     -14.171   7.431  72.426  1.00  0.00     0.019 C  
HETATM   16  C   UNL     1     -12.095   7.836  71.004  1.00  0.00    -0.264 A  
HETATM   17  C   UNL     1     -12.810  10.541  70.709  1.00  0.00    -0.454 A  
HETATM   18  C   UNL     1     -13.639   9.660  71.409  1.00  0.00    -0.343 A  
HETATM   19  C   UNL     1     -11.283   8.734  70.276  1.00  0.00    -0.212 A  
BRANCH  16  20
HETATM   20  C   UNL     1     -11.594   6.425  71.254  1.00  0.00    -0.370 C  
BRANCH  20  21
HETATM   21  C   UNL     1     -10.650   5.827  70.247  1.00  0.00    -0.299 A  
HETATM   22  C   UNL     1      -9.871   4.689  70.295  1.00  0.00    -0.314 A  
HETATM   23  C   UNL     1      -9.342   4.341  69.008  1.00  0.00    -0.226 A  
HETATM   24  C   UNL     1      -9.737   5.215  68.006  1.00  0.00    -0.146 A  
HETATM   25  S   UNL     1     -10.545   6.564  68.702  1.00  0.00    -0.273 SA 
BRANCH  24  26
HETATM   26  C   UNL     1      -9.573   5.110  66.539  1.00  0.00    -0.166 A  
HETATM   27  C   UNL     1     -10.216   4.094  65.806  1.00  0.00    -0.141 A  
HETATM   28  C   UNL     1     -10.008   3.943  64.432  1.00  0.00    -0.199 A  
HETATM   29  C   UNL     1      -9.137   4.799  63.776  1.00  0.00    -0.024 A  
HETATM   30  F   UNL     1      -8.913   4.635  62.465  1.00  0.00    -0.108 F  
HETATM   31  C   UNL     1      -8.492   5.815  64.465  1.00  0.00    -0.040 A  
HETATM   32  C   UNL     1      -8.710   5.973  65.840  1.00  0.00    -0.157 A  
ENDBRANCH  24  26
ENDBRANCH  20  21
ENDBRANCH  16  20
ENDBRANCH   1  13
BRANCH   4  33
HETATM   33  C   UNL     1     -11.377  13.367  66.621  1.00  0.00    -0.323 C  
HETATM   34  O   UNL     1     -12.398  14.168  67.225  1.00  0.00    -0.573 OA 
HETATM   35  H   UNL     1     -12.920  14.588  66.551  1.00  0.00     0.000 HD 
ENDBRANCH   4  33
TORSDOF 5
ENDMDL
MODEL      164
REMARK 921   NORMALIZED FREE ENERGY PREDICTED BY IDOCK:   -4.83 KCAL/MOL
REMARK 922        TOTAL FREE ENERGY PREDICTED BY IDOCK:   -6.84 KCAL/MOL
REMARK 923 INTER-LIGAND FREE ENERGY PREDICTED BY IDOCK:   -6.77 KCAL/MOL
REMARK 924 INTRA-LIGAND FREE ENERGY PREDICTED BY IDOCK:   -0.07 KCAL/MOL
REMARK 927      BINDING AFFINITY PREDICTED BY RF-SCORE:    0.00 PKD
ROOT
HETATM    1  C   UNL     1     -10.038  13.662  66.354  1.00  0.00    -0.295 C  
HETATM    2  O   UNL     1     -10.528  13.144  65.098  1.00  0.00    -0.302 OA 
HETATM    3  H   UNL     1      -9.062  16.591  67.456  1.00  0.00     0.000 HD 
HETATM    4  C   UNL     1     -11.680  13.841  64.618  1.00  0.00    -0.395 C  
HETATM    5  O   UNL     1      -9.308  15.677  67.531  1.00  0.00    -0.204 OA 
HETATM    6  C   UNL     1     -11.338  15.311  64.335  1.00  0.00    -0.215 C  
HETATM    7  H   UNL     1     -10.068  17.704  66.131  1.00  0.00     0.000 HD 
HETATM    8  O   UNL     1     -10.399  17.304  65.336  1.00  0.00    -0.626 OA 
HETATM    9  O   UNL     1     -12.477  16.081  63.921  1.00  0.00    -0.970 OA 
HETATM   10  C   UNL     1     -10.805  15.955  65.616  1.00  0.00    -0.284 C  
HETATM   11  H   UNL     1     -12.265  16.990  63.745  1.00  0.00     0.000 HD 
HETATM   12  C   UNL     1      -9.639  15.151  66.232  1.00  0.00    -0.297 C  
ENDROOT
BRANCH   1  13
HETATM   13  C   UNL     1      -8.897  12.774  66.842  1.00  0.00    -0.194 A  
HETATM   14  C   UNL     1      -6.692  11.147  67.591  1.00  0.00    -0.071 A  
HETATM   15  C   UNL     1      -5.453  10.362  67.935  1.00  0.00    -0.040 C  
HETATM   16  C   UNL     1      -7.702  10.615  66.766  1.00  0.00    -0.127 A  
HETATM   17  C   UNL     1      -7.894  13.269  67.680  1.00  0.00    -0.168 A  
HETATM   18  C   UNL     1      -6.809  12.467  68.048  1.00  0.00    -0.094 A  
HETATM   19  C   UNL     1      -8.806  11.431  66.427  1.00  0.00    -0.193 A  
BRANCH  16  20
HETATM   20  C   UNL     1      -7.578   9.243  66.130  1.00  0.00    -0.096 C  
BRANCH  20  21
HETATM   21  C   UNL     1      -7.341   8.067  67.039  1.00  0.00    -0.091 A  
HETATM   22  C   UNL     1      -6.389   7.069  67.004  1.00  0.00    -0.048 A  
HETATM   23  C   UNL     1      -6.353   6.313  68.223  1.00  0.00    -0.047 A  
HETATM   24  C   UNL     1      -7.269   6.759  69.163  1.00  0.00    -0.091 A  
HETATM   25  S   UNL     1      -8.307   7.929  68.449  1.00  0.00    -0.124 SA 
BRANCH  24  26
HETATM   26  C   UNL     1      -7.421   6.387  70.588  1.00  0.00    -0.087 A  
HETATM   27  C   UNL     1      -6.717   5.296  71.134  1.00  0.00    -0.044 A  
HETATM   28  C   UNL     1      -6.912   4.894  72.459  1.00  0.00    -0.075 A  
HETATM   29  C   UNL     1      -7.828   5.570  73.249  1.00  0.00    -0.104 A  
HETATM   30  F   UNL     1      -8.037   5.164  74.510  1.00  0.00    -0.099 F  
HETATM   31  C   UNL     1      -8.533   6.653  72.746  1.00  0.00    -0.122 A  
HETATM   32  C   UNL     1      -8.330   7.063  71.422  1.00  0.00    -0.113 A  
ENDBRANCH  24  26
ENDBRANCH  20  21
ENDBRANCH  16  20
ENDBRANCH   1  13
BRANCH   4  33
HETATM   33  C   UNL     1     -12.203  13.141  63.358  1.00  0.00    -0.444 C  
HETATM   34  O   UNL     1     -12.987  12.002  63.724  1.00  0.00    -0.709 OA 
HETATM   35  H   UNL     1     -13.311  11.568  62.944  1.00  0.00     0.000 HD 
ENDBRANCH   4  33
TORSDOF 5
ENDMDL
MODEL      165
REMARK 921   NORMALIZED FREE ENERGY PREDICTED BY IDOCK:   -4.82 KCAL/MOL
REMARK 922        TOTAL FREE ENERGY PREDICTED BY IDOCK:   -6.82 KCAL/MOL
REMARK 923 INTER-LIGAND FREE ENERGY PREDICTED BY IDOCK:   -5.98 KCAL/MOL
REMARK 924 INTRA-LIGAND FREE ENERGY PREDICTED BY IDOCK:   -0.84 KCAL/MOL
REMARK 927      BINDING AFFINITY PREDICTED BY RF-SCORE:    0.00 PKD
ROOT
HETATM    1  C   UNL     1      -9.678   6.807  71.495  1.00  0.00    -0.163 C  
HETATM    2  O   UNL     1      -8.524   5.939  71.485  1.00  0.00    -0.126 OA 
HETATM    3  H   UNL     1     -12.840   6.487  72.295  1.00  0.00     0.000 HD 
HETATM    4  C   UNL     1      -8.265   5.340  72.757  1.00  0.00    -0.109 C  
HETATM    5  O   UNL     1     -12.054   6.960  72.050  1.00  0.00    -0.304 OA 
HETATM    6  C   UNL     1      -9.435   4.440  73.174  1.00  0.00    -0.120 C  
HETATM    7  H   UNL     1     -12.626   4.937  73.542  1.00  0.00     0.000 HD 
HETATM    8  O   UNL     1     -11.831   4.419  73.517  1.00  0.00    -0.165 OA 
HETATM    9  O   UNL     1      -9.265   3.869  74.480  1.00  0.00    -0.097 OA 
HETATM   10  C   UNL     1     -10.717   5.274  73.214  1.00  0.00    -0.277 C  
HETATM   11  H   UNL     1      -9.989   3.312  74.739  1.00  0.00     0.000 HD 
HETATM   12  C   UNL     1     -10.958   6.039  71.895  1.00  0.00    -0.264 C  
ENDROOT
BRANCH   1  13
HETATM   13  C   UNL     1      -9.790   7.493  70.136  1.00  0.00    -0.180 A  
HETATM   14  C   UNL     1      -9.821   8.746  67.586  1.00  0.00    -0.228 A  
HETATM   15  C   UNL     1      -9.761   9.329  66.199  1.00  0.00    -0.349 C  
HETATM   16  C   UNL     1      -9.395   9.473  68.716  1.00  0.00    -0.146 A  
HETATM   17  C   UNL     1     -10.232   6.802  69.004  1.00  0.00    -0.191 A  
HETATM   18  C   UNL     1     -10.247   7.420  67.750  1.00  0.00    -0.250 A  
HETATM   19  C   UNL     1      -9.413   8.842  69.980  1.00  0.00    -0.176 A  
BRANCH  16  20
HETATM   20  C   UNL     1      -8.800  10.864  68.595  1.00  0.00    -0.158 C  
BRANCH  20  21
HETATM   21  C   UNL     1      -9.744  12.035  68.615  1.00  0.00    -0.096 A  
HETATM   22  C   UNL     1     -10.950  12.220  69.258  1.00  0.00    -0.155 A  
HETATM   23  C   UNL     1     -11.373  13.590  69.232  1.00  0.00    -0.317 A  
HETATM   24  C   UNL     1     -10.476  14.421  68.580  1.00  0.00    -0.254 A  
HETATM   25  S   UNL     1      -9.262  13.474  67.814  1.00  0.00    -0.224 SA 
BRANCH  24  26
HETATM   26  C   UNL     1     -10.439  15.899  68.499  1.00  0.00    -0.241 A  
HETATM   27  C   UNL     1     -10.115  16.554  67.295  1.00  0.00    -0.273 A  
HETATM   28  C   UNL     1     -10.005  17.946  67.229  1.00  0.00    -0.325 A  
HETATM   29  C   UNL     1     -10.202  18.700  68.375  1.00  0.00    -0.371 A  
HETATM   30  F   UNL     1     -10.067  20.033  68.319  1.00  0.00    -0.481 F  
HETATM   31  C   UNL     1     -10.530  18.089  69.577  1.00  0.00     0.437 A  
HETATM   32  C   UNL     1     -10.651  16.695  69.639  1.00  0.00    -0.274 A  
ENDBRANCH  24  26
ENDBRANCH  20  21
ENDBRANCH  16  20
ENDBRANCH   1  13
BRANCH   4  33
HETATM   33  C   UNL     1      -6.955   4.547  72.681  1.00  0.00    -0.062 C  
HETATM   34  O   UNL     1      -6.877   3.630  73.777  1.00  0.00    -0.042 OA 
HETATM   35  H   UNL     1      -6.065   3.139  73.730  1.00  0.00     0.000 HD 
ENDBRANCH   4  33
TORSDOF 5
ENDMDL
MODEL      166
REMARK 921   NORMALIZED FREE ENERGY PREDICTED BY IDOCK:   -4.79 KCAL/MOL
REMARK 922        TOTAL FREE ENERGY PREDICTED BY IDOCK:   -6.79 KCAL/MOL
REMARK 923 INTER-LIGAND FREE ENERGY PREDICTED BY IDOCK:   -5.88 KCAL/MOL
REMARK 924 INTRA-LIGAND FREE ENERGY PREDICTED BY IDOCK:   -0.91 KCAL/MOL
REMARK 927      BINDING AFFINITY PREDICTED BY RF-SCORE:    0.00 PKD
ROOT
HETATM    1  C   UNL     1      -8.469  15.467  67.424  1.00  0.00    -0.180 C  
HETATM    2  O   UNL     1      -7.411  15.745  68.367  1.00  0.00    -0.117 OA 
HETATM    3  H   UNL     1     -10.180  17.219  65.245  1.00  0.00     0.000 HD 
HETATM    4  C   UNL     1      -6.260  16.333  67.758  1.00  0.00    -0.135 C  
HETATM    5  O   UNL     1      -9.885  16.426  65.678  1.00  0.00    -0.484 OA 
HETATM    6  C   UNL     1      -6.614  17.696  67.147  1.00  0.00    -0.161 C  
HETATM    7  H   UNL     1      -8.832  18.674  64.981  1.00  0.00     0.000 HD 
HETATM    8  O   UNL     1      -8.135  18.790  65.615  1.00  0.00    -0.426 OA 
HETATM    9  O   UNL     1      -5.513  18.302  66.453  1.00  0.00    -0.136 OA 
HETATM   10  C   UNL     1      -7.737  17.508  66.125  1.00  0.00    -0.268 C  
HETATM   11  H   UNL     1      -5.732  19.146  66.076  1.00  0.00     0.000 HD 
HETATM   12  C   UNL     1      -8.948  16.757  66.719  1.00  0.00    -0.240 C  
ENDROOT
BRANCH   1  13
HETATM   13  C   UNL     1      -9.591  14.726  68.146  1.00  0.00    -0.209 A  
HETATM   14  C   UNL     1     -11.559  13.297  69.615  1.00  0.00    -0.329 A  
HETATM   15  C   UNL     1     -12.552  12.582  70.492  1.00  0.00    -0.177 C  
HETATM   16  C   UNL     1     -10.670  12.597  68.776  1.00  0.00    -0.240 A  
HETATM   17  C   UNL     1     -10.501  15.399  68.967  1.00  0.00    -0.249 A  
HETATM   18  C   UNL     1     -11.469  14.695  69.689  1.00  0.00    -0.329 A  
HETATM   19  C   UNL     1      -9.716  13.327  68.031  1.00  0.00    -0.223 A  
BRANCH  16  20
HETATM   20  C   UNL     1     -10.624  11.080  68.746  1.00  0.00    -0.232 C  
BRANCH  20  21
HETATM   21  C   UNL     1      -9.515  10.426  67.967  1.00  0.00    -0.143 A  
HETATM   22  C   UNL     1      -8.146  10.451  68.139  1.00  0.00    -0.111 A  
HETATM   23  C   UNL     1      -7.484   9.459  67.342  1.00  0.00    -0.091 A  
HETATM   24  C   UNL     1      -8.361   8.694  66.590  1.00  0.00    -0.108 A  
HETATM   25  S   UNL     1      -9.944   9.360  66.694  1.00  0.00    -0.269 SA 
BRANCH  24  26
HETATM   26  C   UNL     1      -8.111   7.468  65.799  1.00  0.00    -0.127 A  
HETATM   27  C   UNL     1      -7.687   7.541  64.458  1.00  0.00    -0.123 A  
HETATM   28  C   UNL     1      -7.521   6.390  63.682  1.00  0.00    -0.081 A  
HETATM   29  C   UNL     1      -7.795   5.149  64.236  1.00  0.00    -0.094 A  
HETATM   30  F   UNL     1      -7.666   4.048  63.484  1.00  0.00    -0.065 F  
HETATM   31  C   UNL     1      -8.208   5.039  65.556  1.00  0.00    -0.118 A  
HETATM   32  C   UNL     1      -8.363   6.193  66.336  1.00  0.00    -0.120 A  
ENDBRANCH  24  26
ENDBRANCH  20  21
ENDBRANCH  16  20
ENDBRANCH   1  13
BRANCH   4  33
HETATM   33  C   UNL     1      -5.149  16.468  68.806  1.00  0.00    -0.120 C  
HETATM   34  O   UNL     1      -5.332  17.672  69.557  1.00  0.00    -0.178 OA 
HETATM   35  H   UNL     1      -4.645  17.756  70.207  1.00  0.00     0.000 HD 
ENDBRANCH   4  33
TORSDOF 5
ENDMDL
MODEL      167
REMARK 921   NORMALIZED FREE ENERGY PREDICTED BY IDOCK:   -4.79 KCAL/MOL
REMARK 922        TOTAL FREE ENERGY PREDICTED BY IDOCK:   -6.78 KCAL/MOL
REMARK 923 INTER-LIGAND FREE ENERGY PREDICTED BY IDOCK:   -5.80 KCAL/MOL
REMARK 924 INTRA-LIGAND FREE ENERGY PREDICTED BY IDOCK:   -0.98 KCAL/MOL
REMARK 927      BINDING AFFINITY PREDICTED BY RF-SCORE:    0.00 PKD
ROOT
HETATM    1  C   UNL     1      -8.370  13.226  68.561  1.00  0.00    -0.075 C  
HETATM    2  O   UNL     1      -9.763  12.991  68.265  1.00  0.00    -0.222 OA 
HETATM    3  H   UNL     1      -5.990  15.090  67.292  1.00  0.00     0.000 HD 
HETATM    4  C   UNL     1     -10.542  14.190  68.258  1.00  0.00    -0.251 C  
HETATM    5  O   UNL     1      -6.387  14.510  67.931  1.00  0.00    -0.136 OA 
HETATM    6  C   UNL     1     -10.057  15.138  67.153  1.00  0.00    -0.239 C  
HETATM    7  H   UNL     1      -7.174  16.460  66.440  1.00  0.00     0.000 HD 
HETATM    8  O   UNL     1      -8.093  16.266  66.300  1.00  0.00    -0.308 OA 
HETATM    9  O   UNL     1     -10.754  16.393  67.147  1.00  0.00    -0.307 OA 
HETATM   10  C   UNL     1      -8.576  15.451  67.379  1.00  0.00    -0.179 C  
HETATM   11  H   UNL     1     -10.454  16.980  66.463  1.00  0.00     0.000 HD 
HETATM   12  C   UNL     1      -7.724  14.171  67.521  1.00  0.00    -0.185 C  
ENDROOT
BRANCH   1  13
HETATM   13  C   UNL     1      -7.656  11.882  68.673  1.00  0.00    -0.119 A  
HETATM   14  C   UNL     1      -6.245   9.416  68.727  1.00  0.00    -0.044 A  
HETATM   15  C   UNL     1      -5.404   8.167  68.714  1.00  0.00    -0.031 C  
HETATM   16  C   UNL     1      -7.396   9.544  67.924  1.00  0.00    -0.083 A  
HETATM   17  C   UNL     1      -6.525  11.721  69.480  1.00  0.00    -0.120 A  
HETATM   18  C   UNL     1      -5.832  10.507  69.505  1.00  0.00    -0.040 A  
HETATM   19  C   UNL     1      -8.101  10.769  67.933  1.00  0.00    -0.112 A  
BRANCH  16  20
HETATM   20  C   UNL     1      -7.826   8.453  66.961  1.00  0.00    -0.096 C  
BRANCH  20  21
HETATM   21  C   UNL     1      -8.490   7.231  67.534  1.00  0.00    -0.119 A  
HETATM   22  C   UNL     1      -8.415   5.902  67.173  1.00  0.00    -0.107 A  
HETATM   23  C   UNL     1      -8.987   5.039  68.166  1.00  0.00    -0.119 A  
HETATM   24  C   UNL     1      -9.475   5.727  69.266  1.00  0.00    -0.129 A  
HETATM   25  S   UNL     1      -9.437   7.418  68.953  1.00  0.00    -0.144 SA 
BRANCH  24  26
HETATM   26  C   UNL     1      -9.959   5.214  70.568  1.00  0.00    -0.304 A  
HETATM   27  C   UNL     1     -10.784   5.997  71.397  1.00  0.00    -0.314 A  
HETATM   28  C   UNL     1     -11.183   5.548  72.660  1.00  0.00    -0.348 A  
HETATM   29  C   UNL     1     -10.744   4.315  73.116  1.00  0.00    -0.205 A  
HETATM   30  F   UNL     1     -11.102   3.899  74.338  1.00  0.00    -0.224 F  
HETATM   31  C   UNL     1      -9.936   3.515  72.322  1.00  0.00    -0.236 A  
HETATM   32  C   UNL     1      -9.545   3.960  71.052  1.00  0.00    -0.251 A  
ENDBRANCH  24  26
ENDBRANCH  20  21
ENDBRANCH  16  20
ENDBRANCH   1  13
BRANCH   4  33
HETATM   33  C   UNL     1     -12.020  13.828  68.067  1.00  0.00    -0.355 C  
HETATM   34  O   UNL     1     -12.315  13.703  66.673  1.00  0.00    -0.397 OA 
HETATM   35  H   UNL     1     -13.230  13.479  66.554  1.00  0.00     0.000 HD 
ENDBRANCH   4  33
TORSDOF 5
ENDMDL
MODEL      168
REMARK 921   NORMALIZED FREE ENERGY PREDICTED BY IDOCK:   -4.75 KCAL/MOL
REMARK 922        TOTAL FREE ENERGY PREDICTED BY IDOCK:   -6.74 KCAL/MOL
REMARK 923 INTER-LIGAND FREE ENERGY PREDICTED BY IDOCK:   -5.82 KCAL/MOL
REMARK 924 INTRA-LIGAND FREE ENERGY PREDICTED BY IDOCK:   -0.91 KCAL/MOL
REMARK 927      BINDING AFFINITY PREDICTED BY RF-SCORE:    0.00 PKD
ROOT
HETATM    1  C   UNL     1     -11.392  12.927  69.406  1.00  0.00    -0.201 C  
HETATM    2  O   UNL     1     -12.241  11.854  69.870  1.00  0.00    -0.265 OA 
HETATM    3  H   UNL     1     -11.622  16.193  69.254  1.00  0.00     0.000 HD 
HETATM    4  C   UNL     1     -12.641  12.008  71.233  1.00  0.00    -0.252 C  
HETATM    5  O   UNL     1     -11.183  15.353  69.191  1.00  0.00    -0.251 OA 
HETATM    6  C   UNL     1     -13.481  13.281  71.404  1.00  0.00    -0.074 C  
HETATM    7  H   UNL     1     -12.967  16.417  70.718  1.00  0.00     0.000 HD 
HETATM    8  O   UNL     1     -13.475  15.669  71.009  1.00  0.00    -0.575 OA 
HETATM    9  O   UNL     1     -13.850  13.530  72.769  1.00  0.00    -0.730 OA 
HETATM   10  C   UNL     1     -12.663  14.486  70.935  1.00  0.00    -0.344 C  
HETATM   11  H   UNL     1     -14.370  14.317  72.875  1.00  0.00     0.000 HD 
HETATM   12  C   UNL     1     -12.106  14.294  69.509  1.00  0.00    -0.330 C  
ENDROOT
BRANCH   1  13
HETATM   13  C   UNL     1     -10.917  12.603  67.993  1.00  0.00    -0.266 A  
HETATM   14  C   UNL     1     -10.000  11.831  65.416  1.00  0.00    -0.284 A  
HETATM   15  C   UNL     1      -9.571  11.320  64.066  1.00  0.00    -0.261 C  
HETATM   16  C   UNL     1      -9.067  12.128  66.429  1.00  0.00    -0.177 A  
HETATM   17  C   UNL     1     -11.822  12.327  66.963  1.00  0.00    -0.329 A  
HETATM   18  C   UNL     1     -11.370  11.947  65.696  1.00  0.00    -0.339 A  
HETATM   19  C   UNL     1      -9.541  12.537  67.696  1.00  0.00    -0.190 A  
BRANCH  16  20
HETATM   20  C   UNL     1      -7.578  11.900  66.238  1.00  0.00     0.358 C  
BRANCH  20  21
HETATM   21  C   UNL     1      -7.018  10.558  66.626  1.00  0.00    -0.113 A  
HETATM   22  C   UNL     1      -5.721  10.091  66.661  1.00  0.00    -0.050 A  
HETATM   23  C   UNL     1      -5.614   8.845  67.363  1.00  0.00    -0.038 A  
HETATM   24  C   UNL     1      -6.829   8.395  67.857  1.00  0.00    -0.067 A  
HETATM   25  S   UNL     1      -8.100   9.381  67.249  1.00  0.00    -0.110 SA 
BRANCH  24  26
HETATM   26  C   UNL     1      -7.121   7.277  68.783  1.00  0.00    -0.084 A  
HETATM   27  C   UNL     1      -7.224   5.953  68.314  1.00  0.00    -0.079 A  
HETATM   28  C   UNL     1      -7.573   4.904  69.169  1.00  0.00    -0.064 A  
HETATM   29  C   UNL     1      -7.840   5.170  70.503  1.00  0.00    -0.082 A  
HETATM   30  F   UNL     1      -8.204   4.168  71.315  1.00  0.00    -0.071 F  
HETATM   31  C   UNL     1      -7.741   6.462  71.000  1.00  0.00    -0.101 A  
HETATM   32  C   UNL     1      -7.380   7.512  70.145  1.00  0.00    -0.077 A  
ENDBRANCH  24  26
ENDBRANCH  20  21
ENDBRANCH  16  20
ENDBRANCH   1  13
BRANCH   4  33
HETATM   33  C   UNL     1     -13.424  10.765  71.671  1.00  0.00    -0.149 C  
HETATM   34  O   UNL     1     -12.576   9.900  72.433  1.00  0.00    -0.225 OA 
HETATM   35  H   UNL     1     -13.061   9.129  72.705  1.00  0.00     0.000 HD 
ENDBRANCH   4  33
TORSDOF 5
ENDMDL
MODEL      169
REMARK 921   NORMALIZED FREE ENERGY PREDICTED BY IDOCK:   -4.71 KCAL/MOL
REMARK 922        TOTAL FREE ENERGY PREDICTED BY IDOCK:   -6.68 KCAL/MOL
REMARK 923 INTER-LIGAND FREE ENERGY PREDICTED BY IDOCK:   -6.22 KCAL/MOL
REMARK 924 INTRA-LIGAND FREE ENERGY PREDICTED BY IDOCK:   -0.46 KCAL/MOL
REMARK 927      BINDING AFFINITY PREDICTED BY RF-SCORE:    0.00 PKD
ROOT
HETATM    1  C   UNL     1      -7.791   7.347  67.150  1.00  0.00    -0.117 C  
HETATM    2  O   UNL     1      -8.188   6.998  65.805  1.00  0.00    -0.119 OA 
HETATM    3  H   UNL     1      -9.204   7.249  70.106  1.00  0.00     0.000 HD 
HETATM    4  C   UNL     1      -8.620   5.641  65.686  1.00  0.00    -0.150 C  
HETATM    5  O   UNL     1      -8.487   7.363  69.493  1.00  0.00    -0.131 OA 
HETATM    6  C   UNL     1      -9.870   5.398  66.544  1.00  0.00    -0.176 C  
HETATM    7  H   UNL     1     -10.541   5.818  69.696  1.00  0.00     0.000 HD 
HETATM    8  O   UNL     1     -10.739   5.604  68.793  1.00  0.00    -0.241 OA 
HETATM    9  O   UNL     1     -10.307   4.031  66.523  1.00  0.00    -0.330 OA 
HETATM   10  C   UNL     1      -9.550   5.743  67.999  1.00  0.00    -0.119 C  
HETATM   11  H   UNL     1     -11.080   3.881  67.053  1.00  0.00     0.000 HD 
HETATM   12  C   UNL     1      -8.958   7.161  68.148  1.00  0.00    -0.128 C  
ENDROOT
BRANCH   1  13
HETATM   13  C   UNL     1      -7.227   8.765  67.144  1.00  0.00    -0.080 A  
HETATM   14  C   UNL     1      -6.153  11.390  67.313  1.00  0.00    -0.085 A  
HETATM   15  C   UNL     1      -5.507  12.740  67.481  1.00  0.00    -0.091 C  
HETATM   16  C   UNL     1      -7.501  11.164  67.657  1.00  0.00    -0.100 A  
HETATM   17  C   UNL     1      -5.899   9.021  66.786  1.00  0.00    -0.052 A  
HETATM   18  C   UNL     1      -5.373  10.313  66.869  1.00  0.00    -0.041 A  
HETATM   19  C   UNL     1      -8.025   9.856  67.539  1.00  0.00    -0.106 A  
BRANCH  16  20
HETATM   20  C   UNL     1      -8.365  12.252  68.267  1.00  0.00    -0.174 C  
BRANCH  20  21
HETATM   21  C   UNL     1      -8.684  13.453  67.419  1.00  0.00    -0.209 A  
HETATM   22  C   UNL     1      -9.428  13.579  66.264  1.00  0.00    -0.199 A  
HETATM   23  C   UNL     1      -9.708  14.950  65.948  1.00  0.00    -0.366 A  
HETATM   24  C   UNL     1      -9.181  15.838  66.874  1.00  0.00    -0.229 A  
HETATM   25  S   UNL     1      -8.161  14.992  67.970  1.00  0.00    -0.138 SA 
BRANCH  24  26
HETATM   26  C   UNL     1      -9.399  17.295  67.021  1.00  0.00    -0.257 A  
HETATM   27  C   UNL     1     -10.601  17.800  67.554  1.00  0.00    -0.365 A  
HETATM   28  C   UNL     1     -10.844  19.175  67.626  1.00  0.00    -0.467 A  
HETATM   29  C   UNL     1      -9.892  20.062  67.149  1.00  0.00    -0.426 A  
HETATM   30  F   UNL     1     -10.139  21.378  67.190  1.00  0.00    -0.351 F  
HETATM   31  C   UNL     1      -8.694  19.599  66.624  1.00  0.00    -0.392 A  
HETATM   32  C   UNL     1      -8.446  18.222  66.561  1.00  0.00    -0.287 A  
ENDBRANCH  24  26
ENDBRANCH  20  21
ENDBRANCH  16  20
ENDBRANCH   1  13
BRANCH   4  33
HETATM   33  C   UNL     1      -8.893   5.328  64.209  1.00  0.00     0.037 C  
HETATM   34  O   UNL     1      -8.615   6.481  63.409  1.00  0.00    -0.331 OA 
HETATM   35  H   UNL     1      -8.783   6.288  62.494  1.00  0.00     0.000 HD 
ENDBRANCH   4  33
TORSDOF 5
ENDMDL
MODEL      170
REMARK 921   NORMALIZED FREE ENERGY PREDICTED BY IDOCK:   -4.65 KCAL/MOL
REMARK 922        TOTAL FREE ENERGY PREDICTED BY IDOCK:   -6.60 KCAL/MOL
REMARK 923 INTER-LIGAND FREE ENERGY PREDICTED BY IDOCK:   -6.75 KCAL/MOL
REMARK 924 INTRA-LIGAND FREE ENERGY PREDICTED BY IDOCK:    0.14 KCAL/MOL
REMARK 927      BINDING AFFINITY PREDICTED BY RF-SCORE:    0.00 PKD
ROOT
HETATM    1  C   UNL     1      -8.585   7.267  67.742  1.00  0.00    -0.120 C  
HETATM    2  O   UNL     1      -8.946   6.812  66.420  1.00  0.00    -0.142 OA 
HETATM    3  H   UNL     1      -8.218   5.863  70.682  1.00  0.00     0.000 HD 
HETATM    4  C   UNL     1      -8.105   5.758  65.944  1.00  0.00    -0.113 C  
HETATM    5  O   UNL     1      -8.161   6.566  70.046  1.00  0.00    -0.125 OA 
HETATM    6  C   UNL     1      -8.239   4.519  66.841  1.00  0.00    -0.102 C  
HETATM    7  H   UNL     1      -7.859   4.006  70.028  1.00  0.00     0.000 HD 
HETATM    8  O   UNL     1      -8.085   3.769  69.136  1.00  0.00    -0.058 OA 
HETATM    9  O   UNL     1      -7.360   3.451  66.455  1.00  0.00    -0.072 OA 
HETATM   10  C   UNL     1      -7.876   4.901  68.277  1.00  0.00    -0.082 C  
HETATM   11  H   UNL     1      -7.443   2.685  67.009  1.00  0.00     0.000 HD 
HETATM   12  C   UNL     1      -8.677   6.122  68.777  1.00  0.00    -0.119 C  
ENDROOT
BRANCH   1  13
HETATM   13  C   UNL     1      -9.451   8.471  68.102  1.00  0.00    -0.152 A  
HETATM   14  C   UNL     1     -11.208  10.615  68.727  1.00  0.00    -0.337 A  
HETATM   15  C   UNL     1     -12.212  11.672  69.105  1.00  0.00    -0.201 C  
HETATM   16  C   UNL     1     -10.867  10.361  67.384  1.00  0.00    -0.344 A  
HETATM   17  C   UNL     1      -9.786   8.760  69.429  1.00  0.00    -0.172 A  
HETATM   18  C   UNL     1     -10.650   9.815  69.735  1.00  0.00    -0.285 A  
HETATM   19  C   UNL     1      -9.969   9.308  67.095  1.00  0.00    -0.276 A  
BRANCH  16  20
HETATM   20  C   UNL     1     -11.530  11.100  66.236  1.00  0.00     0.197 C  
BRANCH  20  21
HETATM   21  C   UNL     1     -10.967  12.438  65.843  1.00  0.00    -0.288 A  
HETATM   22  C   UNL     1     -10.963  13.104  64.635  1.00  0.00    -0.374 A  
HETATM   23  C   UNL     1     -10.569  14.476  64.775  1.00  0.00    -0.401 A  
HETATM   24  C   UNL     1     -10.292  14.829  66.086  1.00  0.00    -0.304 A  
HETATM   25  S   UNL     1     -10.291  13.423  67.075  1.00  0.00    -0.248 SA 
BRANCH  24  26
HETATM   26  C   UNL     1     -10.044  16.165  66.676  1.00  0.00    -0.283 A  
HETATM   27  C   UNL     1     -10.439  17.339  66.007  1.00  0.00    -0.285 A  
HETATM   28  C   UNL     1     -10.142  18.605  66.522  1.00  0.00    -0.426 A  
HETATM   29  C   UNL     1      -9.429  18.709  67.706  1.00  0.00    -0.300 A  
HETATM   30  F   UNL     1      -9.118  19.922  68.183  1.00  0.00    -0.370 F  
HETATM   31  C   UNL     1      -9.031  17.573  68.395  1.00  0.00    -0.276 A  
HETATM   32  C   UNL     1      -9.339  16.305  67.885  1.00  0.00    -0.209 A  
ENDBRANCH  24  26
ENDBRANCH  20  21
ENDBRANCH  16  20
ENDBRANCH   1  13
BRANCH   4  33
HETATM   33  C   UNL     1      -8.478   5.434  64.493  1.00  0.00    -0.117 C  
HETATM   34  O   UNL     1      -9.742   4.766  64.452  1.00  0.00    -0.360 OA 
HETATM   35  H   UNL     1      -9.974   4.565  63.553  1.00  0.00     0.000 HD 
ENDBRANCH   4  33
TORSDOF 5
ENDMDL
MODEL      171
REMARK 921   NORMALIZED FREE ENERGY PREDICTED BY IDOCK:   -4.48 KCAL/MOL
REMARK 922        TOTAL FREE ENERGY PREDICTED BY IDOCK:   -6.39 KCAL/MOL
REMARK 923 INTER-LIGAND FREE ENERGY PREDICTED BY IDOCK:   -5.99 KCAL/MOL
REMARK 924 INTRA-LIGAND FREE ENERGY PREDICTED BY IDOCK:   -0.41 KCAL/MOL
REMARK 927      BINDING AFFINITY PREDICTED BY RF-SCORE:    0.00 PKD
ROOT
HETATM    1  C   UNL     1     -11.277   9.304  70.924  1.00  0.00    -0.306 C  
HETATM    2  O   UNL     1     -10.439   8.144  70.730  1.00  0.00    -0.199 OA 
HETATM    3  H   UNL     1     -14.481   9.829  71.371  1.00  0.00     0.000 HD 
HETATM    4  C   UNL     1     -10.573   7.179  71.777  1.00  0.00    -0.206 C  
HETATM    5  O   UNL     1     -13.563  10.068  71.334  1.00  0.00    -0.303 OA 
HETATM    6  C   UNL     1     -12.006   6.631  71.821  1.00  0.00    -0.345 C  
HETATM    7  H   UNL     1     -14.930   8.021  72.103  1.00  0.00     0.000 HD 
HETATM    8  O   UNL     1     -14.326   7.300  71.977  1.00  0.00    -0.334 OA 
HETATM    9  O   UNL     1     -12.221   5.711  72.902  1.00  0.00    -0.548 OA 
HETATM   10  C   UNL     1     -12.979   7.794  72.024  1.00  0.00    -0.222 C  
HETATM   11  H   UNL     1     -13.107   5.372  72.929  1.00  0.00     0.000 HD 
HETATM   12  C   UNL     1     -12.772   8.916  70.984  1.00  0.00    -0.063 C  
ENDROOT
BRANCH   1  13
HETATM   13  C   UNL     1     -10.965  10.324  69.832  1.00  0.00    -0.358 A  
HETATM   14  C   UNL     1     -10.437  12.099  67.677  1.00  0.00    -0.225 A  
HETATM   15  C   UNL     1     -10.254  13.000  66.484  1.00  0.00    -0.270 C  
HETATM   16  C   UNL     1      -9.499  11.100  68.004  1.00  0.00    -0.174 A  
HETATM   17  C   UNL     1     -11.868  11.340  69.503  1.00  0.00    -0.427 A  
HETATM   18  C   UNL     1     -11.607  12.213  68.442  1.00  0.00    -0.381 A  
HETATM   19  C   UNL     1      -9.766  10.245  69.097  1.00  0.00    -0.229 A  
BRANCH  16  20
HETATM   20  C   UNL     1      -8.277  10.836  67.143  1.00  0.00    -0.123 C  
BRANCH  20  21
HETATM   21  C   UNL     1      -7.658   9.466  67.203  1.00  0.00    -0.091 A  
HETATM   22  C   UNL     1      -7.235   8.706  68.274  1.00  0.00    -0.086 A  
HETATM   23  C   UNL     1      -6.971   7.347  67.901  1.00  0.00    -0.072 A  
HETATM   24  C   UNL     1      -7.207   7.098  66.558  1.00  0.00    -0.079 A  
HETATM   25  S   UNL     1      -7.518   8.579  65.742  1.00  0.00    -0.082 SA 
BRANCH  24  26
HETATM   26  C   UNL     1      -7.242   5.812  65.825  1.00  0.00    -0.075 A  
HETATM   27  C   UNL     1      -6.080   5.032  65.669  1.00  0.00    -0.033 A  
HETATM   28  C   UNL     1      -6.088   3.855  64.914  1.00  0.00    -0.023 A  
HETATM   29  C   UNL     1      -7.259   3.454  64.290  1.00  0.00    -0.058 A  
HETATM   30  F   UNL     1      -7.259   2.342  63.542  1.00  0.00    -0.039 F  
HETATM   31  C   UNL     1      -8.424   4.194  64.428  1.00  0.00    -0.108 A  
HETATM   32  C   UNL     1      -8.418   5.367  65.194  1.00  0.00    -0.150 A  
ENDBRANCH  24  26
ENDBRANCH  20  21
ENDBRANCH  16  20
ENDBRANCH   1  13
BRANCH   4  33
HETATM   33  C   UNL     1      -9.556   6.053  71.554  1.00  0.00    -0.156 C  
HETATM   34  O   UNL     1     -10.173   4.971  70.850  1.00  0.00    -0.221 OA 
HETATM   35  H   UNL     1      -9.543   4.274  70.712  1.00  0.00     0.000 HD 
ENDBRANCH   4  33
TORSDOF 5
ENDMDL
MODEL      172
REMARK 921   NORMALIZED FREE ENERGY PREDICTED BY IDOCK:   -4.40 KCAL/MOL
REMARK 922        TOTAL FREE ENERGY PREDICTED BY IDOCK:   -6.29 KCAL/MOL
REMARK 923 INTER-LIGAND FREE ENERGY PREDICTED BY IDOCK:   -5.60 KCAL/MOL
REMARK 924 INTRA-LIGAND FREE ENERGY PREDICTED BY IDOCK:   -0.69 KCAL/MOL
REMARK 927      BINDING AFFINITY PREDICTED BY RF-SCORE:    0.00 PKD
ROOT
HETATM    1  C   UNL     1     -11.633   9.863  71.541  1.00  0.00    -0.301 C  
HETATM    2  O   UNL     1     -10.222   9.862  71.234  1.00  0.00    -0.009 OA 
HETATM    3  H   UNL     1     -14.240   8.131  70.569  1.00  0.00     0.000 HD 
HETATM    4  C   UNL     1      -9.606   8.589  71.449  1.00  0.00    -0.215 C  
HETATM    5  O   UNL     1     -13.769   8.757  71.106  1.00  0.00    -0.205 OA 
HETATM    6  C   UNL     1     -10.215   7.534  70.516  1.00  0.00    -0.201 C  
HETATM    7  H   UNL     1     -13.249   6.492  69.988  1.00  0.00     0.000 HD 
HETATM    8  O   UNL     1     -12.313   6.539  69.834  1.00  0.00     0.069 OA 
HETATM    9  O   UNL     1      -9.688   6.218  70.739  1.00  0.00    -0.177 OA 
HETATM   10  C   UNL     1     -11.723   7.460  70.765  1.00  0.00    -0.276 C  
HETATM   11  H   UNL     1     -10.065   5.565  70.162  1.00  0.00     0.000 HD 
HETATM   12  C   UNL     1     -12.400   8.843  70.668  1.00  0.00     0.116 C  
ENDROOT
BRANCH   1  13
HETATM   13  C   UNL     1     -12.164  11.288  71.406  1.00  0.00    -0.185 A  
HETATM   14  C   UNL     1     -13.262  13.880  71.023  1.00  0.00    -0.260 A  
HETATM   15  C   UNL     1     -13.948  15.203  70.805  1.00  0.00    -0.097 C  
HETATM   16  C   UNL     1     -12.260  13.411  70.151  1.00  0.00    -0.385 A  
HETATM   17  C   UNL     1     -13.142  11.787  72.272  1.00  0.00    -0.086 A  
HETATM   18  C   UNL     1     -13.681  13.063  72.083  1.00  0.00    -0.547 A  
HETATM   19  C   UNL     1     -11.706  12.130  70.374  1.00  0.00    -0.150 A  
BRANCH  16  20
HETATM   20  C   UNL     1     -11.851  14.185  68.911  1.00  0.00    -0.382 C  
BRANCH  20  21
HETATM   21  C   UNL     1     -10.809  13.574  68.014  1.00  0.00    -0.250 A  
HETATM   22  C   UNL     1      -9.600  14.062  67.561  1.00  0.00    -0.228 A  
HETATM   23  C   UNL     1      -8.795  13.039  66.959  1.00  0.00    -0.213 A  
HETATM   24  C   UNL     1      -9.402  11.793  66.975  1.00  0.00    -0.184 A  
HETATM   25  S   UNL     1     -11.029  11.949  67.509  1.00  0.00    -0.264 SA 
BRANCH  24  26
HETATM   26  C   UNL     1      -8.845  10.463  66.637  1.00  0.00    -0.144 A  
HETATM   27  C   UNL     1      -7.475  10.185  66.805  1.00  0.00    -0.104 A  
HETATM   28  C   UNL     1      -6.929   8.957  66.418  1.00  0.00    -0.079 A  
HETATM   29  C   UNL     1      -7.747   7.999  65.840  1.00  0.00    -0.092 A  
HETATM   30  F   UNL     1      -7.217   6.834  65.442  1.00  0.00    -0.067 F  
HETATM   31  C   UNL     1      -9.102   8.237  65.667  1.00  0.00    -0.122 A  
HETATM   32  C   UNL     1      -9.651   9.463  66.065  1.00  0.00    -0.328 A  
ENDBRANCH  24  26
ENDBRANCH  20  21
ENDBRANCH  16  20
ENDBRANCH   1  13
BRANCH   4  33
HETATM   33  C   UNL     1      -8.094   8.719  71.226  1.00  0.00    -0.154 C  
HETATM   34  O   UNL     1      -7.461   7.453  71.433  1.00  0.00    -0.078 OA 
HETATM   35  H   UNL     1      -6.525   7.533  71.294  1.00  0.00     0.000 HD 
ENDBRANCH   4  33
TORSDOF 5
ENDMDL
MODEL      173
REMARK 921   NORMALIZED FREE ENERGY PREDICTED BY IDOCK:   -4.38 KCAL/MOL
REMARK 922        TOTAL FREE ENERGY PREDICTED BY IDOCK:   -6.27 KCAL/MOL
REMARK 923 INTER-LIGAND FREE ENERGY PREDICTED BY IDOCK:   -5.94 KCAL/MOL
REMARK 924 INTRA-LIGAND FREE ENERGY PREDICTED BY IDOCK:   -0.33 KCAL/MOL
REMARK 927      BINDING AFFINITY PREDICTED BY RF-SCORE:    0.00 PKD
ROOT
HETATM    1  C   UNL     1     -11.542  11.933  69.468  1.00  0.00    -0.327 C  
HETATM    2  O   UNL     1     -10.634  12.917  68.929  1.00  0.00    -0.213 OA 
HETATM    3  H   UNL     1     -13.754  11.866  71.887  1.00  0.00     0.000 HD 
HETATM    4  C   UNL     1     -11.291  14.120  68.522  1.00  0.00    -0.283 C  
HETATM    5  O   UNL     1     -13.296  11.533  71.124  1.00  0.00    -0.053 OA 
HETATM    6  C   UNL     1     -11.949  14.805  69.728  1.00  0.00    -0.321 C  
HETATM    7  H   UNL     1     -14.106  13.835  71.957  1.00  0.00     0.000 HD 
HETATM    8  O   UNL     1     -13.492  14.437  71.555  1.00  0.00    -0.339 OA 
HETATM    9  O   UNL     1     -12.690  15.981  69.367  1.00  0.00    -0.439 OA 
HETATM   10  C   UNL     1     -12.939  13.834  70.375  1.00  0.00     0.014 C  
HETATM   11  H   UNL     1     -13.097  16.406  70.113  1.00  0.00     0.000 HD 
HETATM   12  C   UNL     1     -12.289  12.475  70.709  1.00  0.00    -0.286 C  
ENDROOT
BRANCH   1  13
HETATM   13  C   UNL     1     -10.768  10.648  69.748  1.00  0.00    -0.283 A  
HETATM   14  C   UNL     1      -9.206   8.355  70.363  1.00  0.00    -0.161 A  
HETATM   15  C   UNL     1      -8.364   7.185  70.797  1.00  0.00    -0.128 C  
HETATM   16  C   UNL     1      -8.802   9.216  69.324  1.00  0.00    -0.144 A  
HETATM   17  C   UNL     1     -11.159   9.765  70.759  1.00  0.00    -0.415 A  
HETATM   18  C   UNL     1     -10.390   8.637  71.060  1.00  0.00    -0.275 A  
HETATM   19  C   UNL     1      -9.607  10.336  69.014  1.00  0.00    -0.210 A  
BRANCH  16  20
HETATM   20  C   UNL     1      -7.470   9.047  68.616  1.00  0.00    -0.084 C  
BRANCH  20  21
HETATM   21  C   UNL     1      -7.307   7.866  67.700  1.00  0.00    -0.096 A  
HETATM   22  C   UNL     1      -6.445   6.789  67.749  1.00  0.00    -0.050 A  
HETATM   23  C   UNL     1      -6.823   5.752  66.833  1.00  0.00    -0.063 A  
HETATM   24  C   UNL     1      -7.968   6.056  66.113  1.00  0.00    -0.107 A  
HETATM   25  S   UNL     1      -8.416   7.690  66.403  1.00  0.00    -0.145 SA 
BRANCH  24  26
HETATM   26  C   UNL     1      -8.785   5.198  65.225  1.00  0.00    -0.150 A  
HETATM   27  C   UNL     1      -8.474   5.063  63.858  1.00  0.00    -0.129 A  
HETATM   28  C   UNL     1      -9.283   4.315  62.997  1.00  0.00    -0.130 A  
HETATM   29  C   UNL     1     -10.425   3.706  63.492  1.00  0.00    -0.251 A  
HETATM   30  F   UNL     1     -11.217   3.014  62.661  1.00  0.00    -0.165 F  
HETATM   31  C   UNL     1     -10.758   3.812  64.835  1.00  0.00     0.069 A  
HETATM   32  C   UNL     1      -9.940   4.552  65.699  1.00  0.00    -0.245 A  
ENDBRANCH  24  26
ENDBRANCH  20  21
ENDBRANCH  16  20
ENDBRANCH   1  13
BRANCH   4  33
HETATM   33  C   UNL     1     -10.273  15.046  67.846  1.00  0.00    -0.228 C  
HETATM   34  O   UNL     1     -10.743  15.422  66.549  1.00  0.00    -0.303 OA 
HETATM   35  H   UNL     1     -10.112  15.996  66.130  1.00  0.00     0.000 HD 
ENDBRANCH   4  33
TORSDOF 5
ENDMDL
MODEL      174
REMARK 921   NORMALIZED FREE ENERGY PREDICTED BY IDOCK:   -4.35 KCAL/MOL
REMARK 922        TOTAL FREE ENERGY PREDICTED BY IDOCK:   -6.22 KCAL/MOL
REMARK 923 INTER-LIGAND FREE ENERGY PREDICTED BY IDOCK:   -6.57 KCAL/MOL
REMARK 924 INTRA-LIGAND FREE ENERGY PREDICTED BY IDOCK:    0.35 KCAL/MOL
REMARK 927      BINDING AFFINITY PREDICTED BY RF-SCORE:    0.00 PKD
ROOT
HETATM    1  C   UNL     1     -11.491  10.502  71.026  1.00  0.00    -0.120 C  
HETATM    2  O   UNL     1     -11.003   9.318  70.359  1.00  0.00    -0.231 OA 
HETATM    3  H   UNL     1     -14.203  11.305  72.683  1.00  0.00     0.000 HD 
HETATM    4  C   UNL     1     -10.963   8.173  71.215  1.00  0.00    -0.240 C  
HETATM    5  O   UNL     1     -13.321  11.432  72.354  1.00  0.00    -0.266 OA 
HETATM    6  C   UNL     1     -12.376   7.808  71.688  1.00  0.00    -0.321 C  
HETATM    7  H   UNL     1     -14.719   9.451  73.231  1.00  0.00     0.000 HD 
HETATM    8  O   UNL     1     -14.340   8.705  72.781  1.00  0.00    -0.520 OA 
HETATM    9  O   UNL     1     -12.390   6.709  72.612  1.00  0.00    -0.486 OA 
HETATM   10  C   UNL     1     -12.986   9.009  72.413  1.00  0.00    -0.405 C  
HETATM   11  H   UNL     1     -13.265   6.483  72.905  1.00  0.00     0.000 HD 
HETATM   12  C   UNL     1     -12.927  10.296  71.562  1.00  0.00    -0.453 C  
ENDROOT
BRANCH   1  13
HETATM   13  C   UNL     1     -11.372  11.688  70.073  1.00  0.00    -0.176 A  
HETATM   14  C   UNL     1     -11.292  13.830  68.207  1.00  0.00    -0.317 A  
HETATM   15  C   UNL     1     -11.366  14.965  67.220  1.00  0.00    -0.355 C  
HETATM   16  C   UNL     1     -10.731  12.584  67.864  1.00  0.00    -0.239 A  
HETATM   17  C   UNL     1     -11.900  12.942  70.397  1.00  0.00    -0.239 A  
HETATM   18  C   UNL     1     -11.859  13.995  69.478  1.00  0.00    -0.378 A  
HETATM   19  C   UNL     1     -10.755  11.539  68.815  1.00  0.00    -0.247 A  
BRANCH  16  20
HETATM   20  C   UNL     1     -10.218  12.294  66.465  1.00  0.00    -0.235 C  
BRANCH  20  21
HETATM   21  C   UNL     1      -9.238  11.166  66.295  1.00  0.00    -0.195 A  
HETATM   22  C   UNL     1      -8.216  10.977  65.387  1.00  0.00     0.064 A  
HETATM   23  C   UNL     1      -7.351   9.897  65.764  1.00  0.00    -0.111 A  
HETATM   24  C   UNL     1      -7.724   9.294  66.955  1.00  0.00    -0.094 A  
HETATM   25  S   UNL     1      -9.251   9.904  67.458  1.00  0.00    -0.133 SA 
BRANCH  24  26
HETATM   26  C   UNL     1      -7.007   8.292  67.775  1.00  0.00    -0.078 A  
HETATM   27  C   UNL     1      -6.172   7.326  67.179  1.00  0.00    -0.046 A  
HETATM   28  C   UNL     1      -5.551   6.332  67.940  1.00  0.00    -0.005 A  
HETATM   29  C   UNL     1      -5.772   6.280  69.307  1.00  0.00    -0.020 A  
HETATM   30  F   UNL     1      -5.201   5.308  70.031  1.00  0.00    -0.003 F  
HETATM   31  C   UNL     1      -6.582   7.219  69.928  1.00  0.00    -0.040 A  
HETATM   32  C   UNL     1      -7.196   8.223  69.167  1.00  0.00    -0.072 A  
ENDBRANCH  24  26
ENDBRANCH  20  21
ENDBRANCH  16  20
ENDBRANCH   1  13
BRANCH   4  33
HETATM   33  C   UNL     1     -10.312   7.006  70.462  1.00  0.00    -0.201 C  
HETATM   34  O   UNL     1     -11.323   6.142  69.936  1.00  0.00    -0.405 OA 
HETATM   35  H   UNL     1     -10.920   5.419  69.469  1.00  0.00     0.000 HD 
ENDBRANCH   4  33
TORSDOF 5
ENDMDL
MODEL      175
REMARK 921   NORMALIZED FREE ENERGY PREDICTED BY IDOCK:   -4.34 KCAL/MOL
REMARK 922        TOTAL FREE ENERGY PREDICTED BY IDOCK:   -6.20 KCAL/MOL
REMARK 923 INTER-LIGAND FREE ENERGY PREDICTED BY IDOCK:   -5.83 KCAL/MOL
REMARK 924 INTRA-LIGAND FREE ENERGY PREDICTED BY IDOCK:   -0.37 KCAL/MOL
REMARK 927      BINDING AFFINITY PREDICTED BY RF-SCORE:    0.00 PKD
ROOT
HETATM    1  C   UNL     1     -10.962  14.387  67.807  1.00  0.00    -0.274 C  
HETATM    2  O   UNL     1      -9.820  15.150  67.362  1.00  0.00    -0.222 OA 
HETATM    3  H   UNL     1     -12.658  14.125  70.599  1.00  0.00     0.000 HD 
HETATM    4  C   UNL     1      -9.992  16.560  67.529  1.00  0.00    -0.255 C  
HETATM    5  O   UNL     1     -12.481  13.978  69.678  1.00  0.00    -0.311 OA 
HETATM    6  C   UNL     1     -10.148  16.908  69.016  1.00  0.00    -0.292 C  
HETATM    7  H   UNL     1     -12.181  15.918  71.350  1.00  0.00     0.000 HD 
HETATM    8  O   UNL     1     -11.440  16.394  70.996  1.00  0.00    -0.388 OA 
HETATM    9  O   UNL     1     -10.399  18.304  69.240  1.00  0.00    -0.452 OA 
HETATM   10  C   UNL     1     -11.342  16.141  69.585  1.00  0.00    -0.316 C  
HETATM   11  H   UNL     1     -10.495  18.520  70.160  1.00  0.00     0.000 HD 
HETATM   12  C   UNL     1     -11.250  14.626  69.307  1.00  0.00    -0.282 C  
ENDROOT
BRANCH   1  13
HETATM   13  C   UNL     1     -10.734  12.916  67.467  1.00  0.00    -0.241 A  
HETATM   14  C   UNL     1     -10.469  10.143  66.910  1.00  0.00    -0.286 A  
HETATM   15  C   UNL     1     -10.443   8.671  66.589  1.00  0.00    -0.239 C  
HETATM   16  C   UNL     1     -10.181  10.626  68.202  1.00  0.00    -0.192 A  
HETATM   17  C   UNL     1     -10.990  12.415  66.187  1.00  0.00    -0.321 A  
HETATM   18  C   UNL     1     -10.859  11.050  65.914  1.00  0.00    -0.183 A  
HETATM   19  C   UNL     1     -10.291  12.013  68.452  1.00  0.00    -0.220 A  
BRANCH  16  20
HETATM   20  C   UNL     1      -9.880   9.690  69.358  1.00  0.00    -0.203 C  
BRANCH  20  21
HETATM   21  C   UNL     1      -8.792   8.668  69.170  1.00  0.00    -0.137 A  
HETATM   22  C   UNL     1      -7.480   8.801  68.764  1.00  0.00    -0.084 A  
HETATM   23  C   UNL     1      -6.719   7.608  68.997  1.00  0.00    -0.049 A  
HETATM   24  C   UNL     1      -7.463   6.597  69.585  1.00  0.00    -0.096 A  
HETATM   25  S   UNL     1      -9.122   7.045  69.619  1.00  0.00    -0.142 SA 
BRANCH  24  26
HETATM   26  C   UNL     1      -7.021   5.303  70.154  1.00  0.00    -0.056 A  
HETATM   27  C   UNL     1      -6.257   4.397  69.394  1.00  0.00    -0.027 A  
HETATM   28  C   UNL     1      -5.900   3.143  69.898  1.00  0.00    -0.018 A  
HETATM   29  C   UNL     1      -6.319   2.774  71.167  1.00  0.00    -0.019 A  
HETATM   30  F   UNL     1      -6.002   1.560  71.638  1.00  0.00    -0.011 F  
HETATM   31  C   UNL     1      -7.067   3.644  71.946  1.00  0.00    -0.045 A  
HETATM   32  C   UNL     1      -7.415   4.905  71.444  1.00  0.00    -0.078 A  
ENDBRANCH  24  26
ENDBRANCH  20  21
ENDBRANCH  16  20
ENDBRANCH   1  13
BRANCH   4  33
HETATM   33  C   UNL     1      -8.793  17.289  66.911  1.00  0.00    -0.240 C  
HETATM   34  O   UNL     1      -7.575  16.675  67.343  1.00  0.00    -0.150 OA 
HETATM   35  H   UNL     1      -6.832  17.126  66.960  1.00  0.00     0.000 HD 
ENDBRANCH   4  33
TORSDOF 5
ENDMDL
MODEL      176
REMARK 921   NORMALIZED FREE ENERGY PREDICTED BY IDOCK:   -4.31 KCAL/MOL
REMARK 922        TOTAL FREE ENERGY PREDICTED BY IDOCK:   -6.17 KCAL/MOL
REMARK 923 INTER-LIGAND FREE ENERGY PREDICTED BY IDOCK:   -5.33 KCAL/MOL
REMARK 924 INTRA-LIGAND FREE ENERGY PREDICTED BY IDOCK:   -0.84 KCAL/MOL
REMARK 927      BINDING AFFINITY PREDICTED BY RF-SCORE:    0.00 PKD
ROOT
HETATM    1  C   UNL     1      -8.767   6.236  69.485  1.00  0.00    -0.132 C  
HETATM    2  O   UNL     1      -9.760   7.114  70.058  1.00  0.00    -0.171 OA 
HETATM    3  H   UNL     1      -6.575   4.102  70.661  1.00  0.00     0.000 HD 
HETATM    4  C   UNL     1     -10.697   6.429  70.892  1.00  0.00    -0.250 C  
HETATM    5  O   UNL     1      -7.079   4.540  69.986  1.00  0.00    -0.047 OA 
HETATM    6  C   UNL     1      -9.983   5.800  72.096  1.00  0.00    -0.176 C  
HETATM    7  H   UNL     1      -7.498   3.726  72.396  1.00  0.00     0.000 HD 
HETATM    8  O   UNL     1      -8.169   4.319  72.710  1.00  0.00    -0.092 OA 
HETATM    9  O   UNL     1     -10.863   5.033  72.932  1.00  0.00    -0.225 OA 
HETATM   10  C   UNL     1      -8.901   4.844  71.590  1.00  0.00    -0.131 C  
HETATM   11  H   UNL     1     -10.421   4.644  73.677  1.00  0.00     0.000 HD 
HETATM   12  C   UNL     1      -7.946   5.521  70.584  1.00  0.00    -0.103 C  
ENDROOT
BRANCH   1  13
HETATM   13  C   UNL     1      -7.903   7.036  68.515  1.00  0.00    -0.122 A  
HETATM   14  C   UNL     1      -6.147   8.469  66.801  1.00  0.00    -0.054 A  
HETATM   15  C   UNL     1      -5.144   9.137  65.898  1.00  0.00    -0.036 C  
HETATM   16  C   UNL     1      -6.495   9.010  68.055  1.00  0.00    -0.060 A  
HETATM   17  C   UNL     1      -7.561   6.532  67.256  1.00  0.00    -0.096 A  
HETATM   18  C   UNL     1      -6.698   7.239  66.413  1.00  0.00    -0.060 A  
HETATM   19  C   UNL     1      -7.392   8.296  68.882  1.00  0.00    -0.090 A  
BRANCH  16  20
HETATM   20  C   UNL     1      -5.839  10.269  68.593  1.00  0.00    -0.037 C  
BRANCH  20  21
HETATM   21  C   UNL     1      -6.559  11.575  68.395  1.00  0.00    -0.060 A  
HETATM   22  C   UNL     1      -6.108  12.878  68.446  1.00  0.00    -0.074 A  
HETATM   23  C   UNL     1      -7.068  13.803  67.916  1.00  0.00    -0.161 A  
HETATM   24  C   UNL     1      -8.224  13.185  67.464  1.00  0.00    -0.183 A  
HETATM   25  S   UNL     1      -8.205  11.525  67.913  1.00  0.00    -0.142 SA 
BRANCH  24  26
HETATM   26  C   UNL     1      -9.355  13.742  66.688  1.00  0.00    -0.277 A  
HETATM   27  C   UNL     1      -9.742  13.176  65.458  1.00  0.00    -0.061 A  
HETATM   28  C   UNL     1     -10.761  13.741  64.685  1.00  0.00    -0.427 A  
HETATM   29  C   UNL     1     -11.393  14.893  65.126  1.00  0.00    -0.379 A  
HETATM   30  F   UNL     1     -12.347  15.452  64.370  1.00  0.00    -0.405 F  
HETATM   31  C   UNL     1     -11.041  15.474  66.336  1.00  0.00    -0.174 A  
HETATM   32  C   UNL     1     -10.029  14.900  67.116  1.00  0.00    -0.231 A  
ENDBRANCH  24  26
ENDBRANCH  20  21
ENDBRANCH  16  20
ENDBRANCH   1  13
BRANCH   4  33
HETATM   33  C   UNL     1     -11.782   7.414  71.344  1.00  0.00    -0.288 C  
HETATM   34  O   UNL     1     -12.906   7.339  70.462  1.00  0.00    -0.590 OA 
HETATM   35  H   UNL     1     -13.578   7.949  70.742  1.00  0.00     0.000 HD 
ENDBRANCH   4  33
TORSDOF 5
ENDMDL
MODEL      177
REMARK 921   NORMALIZED FREE ENERGY PREDICTED BY IDOCK:   -4.31 KCAL/MOL
REMARK 922        TOTAL FREE ENERGY PREDICTED BY IDOCK:   -6.17 KCAL/MOL
REMARK 923 INTER-LIGAND FREE ENERGY PREDICTED BY IDOCK:   -6.24 KCAL/MOL
REMARK 924 INTRA-LIGAND FREE ENERGY PREDICTED BY IDOCK:    0.08 KCAL/MOL
REMARK 927      BINDING AFFINITY PREDICTED BY RF-SCORE:    0.00 PKD
ROOT
HETATM    1  C   UNL     1     -10.355  14.132  66.681  1.00  0.00    -0.277 C  
HETATM    2  O   UNL     1     -10.087  12.986  65.844  1.00  0.00    -0.281 OA 
HETATM    3  H   UNL     1     -11.303  17.229  66.175  1.00  0.00     0.000 HD 
HETATM    4  C   UNL     1     -11.191  12.637  65.006  1.00  0.00    -0.296 C  
HETATM    5  O   UNL     1     -11.100  16.460  66.696  1.00  0.00    -0.056 OA 
HETATM    6  C   UNL     1     -11.504  13.778  64.028  1.00  0.00    -0.216 C  
HETATM    7  H   UNL     1     -12.196  16.931  64.410  1.00  0.00     0.000 HD 
HETATM    8  O   UNL     1     -12.010  16.142  63.915  1.00  0.00    -0.947 OA 
HETATM    9  O   UNL     1     -12.654  13.515  63.210  1.00  0.00    -0.839 OA 
HETATM   10  C   UNL     1     -11.804  15.050  64.825  1.00  0.00    -0.341 C  
HETATM   11  H   UNL     1     -12.847  14.221  62.605  1.00  0.00     0.000 HD 
HETATM   12  C   UNL     1     -10.685  15.384  65.835  1.00  0.00    -0.336 C  
ENDROOT
BRANCH   1  13
HETATM   13  C   UNL     1      -9.173  14.341  67.624  1.00  0.00    -0.194 A  
HETATM   14  C   UNL     1      -6.875  14.782  69.235  1.00  0.00    -0.144 A  
HETATM   15  C   UNL     1      -5.635  15.111  70.026  1.00  0.00    -0.124 C  
HETATM   16  C   UNL     1      -6.982  13.596  68.482  1.00  0.00    -0.104 A  
HETATM   17  C   UNL     1      -9.053  15.498  68.400  1.00  0.00    -0.190 A  
HETATM   18  C   UNL     1      -7.922  15.713  69.193  1.00  0.00    -0.227 A  
HETATM   19  C   UNL     1      -8.145  13.381  67.708  1.00  0.00    -0.173 A  
BRANCH  16  20
HETATM   20  C   UNL     1      -5.835  12.607  68.379  1.00  0.00    -0.059 C  
BRANCH  20  21
HETATM   21  C   UNL     1      -6.152  11.145  68.540  1.00  0.00    -0.042 A  
HETATM   22  C   UNL     1      -5.649  10.196  69.406  1.00  0.00    -0.037 A  
HETATM   23  C   UNL     1      -6.435   8.996  69.407  1.00  0.00    -0.044 A  
HETATM   24  C   UNL     1      -7.523   9.060  68.552  1.00  0.00    -0.085 A  
HETATM   25  S   UNL     1      -7.425  10.486  67.596  1.00  0.00    -0.092 SA 
BRANCH  24  26
HETATM   26  C   UNL     1      -8.667   8.131  68.402  1.00  0.00    -0.134 A  
HETATM   27  C   UNL     1      -9.278   7.543  69.526  1.00  0.00    -0.146 A  
HETATM   28  C   UNL     1     -10.309   6.609  69.389  1.00  0.00    -0.228 A  
HETATM   29  C   UNL     1     -10.729   6.238  68.122  1.00  0.00    -0.293 A  
HETATM   30  F   UNL     1     -11.697   5.320  67.991  1.00  0.00     1.172 F  
HETATM   31  C   UNL     1     -10.155   6.802  66.993  1.00  0.00    -0.264 A  
HETATM   32  C   UNL     1      -9.129   7.747  67.131  1.00  0.00    -0.154 A  
ENDBRANCH  24  26
ENDBRANCH  20  21
ENDBRANCH  16  20
ENDBRANCH   1  13
BRANCH   4  33
HETATM   33  C   UNL     1     -10.863  11.340  64.256  1.00  0.00    -0.328 C  
HETATM   34  O   UNL     1     -11.174  11.488  62.868  1.00  0.00    -0.763 OA 
HETATM   35  H   UNL     1     -10.970  10.685  62.403  1.00  0.00     0.000 HD 
ENDBRANCH   4  33
TORSDOF 5
ENDMDL
MODEL      178
REMARK 921   NORMALIZED FREE ENERGY PREDICTED BY IDOCK:   -4.30 KCAL/MOL
REMARK 922        TOTAL FREE ENERGY PREDICTED BY IDOCK:   -6.15 KCAL/MOL
REMARK 923 INTER-LIGAND FREE ENERGY PREDICTED BY IDOCK:   -5.79 KCAL/MOL
REMARK 924 INTRA-LIGAND FREE ENERGY PREDICTED BY IDOCK:   -0.36 KCAL/MOL
REMARK 927      BINDING AFFINITY PREDICTED BY RF-SCORE:    0.00 PKD
ROOT
HETATM    1  C   UNL     1      -9.417  13.804  66.358  1.00  0.00    -0.243 C  
HETATM    2  O   UNL     1      -9.914  15.134  66.092  1.00  0.00    -0.259 OA 
HETATM    3  H   UNL     1     -10.735  10.809  66.556  1.00  0.00     0.000 HD 
HETATM    4  C   UNL     1     -10.615  15.230  64.850  1.00  0.00    -0.351 C  
HETATM    5  O   UNL     1     -10.027  11.443  66.521  1.00  0.00    -0.202 OA 
HETATM    6  C   UNL     1     -11.862  14.336  64.867  1.00  0.00    -0.410 C  
HETATM    7  H   UNL     1     -12.344  11.169  65.423  1.00  0.00     0.000 HD 
HETATM    8  O   UNL     1     -12.607  12.065  65.250  1.00  0.00    -0.371 OA 
HETATM    9  O   UNL     1     -12.566  14.333  63.616  1.00  0.00    -0.988 OA 
HETATM   10  C   UNL     1     -11.437  12.892  65.144  1.00  0.00    -0.313 C  
HETATM   11  H   UNL     1     -13.338  13.780  63.626  1.00  0.00     0.000 HD 
HETATM   12  C   UNL     1     -10.568  12.773  66.414  1.00  0.00    -0.255 C  
ENDROOT
BRANCH   1  13
HETATM   13  C   UNL     1      -8.579  13.838  67.633  1.00  0.00    -0.187 A  
HETATM   14  C   UNL     1      -6.870  13.898  69.902  1.00  0.00     0.116 A  
HETATM   15  C   UNL     1      -5.895  14.004  71.045  1.00  0.00    -0.209 C  
HETATM   16  C   UNL     1      -7.110  12.677  69.242  1.00  0.00     0.097 A  
HETATM   17  C   UNL     1      -8.343  15.032  68.321  1.00  0.00    -0.145 A  
HETATM   18  C   UNL     1      -7.503  15.060  69.437  1.00  0.00    -0.196 A  
HETATM   19  C   UNL     1      -7.985  12.661  68.132  1.00  0.00    -0.158 A  
BRANCH  16  20
HETATM   20  C   UNL     1      -6.362  11.408  69.608  1.00  0.00    -0.127 C  
BRANCH  20  21
HETATM   21  C   UNL     1      -7.163  10.244  70.123  1.00  0.00    -0.129 A  
HETATM   22  C   UNL     1      -8.494   9.916  69.966  1.00  0.00    -0.191 A  
HETATM   23  C   UNL     1      -8.774   8.573  70.387  1.00  0.00    -0.153 A  
HETATM   24  C   UNL     1      -7.649   7.904  70.844  1.00  0.00    -0.078 A  
HETATM   25  S   UNL     1      -6.333   9.004  70.970  1.00  0.00    -0.067 SA 
BRANCH  24  26
HETATM   26  C   UNL     1      -7.469   6.474  71.182  1.00  0.00    -0.085 A  
HETATM   27  C   UNL     1      -6.619   6.076  72.231  1.00  0.00    -0.063 A  
HETATM   28  C   UNL     1      -6.386   4.725  72.508  1.00  0.00    -0.030 A  
HETATM   29  C   UNL     1      -6.990   3.755  71.723  1.00  0.00    -0.027 A  
HETATM   30  F   UNL     1      -6.742   2.461  71.969  1.00  0.00    -0.014 F  
HETATM   31  C   UNL     1      -7.839   4.111  70.686  1.00  0.00    -0.052 A  
HETATM   32  C   UNL     1      -8.081   5.464  70.417  1.00  0.00    -0.101 A  
ENDBRANCH  24  26
ENDBRANCH  20  21
ENDBRANCH  16  20
ENDBRANCH   1  13
BRANCH   4  33
HETATM   33  C   UNL     1     -10.987  16.695  64.594  1.00  0.00     0.004 C  
HETATM   34  O   UNL     1     -10.379  17.531  65.583  1.00  0.00    -0.601 OA 
HETATM   35  H   UNL     1     -10.609  18.439  65.425  1.00  0.00     0.000 HD 
ENDBRANCH   4  33
TORSDOF 5
ENDMDL
MODEL      179
REMARK 921   NORMALIZED FREE ENERGY PREDICTED BY IDOCK:   -4.26 KCAL/MOL
REMARK 922        TOTAL FREE ENERGY PREDICTED BY IDOCK:   -6.11 KCAL/MOL
REMARK 923 INTER-LIGAND FREE ENERGY PREDICTED BY IDOCK:   -5.33 KCAL/MOL
REMARK 924 INTRA-LIGAND FREE ENERGY PREDICTED BY IDOCK:   -0.77 KCAL/MOL
REMARK 927      BINDING AFFINITY PREDICTED BY RF-SCORE:    0.00 PKD
ROOT
HETATM    1  C   UNL     1      -9.062   5.610  69.749  1.00  0.00    -0.138 C  
HETATM    2  O   UNL     1      -9.637   6.230  70.920  1.00  0.00    -0.173 OA 
HETATM    3  H   UNL     1      -6.408   3.788  69.129  1.00  0.00     0.000 HD 
HETATM    4  C   UNL     1      -9.879   5.303  71.980  1.00  0.00    -0.174 C  
HETATM    5  O   UNL     1      -7.241   4.199  68.930  1.00  0.00    -0.053 OA 
HETATM    6  C   UNL     1      -8.559   4.686  72.465  1.00  0.00    -0.115 C  
HETATM    7  H   UNL     1      -6.161   3.070  70.980  1.00  0.00     0.000 HD 
HETATM    8  O   UNL     1      -6.591   3.497  71.712  1.00  0.00    -0.015 OA 
HETATM    9  O   UNL     1      -8.747   3.689  73.481  1.00  0.00    -0.082 OA 
HETATM   10  C   UNL     1      -7.867   3.999  71.286  1.00  0.00    -0.070 C  
HETATM   11  H   UNL     1      -7.931   3.308  73.781  1.00  0.00     0.000 HD 
HETATM   12  C   UNL     1      -7.707   4.940  70.073  1.00  0.00    -0.059 C  
ENDROOT
BRANCH   1  13
HETATM   13  C   UNL     1      -8.966   6.651  68.637  1.00  0.00    -0.124 A  
HETATM   14  C   UNL     1      -8.607   8.573  66.575  1.00  0.00    -0.130 A  
HETATM   15  C   UNL     1      -8.330   9.524  65.441  1.00  0.00    -0.144 C  
HETATM   16  C   UNL     1      -8.441   8.954  67.921  1.00  0.00    -0.125 A  
HETATM   17  C   UNL     1      -9.149   6.304  67.294  1.00  0.00    -0.116 A  
HETATM   18  C   UNL     1      -8.972   7.251  66.281  1.00  0.00    -0.185 A  
HETATM   19  C   UNL     1      -8.651   7.991  68.935  1.00  0.00    -0.131 A  
BRANCH  16  20
HETATM   20  C   UNL     1      -7.922  10.327  68.307  1.00  0.00    -0.106 C  
BRANCH  20  21
HETATM   21  C   UNL     1      -8.731  11.526  67.890  1.00  0.00    -0.144 A  
HETATM   22  C   UNL     1     -10.091  11.757  67.912  1.00  0.00    -0.195 A  
HETATM   23  C   UNL     1     -10.408  13.138  67.692  1.00  0.00    -0.223 A  
HETATM   24  C   UNL     1      -9.284  13.931  67.518  1.00  0.00    -0.205 A  
HETATM   25  S   UNL     1      -7.888  12.935  67.392  1.00  0.00    -0.147 SA 
BRANCH  24  26
HETATM   26  C   UNL     1      -9.165  15.405  67.458  1.00  0.00    -0.201 A  
HETATM   27  C   UNL     1      -8.604  16.133  68.526  1.00  0.00    -0.202 A  
HETATM   28  C   UNL     1      -8.556  17.531  68.508  1.00  0.00    -0.276 A  
HETATM   29  C   UNL     1      -9.087  18.218  67.428  1.00  0.00    -0.253 A  
HETATM   30  F   UNL     1      -9.068  19.558  67.426  1.00  0.00    -0.314 F  
HETATM   31  C   UNL     1      -9.640  17.533  66.356  1.00  0.00    -0.283 A  
HETATM   32  C   UNL     1      -9.677  16.132  66.369  1.00  0.00    -0.308 A  
ENDBRANCH  24  26
ENDBRANCH  20  21
ENDBRANCH  16  20
ENDBRANCH   1  13
BRANCH   4  33
HETATM   33  C   UNL     1     -10.605   6.024  73.122  1.00  0.00    -0.246 C  
HETATM   34  O   UNL     1     -11.543   5.137  73.739  1.00  0.00    -0.395 OA 
HETATM   35  H   UNL     1     -11.993   5.583  74.447  1.00  0.00     0.000 HD 
ENDBRANCH   4  33
TORSDOF 5
ENDMDL
MODEL      180
REMARK 921   NORMALIZED FREE ENERGY PREDICTED BY IDOCK:   -4.25 KCAL/MOL
REMARK 922        TOTAL FREE ENERGY PREDICTED BY IDOCK:   -6.09 KCAL/MOL
REMARK 923 INTER-LIGAND FREE ENERGY PREDICTED BY IDOCK:   -5.92 KCAL/MOL
REMARK 924 INTRA-LIGAND FREE ENERGY PREDICTED BY IDOCK:   -0.17 KCAL/MOL
REMARK 927      BINDING AFFINITY PREDICTED BY RF-SCORE:    0.00 PKD
ROOT
HETATM    1  C   UNL     1     -10.384  12.010  65.956  1.00  0.00    -0.238 C  
HETATM    2  O   UNL     1     -10.564  12.893  64.828  1.00  0.00    -0.308 OA 
HETATM    3  H   UNL     1     -10.712  12.272  69.207  1.00  0.00     0.000 HD 
HETATM    4  C   UNL     1     -11.874  13.463  64.769  1.00  0.00    -0.380 C  
HETATM    5  O   UNL     1     -10.575  11.815  68.385  1.00  0.00    -0.200 OA 
HETATM    6  C   UNL     1     -12.133  14.339  66.003  1.00  0.00    -0.408 C  
HETATM    7  H   UNL     1     -12.012  13.793  69.205  1.00  0.00     0.000 HD 
HETATM    8  O   UNL     1     -12.117  14.321  68.423  1.00  0.00    -0.335 OA 
HETATM    9  O   UNL     1     -13.462  14.879  66.037  1.00  0.00     0.436 OA 
HETATM   10  C   UNL     1     -11.963  13.488  67.263  1.00  0.00    -0.365 C  
HETATM   11  H   UNL     1     -13.623  15.421  66.800  1.00  0.00     0.000 HD 
HETATM   12  C   UNL     1     -10.606  12.753  67.294  1.00  0.00    -0.233 C  
ENDROOT
BRANCH   1  13
HETATM   13  C   UNL     1      -9.008  11.357  65.855  1.00  0.00    -0.184 A  
HETATM   14  C   UNL     1      -6.486  10.049  65.819  1.00  0.00    -0.099 A  
HETATM   15  C   UNL     1      -5.203   9.259  65.835  1.00  0.00    -0.036 C  
HETATM   16  C   UNL     1      -6.682  11.165  66.657  1.00  0.00    -0.137 A  
HETATM   17  C   UNL     1      -8.780  10.263  65.014  1.00  0.00    -0.195 A  
HETATM   18  C   UNL     1      -7.538   9.621  64.996  1.00  0.00    -0.116 A  
HETATM   19  C   UNL     1      -7.935  11.819  66.641  1.00  0.00    -0.070 A  
BRANCH  16  20
HETATM   20  C   UNL     1      -5.635  11.603  67.665  1.00  0.00    -0.060 C  
BRANCH  20  21
HETATM   21  C   UNL     1      -5.907  12.848  68.464  1.00  0.00    -0.063 A  
HETATM   22  C   UNL     1      -5.455  13.249  69.704  1.00  0.00    -0.094 A  
HETATM   23  C   UNL     1      -5.736  14.632  69.961  1.00  0.00    -0.121 A  
HETATM   24  C   UNL     1      -6.386  15.257  68.908  1.00  0.00    -0.095 A  
HETATM   25  S   UNL     1      -6.845  14.086  67.735  1.00  0.00    -0.180 SA 
BRANCH  24  26
HETATM   26  C   UNL     1      -6.679  16.692  68.693  1.00  0.00    -0.163 A  
HETATM   27  C   UNL     1      -8.004  17.155  68.583  1.00  0.00    -0.265 A  
HETATM   28  C   UNL     1      -8.287  18.496  68.306  1.00  0.00    -0.344 A  
HETATM   29  C   UNL     1      -7.242  19.388  68.117  1.00  0.00    -0.287 A  
HETATM   30  F   UNL     1      -7.513  20.667  67.821  1.00  0.00    -0.326 F  
HETATM   31  C   UNL     1      -5.925  18.968  68.224  1.00  0.00    -0.221 A  
HETATM   32  C   UNL     1      -5.643  17.626  68.514  1.00  0.00    -0.165 A  
ENDBRANCH  24  26
ENDBRANCH  20  21
ENDBRANCH  16  20
ENDBRANCH   1  13
BRANCH   4  33
HETATM   33  C   UNL     1     -12.012  14.275  63.475  1.00  0.00     0.344 C  
HETATM   34  O   UNL     1     -12.138  15.666  63.784  1.00  0.00    -1.013 OA 
HETATM   35  H   UNL     1     -12.223  16.169  62.983  1.00  0.00     0.000 HD 
ENDBRANCH   4  33
TORSDOF 5
ENDMDL
MODEL      181
REMARK 921   NORMALIZED FREE ENERGY PREDICTED BY IDOCK:   -4.21 KCAL/MOL
REMARK 922        TOTAL FREE ENERGY PREDICTED BY IDOCK:   -6.04 KCAL/MOL
REMARK 923 INTER-LIGAND FREE ENERGY PREDICTED BY IDOCK:   -5.64 KCAL/MOL
REMARK 924 INTRA-LIGAND FREE ENERGY PREDICTED BY IDOCK:   -0.40 KCAL/MOL
REMARK 927      BINDING AFFINITY PREDICTED BY RF-SCORE:    0.00 PKD
ROOT
HETATM    1  C   UNL     1      -9.608   4.323  69.799  1.00  0.00    -0.209 C  
HETATM    2  O   UNL     1      -9.973   5.147  70.927  1.00  0.00    -0.185 OA 
HETATM    3  H   UNL     1      -7.826   1.606  69.366  1.00  0.00     0.000 HD 
HETATM    4  C   UNL     1     -10.621   4.413  71.969  1.00  0.00     0.012 C  
HETATM    5  O   UNL     1      -8.422   2.300  69.109  1.00  0.00    -0.051 OA 
HETATM    6  C   UNL     1      -9.674   3.350  72.544  1.00  0.00    -0.144 C  
HETATM    7  H   UNL     1      -7.993   0.898  71.230  1.00  0.00     0.000 HD 
HETATM    8  O   UNL     1      -8.271   1.477  71.930  1.00  0.00    -0.044 OA 
HETATM    9  O   UNL     1     -10.295   2.530  73.544  1.00  0.00    -0.106 OA 
HETATM   10  C   UNL     1      -9.226   2.419  71.416  1.00  0.00    -0.113 C  
HETATM   11  H   UNL     1      -9.710   1.873  73.901  1.00  0.00     0.000 HD 
HETATM   12  C   UNL     1      -8.639   3.193  70.217  1.00  0.00    -0.060 C  
ENDROOT
BRANCH   1  13
HETATM   13  C   UNL     1      -9.048   5.216  68.696  1.00  0.00    -0.135 A  
HETATM   14  C   UNL     1      -7.853   6.897  66.741  1.00  0.00    -0.107 A  
HETATM   15  C   UNL     1      -7.119   7.731  65.724  1.00  0.00    -0.061 C  
HETATM   16  C   UNL     1      -8.429   7.467  67.893  1.00  0.00    -0.122 A  
HETATM   17  C   UNL     1      -8.492   4.678  67.532  1.00  0.00    -0.104 A  
HETATM   18  C   UNL     1      -7.905   5.505  66.570  1.00  0.00    -0.101 A  
HETATM   19  C   UNL     1      -9.043   6.617  68.841  1.00  0.00    -0.132 A  
BRANCH  16  20
HETATM   20  C   UNL     1      -8.297   8.946  68.206  1.00  0.00    -0.125 C  
BRANCH  20  21
HETATM   21  C   UNL     1      -9.096   9.913  67.376  1.00  0.00    -0.134 A  
HETATM   22  C   UNL     1     -10.432   9.928  67.032  1.00  0.00    -0.296 A  
HETATM   23  C   UNL     1     -10.831  11.184  66.466  1.00  0.00    -0.302 A  
HETATM   24  C   UNL     1      -9.795  12.102  66.401  1.00  0.00    -0.227 A  
HETATM   25  S   UNL     1      -8.313  11.331  66.811  1.00  0.00    -0.159 SA 
BRANCH  24  26
HETATM   26  C   UNL     1      -9.826  13.545  66.069  1.00  0.00    -0.277 A  
HETATM   27  C   UNL     1      -8.877  14.435  66.608  1.00  0.00    -0.188 A  
HETATM   28  C   UNL     1      -8.945  15.810  66.360  1.00  0.00    -0.366 A  
HETATM   29  C   UNL     1      -9.976  16.312  65.583  1.00  0.00    -0.274 A  
HETATM   30  F   UNL     1     -10.059  17.633  65.370  1.00  0.00    -0.097 F  
HETATM   31  C   UNL     1     -10.925  15.463  65.031  1.00  0.00    -0.450 A  
HETATM   32  C   UNL     1     -10.850  14.085  65.270  1.00  0.00    -0.352 A  
ENDBRANCH  24  26
ENDBRANCH  20  21
ENDBRANCH  16  20
ENDBRANCH   1  13
BRANCH   4  33
HETATM   33  C   UNL     1     -11.085   5.388  73.057  1.00  0.00    -0.313 C  
HETATM   34  O   UNL     1     -11.736   6.512  72.458  1.00  0.00    -0.415 OA 
HETATM   35  H   UNL     1     -12.025   7.116  73.131  1.00  0.00     0.000 HD 
ENDBRANCH   4  33
TORSDOF 5
ENDMDL
MODEL      182
REMARK 921   NORMALIZED FREE ENERGY PREDICTED BY IDOCK:   -4.14 KCAL/MOL
REMARK 922        TOTAL FREE ENERGY PREDICTED BY IDOCK:   -5.96 KCAL/MOL
REMARK 923 INTER-LIGAND FREE ENERGY PREDICTED BY IDOCK:   -5.14 KCAL/MOL
REMARK 924 INTRA-LIGAND FREE ENERGY PREDICTED BY IDOCK:   -0.82 KCAL/MOL
REMARK 927      BINDING AFFINITY PREDICTED BY RF-SCORE:    0.00 PKD
ROOT
HETATM    1  C   UNL     1      -8.672  15.484  67.478  1.00  0.00    -0.172 C  
HETATM    2  O   UNL     1      -9.321  16.772  67.403  1.00  0.00    -0.230 OA 
HETATM    3  H   UNL     1      -5.581  14.407  67.308  1.00  0.00     0.000 HD 
HETATM    4  C   UNL     1      -8.816  17.708  68.359  1.00  0.00    -0.281 C  
HETATM    5  O   UNL     1      -6.516  14.334  67.464  1.00  0.00    -0.267 OA 
HETATM    6  C   UNL     1      -7.331  17.995  68.096  1.00  0.00    -0.250 C  
HETATM    7  H   UNL     1      -4.692  16.113  67.857  1.00  0.00     0.000 HD 
HETATM    8  O   UNL     1      -5.176  16.929  67.821  1.00  0.00    -0.106 OA 
HETATM    9  O   UNL     1      -6.749  18.872  69.072  1.00  0.00    -0.278 OA 
HETATM   10  C   UNL     1      -6.551  16.680  68.154  1.00  0.00    -0.143 C  
HETATM   11  H   UNL     1      -5.831  19.050  68.910  1.00  0.00     0.000 HD 
HETATM   12  C   UNL     1      -7.151  15.603  67.226  1.00  0.00    -0.207 C  
ENDROOT
BRANCH   1  13
HETATM   13  C   UNL     1      -9.367  14.526  66.515  1.00  0.00    -0.307 A  
HETATM   14  C   UNL     1     -10.805  12.746  64.830  1.00  0.00    -0.326 A  
HETATM   15  C   UNL     1     -11.663  11.867  63.958  1.00  0.00    -0.469 C  
HETATM   16  C   UNL     1     -10.181  12.254  65.994  1.00  0.00    -0.267 A  
HETATM   17  C   UNL     1      -9.975  14.983  65.342  1.00  0.00    -0.365 A  
HETATM   18  C   UNL     1     -10.682  14.106  64.514  1.00  0.00    -0.323 A  
HETATM   19  C   UNL     1      -9.446  13.150  66.805  1.00  0.00    -0.252 A  
BRANCH  16  20
HETATM   20  C   UNL     1     -10.379  10.826  66.467  1.00  0.00    -0.300 C  
BRANCH  20  21
HETATM   21  C   UNL     1      -9.386   9.791  66.011  1.00  0.00    -0.196 A  
HETATM   22  C   UNL     1      -8.011   9.832  65.915  1.00  0.00    -0.111 A  
HETATM   23  C   UNL     1      -7.445   8.530  65.705  1.00  0.00    -0.081 A  
HETATM   24  C   UNL     1      -8.399   7.526  65.656  1.00  0.00    -0.140 A  
HETATM   25  S   UNL     1      -9.971   8.224  65.631  1.00  0.00     1.104 SA 
BRANCH  24  26
HETATM   26  C   UNL     1      -8.228   6.056  65.647  1.00  0.00    -0.139 A  
HETATM   27  C   UNL     1      -9.224   5.211  65.120  1.00  0.00    -0.060 A  
HETATM   28  C   UNL     1      -9.103   3.819  65.176  1.00  0.00    -0.142 A  
HETATM   29  C   UNL     1      -7.990   3.255  65.778  1.00  0.00    -0.086 A  
HETATM   30  F   UNL     1      -7.889   1.921  65.859  1.00  0.00    -0.067 F  
HETATM   31  C   UNL     1      -6.986   4.057  66.302  1.00  0.00    -0.063 A  
HETATM   32  C   UNL     1      -7.103   5.452  66.235  1.00  0.00    -0.072 A  
ENDBRANCH  24  26
ENDBRANCH  20  21
ENDBRANCH  16  20
ENDBRANCH   1  13
BRANCH   4  33
HETATM   33  C   UNL     1      -9.649  18.994  68.292  1.00  0.00    -0.355 C  
HETATM   34  O   UNL     1     -10.752  18.906  69.199  1.00  0.00    -0.186 OA 
HETATM   35  H   UNL     1     -11.269  19.703  69.158  1.00  0.00     0.000 HD 
ENDBRANCH   4  33
TORSDOF 5
ENDMDL
MODEL      183
REMARK 921   NORMALIZED FREE ENERGY PREDICTED BY IDOCK:   -4.03 KCAL/MOL
REMARK 922        TOTAL FREE ENERGY PREDICTED BY IDOCK:   -5.80 KCAL/MOL
REMARK 923 INTER-LIGAND FREE ENERGY PREDICTED BY IDOCK:   -4.63 KCAL/MOL
REMARK 924 INTRA-LIGAND FREE ENERGY PREDICTED BY IDOCK:   -1.18 KCAL/MOL
REMARK 927      BINDING AFFINITY PREDICTED BY RF-SCORE:    0.00 PKD
ROOT
HETATM    1  C   UNL     1      -9.189   6.085  69.045  1.00  0.00    -0.121 C  
HETATM    2  O   UNL     1     -10.187   6.965  69.607  1.00  0.00    -0.184 OA 
HETATM    3  H   UNL     1      -7.002   3.958  70.244  1.00  0.00     0.000 HD 
HETATM    4  C   UNL     1     -11.128   6.282  70.439  1.00  0.00    -0.352 C  
HETATM    5  O   UNL     1      -7.503   4.393  69.564  1.00  0.00    -0.054 OA 
HETATM    6  C   UNL     1     -10.421   5.659  71.650  1.00  0.00    -0.228 C  
HETATM    7  H   UNL     1      -7.936   3.589  71.975  1.00  0.00     0.000 HD 
HETATM    8  O   UNL     1      -8.610   4.183  72.282  1.00  0.00    -0.104 OA 
HETATM    9  O   UNL     1     -11.306   4.895  72.483  1.00  0.00    -0.125 OA 
HETATM   10  C   UNL     1      -9.335   4.702  71.155  1.00  0.00    -0.146 C  
HETATM   11  H   UNL     1     -10.869   4.510  73.232  1.00  0.00     0.000 HD 
HETATM   12  C   UNL     1      -8.375   5.376  70.152  1.00  0.00    -0.114 C  
ENDROOT
BRANCH   1  13
HETATM   13  C   UNL     1      -8.319   6.881  68.077  1.00  0.00    -0.121 A  
HETATM   14  C   UNL     1      -6.554   8.309  66.368  1.00  0.00    -0.055 A  
HETATM   15  C   UNL     1      -5.545   8.974  65.469  1.00  0.00    -0.046 C  
HETATM   16  C   UNL     1      -6.910   8.856  67.617  1.00  0.00    -0.070 A  
HETATM   17  C   UNL     1      -7.968   6.373  66.822  1.00  0.00    -0.109 A  
HETATM   18  C   UNL     1      -7.100   7.076  65.982  1.00  0.00    -0.073 A  
HETATM   19  C   UNL     1      -7.812   8.144  68.441  1.00  0.00    -0.118 A  
BRANCH  16  20
HETATM   20  C   UNL     1      -6.260  10.117  68.154  1.00  0.00    -0.049 C  
BRANCH  20  21
HETATM   21  C   UNL     1      -7.000  11.416  67.984  1.00  0.00    -0.069 A  
HETATM   22  C   UNL     1      -7.173  12.227  66.881  1.00  0.00     0.042 A  
HETATM   23  C   UNL     1      -8.186  13.220  67.093  1.00  0.00    -0.123 A  
HETATM   24  C   UNL     1      -8.771  13.138  68.347  1.00  0.00    -0.120 A  
HETATM   25  S   UNL     1      -7.908  12.008  69.315  1.00  0.00     0.544 SA 
BRANCH  24  26
HETATM   26  C   UNL     1      -9.961  13.835  68.885  1.00  0.00    -0.043 A  
HETATM   27  C   UNL     1      -9.893  15.181  69.293  1.00  0.00    -0.231 A  
HETATM   28  C   UNL     1     -10.992  15.823  69.871  1.00  0.00    -0.335 A  
HETATM   29  C   UNL     1     -12.170  15.118  70.065  1.00  0.00    -0.338 A  
HETATM   30  F   UNL     1     -13.213  15.726  70.647  1.00  0.00    -0.511 F  
HETATM   31  C   UNL     1     -12.274  13.793  69.669  1.00  0.00    -0.359 A  
HETATM   32  C   UNL     1     -11.176  13.153  69.079  1.00  0.00    -0.309 A  
ENDBRANCH  24  26
ENDBRANCH  20  21
ENDBRANCH  16  20
ENDBRANCH   1  13
BRANCH   4  33
HETATM   33  C   UNL     1     -12.217   7.268  70.879  1.00  0.00    -0.270 C  
HETATM   34  O   UNL     1     -11.800   8.609  70.604  1.00  0.00    -0.436 OA 
HETATM   35  H   UNL     1     -12.474   9.220  70.877  1.00  0.00     0.000 HD 
ENDBRANCH   4  33
TORSDOF 5
ENDMDL
MODEL      184
REMARK 921   NORMALIZED FREE ENERGY PREDICTED BY IDOCK:   -3.92 KCAL/MOL
REMARK 922        TOTAL FREE ENERGY PREDICTED BY IDOCK:   -5.67 KCAL/MOL
REMARK 923 INTER-LIGAND FREE ENERGY PREDICTED BY IDOCK:   -4.34 KCAL/MOL
REMARK 924 INTRA-LIGAND FREE ENERGY PREDICTED BY IDOCK:   -1.33 KCAL/MOL
REMARK 927      BINDING AFFINITY PREDICTED BY RF-SCORE:    0.00 PKD
ROOT
HETATM    1  C   UNL     1      -8.050   5.679  64.790  1.00  0.00    -0.128 C  
HETATM    2  O   UNL     1      -9.205   4.986  64.268  1.00  0.00    -0.036 OA 
HETATM    3  H   UNL     1      -5.686   4.985  66.952  1.00  0.00     0.000 HD 
HETATM    4  C   UNL     1      -8.882   3.720  63.688  1.00  0.00    -0.101 C  
HETATM    5  O   UNL     1      -6.118   5.494  66.276  1.00  0.00    -0.028 OA 
HETATM    6  C   UNL     1      -8.300   2.777  64.750  1.00  0.00    -0.088 C  
HETATM    7  H   UNL     1      -5.795   2.992  66.810  1.00  0.00     0.000 HD 
HETATM    8  O   UNL     1      -6.564   2.589  66.426  1.00  0.00    -0.034 OA 
HETATM    9  O   UNL     1      -7.885   1.513  64.210  1.00  0.00    -0.062 OA 
HETATM   10  C   UNL     1      -7.061   3.427  65.370  1.00  0.00    -0.062 C  
HETATM   11  H   UNL     1      -7.526   0.929  64.867  1.00  0.00     0.000 HD 
HETATM   12  C   UNL     1      -7.347   4.851  65.891  1.00  0.00    -0.077 C  
ENDROOT
BRANCH   1  13
HETATM   13  C   UNL     1      -8.480   7.064  65.264  1.00  0.00    -0.060 A  
HETATM   14  C   UNL     1      -9.157   9.631  66.279  1.00  0.00    -0.197 A  
HETATM   15  C   UNL     1      -9.401  11.009  66.836  1.00  0.00    -0.189 C  
HETATM   16  C   UNL     1      -9.672   8.476  66.901  1.00  0.00    -0.286 A  
HETATM   17  C   UNL     1      -8.002   8.227  64.650  1.00  0.00    -0.145 A  
HETATM   18  C   UNL     1      -8.336   9.489  65.151  1.00  0.00    -0.148 A  
HETATM   19  C   UNL     1      -9.347   7.209  66.365  1.00  0.00    -0.190 A  
BRANCH  16  20
HETATM   20  C   UNL     1     -10.457   8.548  68.198  1.00  0.00    -0.236 C  
BRANCH  20  21
HETATM   21  C   UNL     1     -10.272   7.436  69.194  1.00  0.00    -0.196 A  
HETATM   22  C   UNL     1     -11.163   6.514  69.703  1.00  0.00    -0.446 A  
HETATM   23  C   UNL     1     -10.501   5.456  70.410  1.00  0.00    -0.345 A  
HETATM   24  C   UNL     1      -9.121   5.589  70.416  1.00  0.00    -0.139 A  
HETATM   25  S   UNL     1      -8.685   7.119  69.764  1.00  0.00    -0.142 SA 
BRANCH  24  26
HETATM   26  C   UNL     1      -8.079   4.635  70.859  1.00  0.00    -0.082 A  
HETATM   27  C   UNL     1      -7.213   4.022  69.932  1.00  0.00    -0.042 A  
HETATM   28  C   UNL     1      -6.277   3.065  70.334  1.00  0.00    -0.023 A  
HETATM   29  C   UNL     1      -6.208   2.695  71.668  1.00  0.00    -0.014 A  
HETATM   30  F   UNL     1      -5.332   1.755  72.048  1.00  0.00    -0.003 F  
HETATM   31  C   UNL     1      -7.041   3.283  72.609  1.00  0.00    -0.043 A  
HETATM   32  C   UNL     1      -7.972   4.251  72.207  1.00  0.00    -0.091 A  
ENDBRANCH  24  26
ENDBRANCH  20  21
ENDBRANCH  16  20
ENDBRANCH   1  13
BRANCH   4  33
HETATM   33  C   UNL     1     -10.141   3.124  63.047  1.00  0.00    -0.131 C  
HETATM   34  O   UNL     1     -11.126   2.871  64.054  1.00  0.00    -0.580 OA 
HETATM   35  H   UNL     1     -11.906   2.502  63.657  1.00  0.00     0.000 HD 
ENDBRANCH   4  33
TORSDOF 5
ENDMDL
MODEL      185
REMARK 921   NORMALIZED FREE ENERGY PREDICTED BY IDOCK:   -3.80 KCAL/MOL
REMARK 922        TOTAL FREE ENERGY PREDICTED BY IDOCK:   -5.51 KCAL/MOL
REMARK 923 INTER-LIGAND FREE ENERGY PREDICTED BY IDOCK:   -4.97 KCAL/MOL
REMARK 924 INTRA-LIGAND FREE ENERGY PREDICTED BY IDOCK:   -0.55 KCAL/MOL
REMARK 927      BINDING AFFINITY PREDICTED BY RF-SCORE:    0.00 PKD
ROOT
HETATM    1  C   UNL     1      -9.842  16.437  67.276  1.00  0.00    -0.245 C  
HETATM    2  O   UNL     1     -10.688  17.363  66.560  1.00  0.00    -0.229 OA 
HETATM    3  H   UNL     1      -6.655  15.671  67.238  1.00  0.00     0.000 HD 
HETATM    4  C   UNL     1     -10.240  18.717  66.656  1.00  0.00    -0.408 C  
HETATM    5  O   UNL     1      -7.545  15.654  67.569  1.00  0.00    -0.143 OA 
HETATM    6  C   UNL     1      -8.853  18.869  66.014  1.00  0.00    -0.006 C  
HETATM    7  H   UNL     1      -5.991  17.402  66.485  1.00  0.00     0.000 HD 
HETATM    8  O   UNL     1      -6.599  17.992  66.054  1.00  0.00    -0.223 OA 
HETATM    9  O   UNL     1      -8.317  20.194  66.147  1.00  0.00    -0.495 OA 
HETATM   10  C   UNL     1      -7.875  17.920  66.708  1.00  0.00    -0.232 C  
HETATM   11  H   UNL     1      -7.460  20.289  65.749  1.00  0.00     0.000 HD 
HETATM   12  C   UNL     1      -8.393  16.466  66.736  1.00  0.00    -0.250 C  
ENDROOT
BRANCH   1  13
HETATM   13  C   UNL     1     -10.475  15.050  67.222  1.00  0.00    -0.265 A  
HETATM   14  C   UNL     1     -11.496  12.398  67.182  1.00  0.00    -0.423 A  
HETATM   15  C   UNL     1     -11.981  10.974  67.261  1.00  0.00     0.717 C  
HETATM   16  C   UNL     1     -10.676  12.846  66.128  1.00  0.00    -0.290 A  
HETATM   17  C   UNL     1     -11.311  14.588  68.243  1.00  0.00    -0.319 A  
HETATM   18  C   UNL     1     -11.814  13.284  68.222  1.00  0.00    -0.389 A  
HETATM   19  C   UNL     1     -10.200  14.177  66.151  1.00  0.00    -0.313 A  
BRANCH  16  20
HETATM   20  C   UNL     1     -10.187  11.908  65.040  1.00  0.00    -0.316 C  
BRANCH  20  21
HETATM   21  C   UNL     1      -9.337  10.737  65.452  1.00  0.00    -0.207 A  
HETATM   22  C   UNL     1      -8.836  10.365  66.682  1.00  0.00    -0.144 A  
HETATM   23  C   UNL     1      -8.315   9.029  66.673  1.00  0.00    -0.118 A  
HETATM   24  C   UNL     1      -8.439   8.408  65.440  1.00  0.00    -0.176 A  
HETATM   25  S   UNL     1      -8.970   9.550  64.269  1.00  0.00    -0.159 SA 
BRANCH  24  26
HETATM   26  C   UNL     1      -8.209   6.995  65.063  1.00  0.00    -0.091 A  
HETATM   27  C   UNL     1      -7.585   6.659  63.846  1.00  0.00    -0.108 A  
HETATM   28  C   UNL     1      -7.431   5.328  63.449  1.00  0.00    -0.054 A  
HETATM   29  C   UNL     1      -7.917   4.314  64.260  1.00  0.00    -0.090 A  
HETATM   30  F   UNL     1      -7.796   3.039  63.865  1.00  0.00    -0.074 F  
HETATM   31  C   UNL     1      -8.530   4.608  65.469  1.00  0.00    -0.123 A  
HETATM   32  C   UNL     1      -8.674   5.942  65.872  1.00  0.00    -0.152 A  
ENDBRANCH  24  26
ENDBRANCH  20  21
ENDBRANCH  16  20
ENDBRANCH   1  13
BRANCH   4  33
HETATM   33  C   UNL     1     -11.266  19.636  65.982  1.00  0.00     0.245 C  
HETATM   34  O   UNL     1     -10.761  20.089  64.722  1.00  0.00     0.111 OA 
HETATM   35  H   UNL     1     -11.396  20.658  64.304  1.00  0.00     0.000 HD 
ENDBRANCH   4  33
TORSDOF 5
ENDMDL
MODEL      186
REMARK 921   NORMALIZED FREE ENERGY PREDICTED BY IDOCK:   -3.80 KCAL/MOL
REMARK 922        TOTAL FREE ENERGY PREDICTED BY IDOCK:   -5.51 KCAL/MOL
REMARK 923 INTER-LIGAND FREE ENERGY PREDICTED BY IDOCK:   -4.95 KCAL/MOL
REMARK 924 INTRA-LIGAND FREE ENERGY PREDICTED BY IDOCK:   -0.56 KCAL/MOL
REMARK 927      BINDING AFFINITY PREDICTED BY RF-SCORE:    0.00 PKD
ROOT
HETATM    1  C   UNL     1      -9.081  13.029  66.375  1.00  0.00    -0.061 C  
HETATM    2  O   UNL     1      -9.434  14.326  66.901  1.00  0.00    -0.242 OA 
HETATM    3  H   UNL     1     -10.731  10.446  65.212  1.00  0.00     0.000 HD 
HETATM    4  C   UNL     1     -10.237  15.094  66.001  1.00  0.00    -0.307 C  
HETATM    5  O   UNL     1      -9.958  10.966  65.400  1.00  0.00    -0.233 OA 
HETATM    6  C   UNL     1     -11.577  14.391  65.745  1.00  0.00    -0.353 C  
HETATM    7  H   UNL     1     -12.388  11.431  64.674  1.00  0.00     0.000 HD 
HETATM    8  O   UNL     1     -12.555  12.298  65.024  1.00  0.00    -0.575 OA 
HETATM    9  O   UNL     1     -12.397  15.079  64.788  1.00  0.00    -0.297 OA 
HETATM   10  C   UNL     1     -11.308  12.994  65.182  1.00  0.00    -0.291 C  
HETATM   11  H   UNL     1     -13.226  14.644  64.630  1.00  0.00     0.000 HD 
HETATM   12  C   UNL     1     -10.338  12.183  66.068  1.00  0.00    -0.237 C  
ENDROOT
BRANCH   1  13
HETATM   13  C   UNL     1      -8.123  12.347  67.348  1.00  0.00    -0.177 A  
HETATM   14  C   UNL     1      -6.202  11.158  69.072  1.00  0.00    -0.047 A  
HETATM   15  C   UNL     1      -5.126  10.629  69.983  1.00  0.00    -0.040 C  
HETATM   16  C   UNL     1      -6.435  10.602  67.798  1.00  0.00    -0.060 A  
HETATM   17  C   UNL     1      -7.890  12.864  68.626  1.00  0.00    -0.044 A  
HETATM   18  C   UNL     1      -6.945  12.278  69.473  1.00  0.00     0.140 A  
HETATM   19  C   UNL     1      -7.415  11.191  66.965  1.00  0.00    -0.132 A  
BRANCH  16  20
HETATM   20  C   UNL     1      -5.581   9.475  67.247  1.00  0.00    -0.040 C  
BRANCH  20  21
HETATM   21  C   UNL     1      -6.055   8.064  67.465  1.00  0.00    -0.051 A  
HETATM   22  C   UNL     1      -5.482   6.852  67.140  1.00  0.00    -0.017 A  
HETATM   23  C   UNL     1      -6.140   5.753  67.786  1.00  0.00    -0.022 A  
HETATM   24  C   UNL     1      -7.192   6.151  68.596  1.00  0.00    -0.084 A  
HETATM   25  S   UNL     1      -7.498   7.827  68.363  1.00  0.00    -0.106 SA 
BRANCH  24  26
HETATM   26  C   UNL     1      -7.990   5.367  69.566  1.00  0.00    -0.089 A  
HETATM   27  C   UNL     1      -8.930   4.413  69.132  1.00  0.00    -0.151 A  
HETATM   28  C   UNL     1      -9.740   3.723  70.039  1.00  0.00    -0.211 A  
HETATM   29  C   UNL     1      -9.631   3.995  71.394  1.00  0.00    -0.171 A  
HETATM   30  F   UNL     1     -10.429   3.356  72.260  1.00  0.00    -0.232 F  
HETATM   31  C   UNL     1      -8.711   4.924  71.857  1.00  0.00    -0.136 A  
HETATM   32  C   UNL     1      -7.891   5.606  70.948  1.00  0.00    -0.105 A  
ENDBRANCH  24  26
ENDBRANCH  20  21
ENDBRANCH  16  20
ENDBRANCH   1  13
BRANCH   4  33
HETATM   33  C   UNL     1     -10.449  16.495  66.586  1.00  0.00    -0.266 C  
HETATM   34  O   UNL     1     -10.716  16.401  67.989  1.00  0.00    -0.311 OA 
HETATM   35  H   UNL     1     -10.847  17.269  68.352  1.00  0.00     0.000 HD 
ENDBRANCH   4  33
TORSDOF 5
ENDMDL
MODEL      187
REMARK 921   NORMALIZED FREE ENERGY PREDICTED BY IDOCK:   -3.58 KCAL/MOL
REMARK 922        TOTAL FREE ENERGY PREDICTED BY IDOCK:   -5.22 KCAL/MOL
REMARK 923 INTER-LIGAND FREE ENERGY PREDICTED BY IDOCK:   -4.54 KCAL/MOL
REMARK 924 INTRA-LIGAND FREE ENERGY PREDICTED BY IDOCK:   -0.68 KCAL/MOL
REMARK 927      BINDING AFFINITY PREDICTED BY RF-SCORE:    0.00 PKD
ROOT
HETATM    1  C   UNL     1      -7.186   5.894  67.497  1.00  0.00    -0.076 C  
HETATM    2  O   UNL     1      -8.164   4.867  67.768  1.00  0.00    -0.100 OA 
HETATM    3  H   UNL     1      -5.328   7.894  69.310  1.00  0.00     0.000 HD 
HETATM    4  C   UNL     1      -7.662   3.829  68.613  1.00  0.00    -0.056 C  
HETATM    5  O   UNL     1      -5.623   7.477  68.510  1.00  0.00    -0.025 OA 
HETATM    6  C   UNL     1      -7.286   4.393  69.991  1.00  0.00    -0.046 C  
HETATM    7  H   UNL     1      -5.310   6.780  70.972  1.00  0.00     0.000 HD 
HETATM    8  O   UNL     1      -5.956   6.092  71.085  1.00  0.00    -0.028 OA 
HETATM    9  O   UNL     1      -6.705   3.409  70.859  1.00  0.00    -0.031 OA 
HETATM   10  C   UNL     1      -6.246   5.500  69.809  1.00  0.00    -0.026 C  
HETATM   11  H   UNL     1      -6.472   3.758  71.711  1.00  0.00     0.000 HD 
HETATM   12  C   UNL     1      -6.706   6.574  68.800  1.00  0.00    -0.057 C  
ENDROOT
BRANCH   1  13
HETATM   13  C   UNL     1      -7.773   6.878  66.488  1.00  0.00    -0.101 A  
HETATM   14  C   UNL     1      -8.779   8.843  64.699  1.00  0.00    -0.138 A  
HETATM   15  C   UNL     1      -9.207   9.935  63.754  1.00  0.00    -0.289 C  
HETATM   16  C   UNL     1      -9.384   8.673  65.960  1.00  0.00    -0.284 A  
HETATM   17  C   UNL     1      -7.207   7.051  65.222  1.00  0.00    -0.074 A  
HETATM   18  C   UNL     1      -7.703   8.018  64.342  1.00  0.00    -0.130 A  
HETATM   19  C   UNL     1      -8.888   7.671  66.826  1.00  0.00    -0.150 A  
BRANCH  16  20
HETATM   20  C   UNL     1     -10.464   9.613  66.464  1.00  0.00    -0.213 C  
BRANCH  20  21
HETATM   21  C   UNL     1     -10.136  11.078  66.550  1.00  0.00    -0.226 A  
HETATM   22  C   UNL     1     -10.922  12.198  66.377  1.00  0.00    -0.327 A  
HETATM   23  C   UNL     1     -10.271  13.392  66.832  1.00  0.00    -0.252 A  
HETATM   24  C   UNL     1      -9.007  13.156  67.351  1.00  0.00    -0.201 A  
HETATM   25  S   UNL     1      -8.557  11.523  67.054  1.00  0.00    -0.166 SA 
BRANCH  24  26
HETATM   26  C   UNL     1      -8.099  14.065  68.086  1.00  0.00    -0.151 A  
HETATM   27  C   UNL     1      -6.933  13.581  68.710  1.00  0.00    -0.102 A  
HETATM   28  C   UNL     1      -6.111  14.419  69.468  1.00  0.00    -0.114 A  
HETATM   29  C   UNL     1      -6.456  15.752  69.626  1.00  0.00    -0.181 A  
HETATM   30  F   UNL     1      -5.684  16.548  70.378  1.00  0.00    -0.189 F  
HETATM   31  C   UNL     1      -7.594  16.265  69.020  1.00  0.00    -0.219 A  
HETATM   32  C   UNL     1      -8.412  15.426  68.251  1.00  0.00    -0.159 A  
ENDBRANCH  24  26
ENDBRANCH  20  21
ENDBRANCH  16  20
ENDBRANCH   1  13
BRANCH   4  33
HETATM   33  C   UNL     1      -8.720   2.726  68.737  1.00  0.00    -0.086 C  
HETATM   34  O   UNL     1      -9.574   2.739  67.589  1.00  0.00    -0.348 OA 
HETATM   35  H   UNL     1     -10.230   2.056  67.665  1.00  0.00     0.000 HD 
ENDBRANCH   4  33
TORSDOF 5
ENDMDL
MODEL      188
REMARK 921   NORMALIZED FREE ENERGY PREDICTED BY IDOCK:   -3.56 KCAL/MOL
REMARK 922        TOTAL FREE ENERGY PREDICTED BY IDOCK:   -5.20 KCAL/MOL
REMARK 923 INTER-LIGAND FREE ENERGY PREDICTED BY IDOCK:   -4.90 KCAL/MOL
REMARK 924 INTRA-LIGAND FREE ENERGY PREDICTED BY IDOCK:   -0.30 KCAL/MOL
REMARK 927      BINDING AFFINITY PREDICTED BY RF-SCORE:    0.00 PKD
ROOT
HETATM    1  C   UNL     1      -8.597  15.107  67.816  1.00  0.00    -0.152 C  
HETATM    2  O   UNL     1      -7.745  16.238  68.101  1.00  0.00    -0.150 OA 
HETATM    3  H   UNL     1     -11.262  13.780  69.188  1.00  0.00     0.000 HD 
HETATM    4  C   UNL     1      -8.463  17.471  68.183  1.00  0.00    -0.254 C  
HETATM    5  O   UNL     1     -10.600  13.893  68.516  1.00  0.00    -0.241 OA 
HETATM    6  C   UNL     1      -9.469  17.430  69.341  1.00  0.00     0.214 C  
HETATM    7  H   UNL     1     -11.906  15.427  70.125  1.00  0.00     0.000 HD 
HETATM    8  O   UNL     1     -11.312  16.157  70.256  1.00  0.00    -0.352 OA 
HETATM    9  O   UNL     1     -10.274  18.616  69.426  1.00  0.00    -0.428 OA 
HETATM   10  C   UNL     1     -10.425  16.254  69.130  1.00  0.00    -0.280 C  
HETATM   11  H   UNL     1     -10.896  18.591  70.143  1.00  0.00     0.000 HD 
HETATM   12  C   UNL     1      -9.675  14.924  68.909  1.00  0.00    -0.223 C  
ENDROOT
BRANCH   1  13
HETATM   13  C   UNL     1      -7.725  13.870  67.620  1.00  0.00    -0.193 A  
HETATM   14  C   UNL     1      -6.084  11.613  67.082  1.00  0.00    -0.130 A  
HETATM   15  C   UNL     1      -5.150  10.486  66.728  1.00  0.00    -0.043 C  
HETATM   16  C   UNL     1      -7.451  11.580  66.740  1.00  0.00    -0.118 A  
HETATM   17  C   UNL     1      -6.371  13.868  67.972  1.00  0.00    -0.144 A  
HETATM   18  C   UNL     1      -5.565  12.756  67.707  1.00  0.00    -0.128 A  
HETATM   19  C   UNL     1      -8.257  12.701  67.041  1.00  0.00    -0.110 A  
BRANCH  16  20
HETATM   20  C   UNL     1      -8.050  10.433  65.948  1.00  0.00    -0.149 C  
BRANCH  20  21
HETATM   21  C   UNL     1      -8.626   9.274  66.715  1.00  0.00    -0.127 A  
HETATM   22  C   UNL     1      -9.856   8.654  66.639  1.00  0.00    -0.336 A  
HETATM   23  C   UNL     1      -9.880   7.412  67.355  1.00  0.00    -0.219 A  
HETATM   24  C   UNL     1      -8.667   7.107  67.952  1.00  0.00    -0.126 A  
HETATM   25  S   UNL     1      -7.605   8.453  67.822  1.00  0.00    -0.103 SA 
BRANCH  24  26
HETATM   26  C   UNL     1      -8.221   5.856  68.607  1.00  0.00    -0.109 A  
HETATM   27  C   UNL     1      -6.852   5.548  68.730  1.00  0.00    -0.059 A  
HETATM   28  C   UNL     1      -6.426   4.335  69.280  1.00  0.00    -0.036 A  
HETATM   29  C   UNL     1      -7.366   3.407  69.697  1.00  0.00    -0.045 A  
HETATM   30  F   UNL     1      -6.957   2.232  70.195  1.00  0.00    -0.032 F  
HETATM   31  C   UNL     1      -8.723   3.680  69.597  1.00  0.00    -0.127 A  
HETATM   32  C   UNL     1      -9.150   4.900  69.056  1.00  0.00    -0.150 A  
ENDBRANCH  24  26
ENDBRANCH  20  21
ENDBRANCH  16  20
ENDBRANCH   1  13
BRANCH   4  33
HETATM   33  C   UNL     1      -7.465  18.623  68.356  1.00  0.00    -0.297 C  
HETATM   34  O   UNL     1      -6.534  18.309  69.396  1.00  0.00    -0.259 OA 
HETATM   35  H   UNL     1      -5.916  19.022  69.503  1.00  0.00     0.000 HD 
ENDBRANCH   4  33
TORSDOF 5
ENDMDL
MODEL      189
REMARK 921   NORMALIZED FREE ENERGY PREDICTED BY IDOCK:   -3.50 KCAL/MOL
REMARK 922        TOTAL FREE ENERGY PREDICTED BY IDOCK:   -5.13 KCAL/MOL
REMARK 923 INTER-LIGAND FREE ENERGY PREDICTED BY IDOCK:   -4.56 KCAL/MOL
REMARK 924 INTRA-LIGAND FREE ENERGY PREDICTED BY IDOCK:   -0.57 KCAL/MOL
REMARK 927      BINDING AFFINITY PREDICTED BY RF-SCORE:    0.00 PKD
ROOT
HETATM    1  C   UNL     1      -8.333   5.717  70.652  1.00  0.00    -0.118 C  
HETATM    2  O   UNL     1      -7.507   4.738  71.320  1.00  0.00    -0.071 OA 
HETATM    3  H   UNL     1      -9.941   5.868  67.800  1.00  0.00     0.000 HD 
HETATM    4  C   UNL     1      -8.160   3.476  71.484  1.00  0.00    -0.061 C  
HETATM    5  O   UNL     1      -9.690   6.161  68.668  1.00  0.00    -0.125 OA 
HETATM    6  C   UNL     1      -8.483   2.858  70.117  1.00  0.00    -0.053 C  
HETATM    7  H   UNL     1     -10.139   3.897  67.520  1.00  0.00     0.000 HD 
HETATM    8  O   UNL     1      -9.593   3.295  68.012  1.00  0.00    -0.181 OA 
HETATM    9  O   UNL     1      -9.207   1.623  70.218  1.00  0.00    -0.082 OA 
HETATM   10  C   UNL     1      -9.361   3.828  69.325  1.00  0.00    -0.174 C  
HETATM   11  H   UNL     1      -9.407   1.240  69.372  1.00  0.00     0.000 HD 
HETATM   12  C   UNL     1      -8.743   5.240  69.240  1.00  0.00    -0.100 C  
ENDROOT
BRANCH   1  13
HETATM   13  C   UNL     1      -7.601   7.056  70.644  1.00  0.00    -0.093 A  
HETATM   14  C   UNL     1      -6.398   9.630  70.627  1.00  0.00    -0.097 A  
HETATM   15  C   UNL     1      -5.845  11.029  70.692  1.00  0.00    -0.105 C  
HETATM   16  C   UNL     1      -6.881   9.077  69.424  1.00  0.00    -0.049 A  
HETATM   17  C   UNL     1      -7.091   7.616  71.820  1.00  0.00    -0.063 A  
HETATM   18  C   UNL     1      -6.500   8.883  71.810  1.00  0.00    -0.065 A  
HETATM   19  C   UNL     1      -7.450   7.784  69.448  1.00  0.00    -0.088 A  
BRANCH  16  20
HETATM   20  C   UNL     1      -6.922   9.877  68.135  1.00  0.00    -0.076 C  
BRANCH  20  21
HETATM   21  C   UNL     1      -8.126  10.743  67.884  1.00  0.00    -0.112 A  
HETATM   22  C   UNL     1      -9.395  10.714  68.425  1.00  0.00    -0.163 A  
HETATM   23  C   UNL     1     -10.143  11.898  68.113  1.00  0.00    -0.200 A  
HETATM   24  C   UNL     1      -9.424  12.808  67.353  1.00  0.00    -0.190 A  
HETATM   25  S   UNL     1      -7.946  12.093  66.841  1.00  0.00    -0.030 SA 
BRANCH  24  26
HETATM   26  C   UNL     1      -9.751  14.205  66.987  1.00  0.00    -0.258 A  
HETATM   27  C   UNL     1     -10.426  14.504  65.788  1.00  0.00    -0.335 A  
HETATM   28  C   UNL     1     -10.672  15.825  65.401  1.00  0.00    -0.420 A  
HETATM   29  C   UNL     1     -10.228  16.865  66.202  1.00  0.00    -0.341 A  
HETATM   30  F   UNL     1     -10.436  18.130  65.815  1.00  0.00    -0.389 F  
HETATM   31  C   UNL     1      -9.565  16.606  67.393  1.00  0.00    -0.242 A  
HETATM   32  C   UNL     1      -9.329  15.282  67.787  1.00  0.00    -0.196 A  
ENDBRANCH  24  26
ENDBRANCH  20  21
ENDBRANCH  16  20
ENDBRANCH   1  13
BRANCH   4  33
HETATM   33  C   UNL     1      -7.262   2.550  72.313  1.00  0.00    -0.038 C  
HETATM   34  O   UNL     1      -7.181   3.027  73.659  1.00  0.00    -0.043 OA 
HETATM   35  H   UNL     1      -6.625   2.454  74.173  1.00  0.00     0.000 HD 
ENDBRANCH   4  33
TORSDOF 5
ENDMDL
MODEL      190
REMARK 921   NORMALIZED FREE ENERGY PREDICTED BY IDOCK:   -3.49 KCAL/MOL
REMARK 922        TOTAL FREE ENERGY PREDICTED BY IDOCK:   -5.11 KCAL/MOL
REMARK 923 INTER-LIGAND FREE ENERGY PREDICTED BY IDOCK:   -4.66 KCAL/MOL
REMARK 924 INTRA-LIGAND FREE ENERGY PREDICTED BY IDOCK:   -0.45 KCAL/MOL
REMARK 927      BINDING AFFINITY PREDICTED BY RF-SCORE:    0.00 PKD
ROOT
HETATM    1  C   UNL     1     -11.812  12.689  67.305  1.00  0.00    -0.328 C  
HETATM    2  O   UNL     1     -11.135  11.419  67.186  1.00  0.00    -0.276 OA 
HETATM    3  H   UNL     1     -11.240  15.751  66.283  1.00  0.00     0.000 HD 
HETATM    4  C   UNL     1     -10.882  11.046  65.829  1.00  0.00    -0.097 C  
HETATM    5  O   UNL     1     -11.751  15.049  66.669  1.00  0.00    -0.278 OA 
HETATM    6  C   UNL     1      -9.944  12.061  65.160  1.00  0.00    -0.239 C  
HETATM    7  H   UNL     1     -10.058  15.282  64.737  1.00  0.00     0.000 HD 
HETATM    8  O   UNL     1      -9.665  14.418  64.691  1.00  0.00     0.013 OA 
HETATM    9  O   UNL     1      -9.714  11.779  63.771  1.00  0.00    -0.409 OA 
HETATM   10  C   UNL     1     -10.577  13.451  65.235  1.00  0.00    -0.325 C  
HETATM   11  H   UNL     1      -9.133  12.406  63.357  1.00  0.00     0.000 HD 
HETATM   12  C   UNL     1     -10.982  13.832  66.676  1.00  0.00    -0.296 C  
ENDROOT
BRANCH   1  13
HETATM   13  C   UNL     1     -12.150  12.932  68.773  1.00  0.00    -0.175 A  
HETATM   14  C   UNL     1     -12.603  13.365  71.544  1.00  0.00    -0.331 A  
HETATM   15  C   UNL     1     -12.745  13.658  73.015  1.00  0.00     0.263 C  
HETATM   16  C   UNL     1     -12.438  12.052  71.061  1.00  0.00    -0.376 A  
HETATM   17  C   UNL     1     -12.341  14.223  69.275  1.00  0.00    -0.197 A  
HETATM   18  C   UNL     1     -12.564  14.435  70.638  1.00  0.00    -0.424 A  
HETATM   19  C   UNL     1     -12.242  11.854  69.675  1.00  0.00    -0.216 A  
BRANCH  16  20
HETATM   20  C   UNL     1     -12.340  10.861  71.997  1.00  0.00     0.316 C  
BRANCH  20  21
HETATM   21  C   UNL     1     -11.709   9.602  71.467  1.00  0.00    -0.400 A  
HETATM   22  C   UNL     1     -12.262   8.395  71.093  1.00  0.00    -0.248 A  
HETATM   23  C   UNL     1     -11.331   7.571  70.378  1.00  0.00    -0.253 A  
HETATM   24  C   UNL     1     -10.093   8.171  70.213  1.00  0.00    -0.192 A  
HETATM   25  S   UNL     1     -10.025   9.620  71.137  1.00  0.00     0.214 SA 
BRANCH  24  26
HETATM   26  C   UNL     1      -8.939   7.751  69.386  1.00  0.00    -0.142 A  
HETATM   27  C   UNL     1      -8.046   6.759  69.835  1.00  0.00    -0.126 A  
HETATM   28  C   UNL     1      -6.913   6.410  69.094  1.00  0.00    -0.068 A  
HETATM   29  C   UNL     1      -6.650   7.065  67.901  1.00  0.00    -0.052 A  
HETATM   30  F   UNL     1      -5.547   6.752  67.206  1.00  0.00    -0.011 F  
HETATM   31  C   UNL     1      -7.512   8.042  67.425  1.00  0.00    -0.093 A  
HETATM   32  C   UNL     1      -8.653   8.383  68.163  1.00  0.00    -0.139 A  
ENDBRANCH  24  26
ENDBRANCH  20  21
ENDBRANCH  16  20
ENDBRANCH   1  13
BRANCH   4  33
HETATM   33  C   UNL     1     -10.284   9.635  65.799  1.00  0.00    -0.102 C  
HETATM   34  O   UNL     1     -10.157   9.189  64.445  1.00  0.00     0.323 OA 
HETATM   35  H   UNL     1      -9.786   8.314  64.426  1.00  0.00     0.000 HD 
ENDBRANCH   4  33
TORSDOF 5
ENDMDL
MODEL      191
REMARK 921   NORMALIZED FREE ENERGY PREDICTED BY IDOCK:   -3.37 KCAL/MOL
REMARK 922        TOTAL FREE ENERGY PREDICTED BY IDOCK:   -4.95 KCAL/MOL
REMARK 923 INTER-LIGAND FREE ENERGY PREDICTED BY IDOCK:   -4.65 KCAL/MOL
REMARK 924 INTRA-LIGAND FREE ENERGY PREDICTED BY IDOCK:   -0.31 KCAL/MOL
REMARK 927      BINDING AFFINITY PREDICTED BY RF-SCORE:    0.00 PKD
ROOT
HETATM    1  C   UNL     1      -8.663   6.379  64.969  1.00  0.00     0.132 C  
HETATM    2  O   UNL     1      -8.633   5.883  66.324  1.00  0.00    -0.123 OA 
HETATM    3  H   UNL     1      -8.126   5.104  61.997  1.00  0.00     0.000 HD 
HETATM    4  C   UNL     1      -9.486   4.753  66.524  1.00  0.00    -0.156 C  
HETATM    5  O   UNL     1      -8.404   5.769  62.616  1.00  0.00    -0.108 OA 
HETATM    6  C   UNL     1      -9.024   3.573  65.659  1.00  0.00    -0.139 C  
HETATM    7  H   UNL     1      -8.502   3.197  62.473  1.00  0.00     0.000 HD 
HETATM    8  O   UNL     1      -8.504   2.931  63.385  1.00  0.00    -0.085 OA 
HETATM    9  O   UNL     1      -9.888   2.431  65.761  1.00  0.00    -0.272 OA 
HETATM   10  C   UNL     1      -9.020   4.002  64.191  1.00  0.00    -0.135 C  
HETATM   11  H   UNL     1      -9.602   1.701  65.226  1.00  0.00     0.000 HD 
HETATM   12  C   UNL     1      -8.211   5.296  63.962  1.00  0.00    -0.131 C  
ENDROOT
BRANCH   1  13
HETATM   13  C   UNL     1      -7.828   7.655  64.892  1.00  0.00    -0.128 A  
HETATM   14  C   UNL     1      -6.132   9.933  64.807  1.00  0.00    -0.102 A  
HETATM   15  C   UNL     1      -5.149  11.070  64.719  1.00  0.00     0.061 C  
HETATM   16  C   UNL     1      -6.668   9.507  66.039  1.00  0.00    -0.082 A  
HETATM   17  C   UNL     1      -7.304   8.112  63.679  1.00  0.00    -0.105 A  
HETATM   18  C   UNL     1      -6.469   9.233  63.639  1.00  0.00    -0.092 A  
HETATM   19  C   UNL     1      -7.532   8.389  66.057  1.00  0.00    -0.084 A  
BRANCH  16  20
HETATM   20  C   UNL     1      -6.245  10.133  67.355  1.00  0.00    -0.058 C  
BRANCH  20  21
HETATM   21  C   UNL     1      -6.573  11.584  67.580  1.00  0.00    -0.087 A  
HETATM   22  C   UNL     1      -5.779  12.649  67.953  1.00  0.00    -0.110 A  
HETATM   23  C   UNL     1      -6.443  13.908  67.773  1.00  0.00    -0.178 A  
HETATM   24  C   UNL     1      -7.722  13.776  67.256  1.00  0.00    -0.076 A  
HETATM   25  S   UNL     1      -8.166  12.115  67.228  1.00  0.00    -0.185 SA 
BRANCH  24  26
HETATM   26  C   UNL     1      -8.652  14.812  66.751  1.00  0.00    -0.226 A  
HETATM   27  C   UNL     1      -9.728  14.475  65.908  1.00  0.00    -0.324 A  
HETATM   28  C   UNL     1     -10.565  15.456  65.368  1.00  0.00    -0.430 A  
HETATM   29  C   UNL     1     -10.323  16.791  65.651  1.00  0.00    -0.265 A  
HETATM   30  F   UNL     1     -11.106  17.733  65.109  1.00  0.00    -0.387 F  
HETATM   31  C   UNL     1      -9.276  17.158  66.484  1.00  0.00    -0.289 A  
HETATM   32  C   UNL     1      -8.445  16.174  67.035  1.00  0.00    -0.238 A  
ENDBRANCH  24  26
ENDBRANCH  20  21
ENDBRANCH  16  20
ENDBRANCH   1  13
BRANCH   4  33
HETATM   33  C   UNL     1      -9.489   4.382  68.012  1.00  0.00    -0.156 C  
HETATM   34  O   UNL     1      -8.494   5.142  68.705  1.00  0.00    -0.089 OA 
HETATM   35  H   UNL     1      -8.495   4.912  69.627  1.00  0.00     0.000 HD 
ENDBRANCH   4  33
TORSDOF 5
ENDMDL
MODEL      192
REMARK 921   NORMALIZED FREE ENERGY PREDICTED BY IDOCK:   -3.34 KCAL/MOL
REMARK 922        TOTAL FREE ENERGY PREDICTED BY IDOCK:   -4.91 KCAL/MOL
REMARK 923 INTER-LIGAND FREE ENERGY PREDICTED BY IDOCK:   -4.70 KCAL/MOL
REMARK 924 INTRA-LIGAND FREE ENERGY PREDICTED BY IDOCK:   -0.22 KCAL/MOL
REMARK 927      BINDING AFFINITY PREDICTED BY RF-SCORE:    0.00 PKD
ROOT
HETATM    1  C   UNL     1      -7.569  13.319  69.329  1.00  0.00     0.349 C  
HETATM    2  O   UNL     1      -8.929  13.281  68.845  1.00  0.00     0.076 OA 
HETATM    3  H   UNL     1      -4.874  15.038  68.603  1.00  0.00     0.000 HD 
HETATM    4  C   UNL     1      -9.579  14.552  68.905  1.00  0.00    -0.158 C  
HETATM    5  O   UNL     1      -5.405  14.435  69.109  1.00  0.00    -0.081 OA 
HETATM    6  C   UNL     1      -8.864  15.564  67.999  1.00  0.00    -0.165 C  
HETATM    7  H   UNL     1      -5.797  16.624  67.806  1.00  0.00     0.000 HD 
HETATM    8  O   UNL     1      -6.705  16.554  67.536  1.00  0.00    -0.122 OA 
HETATM    9  O   UNL     1      -9.428  16.882  68.076  1.00  0.00    -0.234 OA 
HETATM   10  C   UNL     1      -7.401  15.677  68.435  1.00  0.00    -0.116 C  
HETATM   11  H   UNL     1      -8.985  17.507  67.515  1.00  0.00     0.000 HD 
HETATM   12  C   UNL     1      -6.705  14.301  68.505  1.00  0.00    -0.099 C  
ENDROOT
BRANCH   1  13
HETATM   13  C   UNL     1      -7.012  11.899  69.347  1.00  0.00    -0.001 A  
HETATM   14  C   UNL     1      -5.848   9.308  69.260  1.00  0.00    -0.035 A  
HETATM   15  C   UNL     1      -5.126   7.987  69.213  1.00  0.00    -0.026 C  
HETATM   16  C   UNL     1      -6.715   9.718  68.228  1.00  0.00    -0.060 A  
HETATM   17  C   UNL     1      -6.167  11.458  70.371  1.00  0.00    -0.048 A  
HETATM   18  C   UNL     1      -5.596  10.183  70.327  1.00  0.00    -0.054 A  
HETATM   19  C   UNL     1      -7.306  11.000  68.303  1.00  0.00    -0.088 A  
BRANCH  16  20
HETATM   20  C   UNL     1      -6.931   8.878  66.983  1.00  0.00    -0.074 C  
BRANCH  20  21
HETATM   21  C   UNL     1      -7.857   9.415  65.926  1.00  0.00    -0.099 A  
HETATM   22  C   UNL     1      -8.700   8.771  65.044  1.00  0.00    -0.183 A  
HETATM   23  C   UNL     1      -9.611   9.677  64.407  1.00  0.00    -0.038 A  
HETATM   24  C   UNL     1      -9.449  10.989  64.824  1.00  0.00    -0.230 A  
HETATM   25  S   UNL     1      -8.040  11.116  65.801  1.00  0.00     0.115 SA 
BRANCH  24  26
HETATM   26  C   UNL     1     -10.294  12.178  64.563  1.00  0.00    -0.335 A  
HETATM   27  C   UNL     1      -9.986  13.428  65.133  1.00  0.00    -0.190 A  
HETATM   28  C   UNL     1     -10.819  14.536  64.952  1.00  0.00    -0.436 A  
HETATM   29  C   UNL     1     -11.982  14.400  64.211  1.00  0.00    -0.410 A  
HETATM   30  F   UNL     1     -12.796  15.455  64.064  1.00  0.00    -0.302 F  
HETATM   31  C   UNL     1     -12.313  13.185  63.630  1.00  0.00    -0.482 A  
HETATM   32  C   UNL     1     -11.472  12.078  63.802  1.00  0.00    -0.547 A  
ENDBRANCH  24  26
ENDBRANCH  20  21
ENDBRANCH  16  20
ENDBRANCH   1  13
BRANCH   4  33
HETATM   33  C   UNL     1     -11.048  14.386  68.498  1.00  0.00    -0.253 C  
HETATM   34  O   UNL     1     -11.698  15.660  68.488  1.00  0.00    -0.371 OA 
HETATM   35  H   UNL     1     -12.608  15.557  68.236  1.00  0.00     0.000 HD 
ENDBRANCH   4  33
TORSDOF 5
ENDMDL
MODEL      193
REMARK 921   NORMALIZED FREE ENERGY PREDICTED BY IDOCK:   -3.31 KCAL/MOL
REMARK 922        TOTAL FREE ENERGY PREDICTED BY IDOCK:   -4.88 KCAL/MOL
REMARK 923 INTER-LIGAND FREE ENERGY PREDICTED BY IDOCK:   -3.92 KCAL/MOL
REMARK 924 INTRA-LIGAND FREE ENERGY PREDICTED BY IDOCK:   -0.96 KCAL/MOL
REMARK 927      BINDING AFFINITY PREDICTED BY RF-SCORE:    0.00 PKD
ROOT
HETATM    1  C   UNL     1      -8.321   5.461  65.806  1.00  0.00    -0.126 C  
HETATM    2  O   UNL     1      -7.640   5.265  67.065  1.00  0.00    -0.090 OA 
HETATM    3  H   UNL     1      -8.676   3.733  63.044  1.00  0.00     0.000 HD 
HETATM    4  C   UNL     1      -8.031   4.060  67.728  1.00  0.00    -0.090 C  
HETATM    5  O   UNL     1      -8.851   4.446  63.647  1.00  0.00    -0.130 OA 
HETATM    6  C   UNL     1      -7.658   2.836  66.880  1.00  0.00    -0.071 C  
HETATM    7  H   UNL     1      -8.339   1.926  63.835  1.00  0.00     0.000 HD 
HETATM    8  O   UNL     1      -7.919   1.855  64.684  1.00  0.00    -0.068 OA 
HETATM    9  O   UNL     1      -8.094   1.598  67.462  1.00  0.00    -0.063 OA 
HETATM   10  C   UNL     1      -8.335   2.951  65.513  1.00  0.00    -0.095 C  
HETATM   11  H   UNL     1      -7.863   0.841  66.938  1.00  0.00     0.000 HD 
HETATM   12  C   UNL     1      -8.037   4.300  64.825  1.00  0.00    -0.094 C  
ENDROOT
BRANCH   1  13
HETATM   13  C   UNL     1      -7.935   6.827  65.246  1.00  0.00    -0.127 A  
HETATM   14  C   UNL     1      -7.092   9.383  64.333  1.00  0.00    -0.101 A  
HETATM   15  C   UNL     1      -6.535  10.704  63.870  1.00  0.00     0.166 C  
HETATM   16  C   UNL     1      -7.955   9.288  65.443  1.00  0.00    -0.108 A  
HETATM   17  C   UNL     1      -7.099   6.950  64.131  1.00  0.00    -0.059 A  
HETATM   18  C   UNL     1      -6.686   8.208  63.683  1.00  0.00    -0.075 A  
HETATM   19  C   UNL     1      -8.386   8.010  65.865  1.00  0.00    -0.136 A  
BRANCH  16  20
HETATM   20  C   UNL     1      -8.330  10.503  66.271  1.00  0.00    -0.152 C  
BRANCH  20  21
HETATM   21  C   UNL     1      -9.108  10.276  67.539  1.00  0.00    -0.137 A  
HETATM   22  C   UNL     1     -10.420  10.553  67.863  1.00  0.00    -0.247 A  
HETATM   23  C   UNL     1     -10.823   9.913  69.081  1.00  0.00    -0.248 A  
HETATM   24  C   UNL     1      -9.814   9.153  69.653  1.00  0.00    -0.180 A  
HETATM   25  S   UNL     1      -8.337   9.432  68.818  1.00  0.00    -0.119 SA 
BRANCH  24  26
HETATM   26  C   UNL     1      -9.871   8.200  70.785  1.00  0.00    -0.201 A  
HETATM   27  C   UNL     1     -11.007   8.121  71.613  1.00  0.00    -0.306 A  
HETATM   28  C   UNL     1     -11.039   7.277  72.727  1.00  0.00    -0.362 A  
HETATM   29  C   UNL     1      -9.925   6.514  73.036  1.00  0.00    -0.172 A  
HETATM   30  F   UNL     1      -9.945   5.728  74.122  1.00  0.00    -0.160 F  
HETATM   31  C   UNL     1      -8.791   6.562  72.239  1.00  0.00    -0.134 A  
HETATM   32  C   UNL     1      -8.764   7.399  71.115  1.00  0.00    -0.137 A  
ENDBRANCH  24  26
ENDBRANCH  20  21
ENDBRANCH  16  20
ENDBRANCH   1  13
BRANCH   4  33
HETATM   33  C   UNL     1      -7.360   4.005  69.106  1.00  0.00    -0.054 C  
HETATM   34  O   UNL     1      -8.197   3.299  70.027  1.00  0.00    -0.045 OA 
HETATM   35  H   UNL     1      -7.781   3.264  70.880  1.00  0.00     0.000 HD 
ENDBRANCH   4  33
TORSDOF 5
ENDMDL
MODEL      194
REMARK 921   NORMALIZED FREE ENERGY PREDICTED BY IDOCK:   -3.24 KCAL/MOL
REMARK 922        TOTAL FREE ENERGY PREDICTED BY IDOCK:   -4.78 KCAL/MOL
REMARK 923 INTER-LIGAND FREE ENERGY PREDICTED BY IDOCK:   -6.08 KCAL/MOL
REMARK 924 INTRA-LIGAND FREE ENERGY PREDICTED BY IDOCK:    1.30 KCAL/MOL
REMARK 927      BINDING AFFINITY PREDICTED BY RF-SCORE:    0.00 PKD
ROOT
HETATM    1  C   UNL     1      -8.999  16.033  68.730  1.00  0.00    -0.226 C  
HETATM    2  O   UNL     1      -9.338  17.059  67.772  1.00  0.00    -0.232 OA 
HETATM    3  H   UNL     1      -6.223  14.867  70.027  1.00  0.00     0.000 HD 
HETATM    4  C   UNL     1      -8.823  18.345  68.126  1.00  0.00    -0.302 C  
HETATM    5  O   UNL     1      -7.165  14.963  69.941  1.00  0.00    -0.176 OA 
HETATM    6  C   UNL     1      -7.288  18.319  68.154  1.00  0.00    -0.260 C  
HETATM    7  H   UNL     1      -5.105  16.499  69.731  1.00  0.00     0.000 HD 
HETATM    8  O   UNL     1      -5.392  17.161  69.114  1.00  0.00    -0.144 OA 
HETATM    9  O   UNL     1      -6.715  19.565  68.578  1.00  0.00    -0.265 OA 
HETATM   10  C   UNL     1      -6.825  17.252  69.148  1.00  0.00    -0.234 C  
HETATM   11  H   UNL     1      -5.766  19.549  68.594  1.00  0.00     0.000 HD 
HETATM   12  C   UNL     1      -7.467  15.876  68.870  1.00  0.00    -0.178 C  
ENDROOT
BRANCH   1  13
HETATM   13  C   UNL     1      -9.700  14.737  68.333  1.00  0.00    -0.214 A  
HETATM   14  C   UNL     1     -10.993  12.271  67.765  1.00  0.00    -0.274 A  
HETATM   15  C   UNL     1     -11.734  10.975  67.566  1.00  0.00    -0.023 C  
HETATM   16  C   UNL     1      -9.589  12.314  67.874  1.00  0.00    -0.203 A  
HETATM   17  C   UNL     1     -11.090  14.672  68.195  1.00  0.00    -0.285 A  
HETATM   18  C   UNL     1     -11.725  13.458  67.915  1.00  0.00    -0.396 A  
HETATM   19  C   UNL     1      -8.962  13.555  68.129  1.00  0.00    -0.187 A  
BRANCH  16  20
HETATM   20  C   UNL     1      -8.745  11.053  67.852  1.00  0.00    -0.133 C  
BRANCH  20  21
HETATM   21  C   UNL     1      -9.222   9.875  68.657  1.00  0.00    -0.139 A  
HETATM   22  C   UNL     1     -10.257   8.987  68.444  1.00  0.00    -0.232 A  
HETATM   23  C   UNL     1     -10.179   7.848  69.312  1.00  0.00    -0.216 A  
HETATM   24  C   UNL     1      -9.082   7.886  70.159  1.00  0.00    -0.152 A  
HETATM   25  S   UNL     1      -8.312   9.419  70.038  1.00  0.00    -0.198 SA 
BRANCH  24  26
HETATM   26  C   UNL     1      -8.540   6.840  71.055  1.00  0.00    -0.136 A  
HETATM   27  C   UNL     1      -7.154   6.719  71.277  1.00  0.00    -0.075 A  
HETATM   28  C   UNL     1      -6.630   5.687  72.061  1.00  0.00    -0.058 A  
HETATM   29  C   UNL     1      -7.487   4.752  72.621  1.00  0.00    -0.086 A  
HETATM   30  F   UNL     1      -6.981   3.746  73.347  1.00  0.00    -0.042 F  
HETATM   31  C   UNL     1      -8.857   4.845  72.429  1.00  0.00    -0.130 A  
HETATM   32  C   UNL     1      -9.384   5.885  71.652  1.00  0.00    -0.162 A  
ENDBRANCH  24  26
ENDBRANCH  20  21
ENDBRANCH  16  20
ENDBRANCH   1  13
BRANCH   4  33
HETATM   33  C   UNL     1      -9.342  19.386  67.128  1.00  0.00    -0.320 C  
HETATM   34  O   UNL     1     -10.471  18.864  66.421  1.00  0.00    -0.404 OA 
HETATM   35  H   UNL     1     -10.792  19.509  65.803  1.00  0.00     0.000 HD 
ENDBRANCH   4  33
TORSDOF 5
ENDMDL
MODEL      195
REMARK 921   NORMALIZED FREE ENERGY PREDICTED BY IDOCK:   -3.05 KCAL/MOL
REMARK 922        TOTAL FREE ENERGY PREDICTED BY IDOCK:   -4.54 KCAL/MOL
REMARK 923 INTER-LIGAND FREE ENERGY PREDICTED BY IDOCK:   -5.90 KCAL/MOL
REMARK 924 INTRA-LIGAND FREE ENERGY PREDICTED BY IDOCK:    1.37 KCAL/MOL
REMARK 927      BINDING AFFINITY PREDICTED BY RF-SCORE:    0.00 PKD
ROOT
HETATM    1  C   UNL     1     -10.197   7.620  68.426  1.00  0.00    -0.198 C  
HETATM    2  O   UNL     1     -10.385   7.435  69.845  1.00  0.00    -0.207 OA 
HETATM    3  H   UNL     1      -8.507   6.090  66.070  1.00  0.00     0.000 HD 
HETATM    4  C   UNL     1     -10.869   6.132  70.180  1.00  0.00    -0.329 C  
HETATM    5  O   UNL     1      -9.133   6.712  66.420  1.00  0.00    -0.147 OA 
HETATM    6  C   UNL     1      -9.848   5.060  69.772  1.00  0.00    -0.216 C  
HETATM    7  H   UNL     1      -8.391   4.304  66.966  1.00  0.00     0.000 HD 
HETATM    8  O   UNL     1      -8.559   4.234  67.898  1.00  0.00    -0.097 OA 
HETATM    9  O   UNL     1     -10.313   3.724  70.014  1.00  0.00     0.428 OA 
HETATM   10  C   UNL     1      -9.579   5.174  68.270  1.00  0.00    -0.135 C  
HETATM   11  H   UNL     1      -9.681   3.061  69.762  1.00  0.00     0.000 HD 
HETATM   12  C   UNL     1      -9.178   6.606  67.855  1.00  0.00    -0.111 C  
ENDROOT
BRANCH   1  13
HETATM   13  C   UNL     1      -9.808   9.072  68.165  1.00  0.00    -0.191 A  
HETATM   14  C   UNL     1      -9.253  11.824  67.722  1.00  0.00    -0.181 A  
HETATM   15  C   UNL     1      -9.025  13.306  67.582  1.00  0.00    -0.199 C  
HETATM   16  C   UNL     1      -9.917  11.077  66.729  1.00  0.00    -0.240 A  
HETATM   17  C   UNL     1      -9.129   9.830  69.124  1.00  0.00    -0.166 A  
HETATM   18  C   UNL     1      -8.856  11.183  68.905  1.00  0.00    -0.086 A  
HETATM   19  C   UNL     1     -10.159   9.703  66.955  1.00  0.00    -0.275 A  
BRANCH  16  20
HETATM   20  C   UNL     1     -10.489  11.731  65.484  1.00  0.00    -0.311 C  
BRANCH  20  21
HETATM   21  C   UNL     1     -10.864  13.186  65.564  1.00  0.00    -0.283 A  
HETATM   22  C   UNL     1     -11.999  13.807  66.044  1.00  0.00    -0.443 A  
HETATM   23  C   UNL     1     -11.819  15.223  66.190  1.00  0.00     0.214 A  
HETATM   24  C   UNL     1     -10.550  15.647  65.830  1.00  0.00    -0.361 A  
HETATM   25  S   UNL     1      -9.691  14.348  65.101  1.00  0.00     0.260 SA 
BRANCH  24  26
HETATM   26  C   UNL     1      -9.906  16.969  66.009  1.00  0.00    -0.263 A  
HETATM   27  C   UNL     1      -8.506  17.089  66.098  1.00  0.00    -0.262 A  
HETATM   28  C   UNL     1      -7.895  18.323  66.341  1.00  0.00    -0.290 A  
HETATM   29  C   UNL     1      -8.682  19.451  66.518  1.00  0.00    -0.351 A  
HETATM   30  F   UNL     1      -8.098  20.627  66.782  1.00  0.00    -0.320 F  
HETATM   31  C   UNL     1     -10.064  19.369  66.430  1.00  0.00    -0.532 A  
HETATM   32  C   UNL     1     -10.675  18.135  66.175  1.00  0.00    -0.164 A  
ENDBRANCH  24  26
ENDBRANCH  20  21
ENDBRANCH  16  20
ENDBRANCH   1  13
BRANCH   4  33
HETATM   33  C   UNL     1     -11.161   6.075  71.684  1.00  0.00    -0.275 C  
HETATM   34  O   UNL     1      -9.944   6.218  72.422  1.00  0.00    -0.172 OA 
HETATM   35  H   UNL     1     -10.124   6.183  73.354  1.00  0.00     0.000 HD 
ENDBRANCH   4  33
TORSDOF 5
ENDMDL
MODEL      196
REMARK 921   NORMALIZED FREE ENERGY PREDICTED BY IDOCK:   -3.01 KCAL/MOL
REMARK 922        TOTAL FREE ENERGY PREDICTED BY IDOCK:   -4.49 KCAL/MOL
REMARK 923 INTER-LIGAND FREE ENERGY PREDICTED BY IDOCK:   -3.59 KCAL/MOL
REMARK 924 INTRA-LIGAND FREE ENERGY PREDICTED BY IDOCK:   -0.89 KCAL/MOL
REMARK 927      BINDING AFFINITY PREDICTED BY RF-SCORE:    0.00 PKD
ROOT
HETATM    1  C   UNL     1     -11.257   8.194  71.480  1.00  0.00    -0.259 C  
HETATM    2  O   UNL     1     -10.386   7.055  71.309  1.00  0.00    -0.202 OA 
HETATM    3  H   UNL     1     -14.495   8.650  71.712  1.00  0.00     0.000 HD 
HETATM    4  C   UNL     1     -10.576   6.052  72.310  1.00  0.00    -0.216 C  
HETATM    5  O   UNL     1     -13.580   8.905  71.750  1.00  0.00    -0.371 OA 
HETATM    6  C   UNL     1     -11.998   5.479  72.233  1.00  0.00     0.106 C  
HETATM    7  H   UNL     1     -14.961   6.811  72.349  1.00  0.00     0.000 HD 
HETATM    8  O   UNL     1     -14.335   6.104  72.243  1.00  0.00    -0.113 OA 
HETATM    9  O   UNL     1     -12.271   4.519  73.264  1.00  0.00    -0.177 OA 
HETATM   10  C   UNL     1     -13.004   6.619  72.404  1.00  0.00     0.278 C  
HETATM   11  H   UNL     1     -13.151   4.165  73.216  1.00  0.00     0.000 HD 
HETATM   12  C   UNL     1     -12.745   7.779  71.419  1.00  0.00    -0.308 C  
ENDROOT
BRANCH   1  13
HETATM   13  C   UNL     1     -10.888   9.256  70.448  1.00  0.00    -0.302 A  
HETATM   14  C   UNL     1     -10.175  11.099  68.407  1.00  0.00    -0.200 A  
HETATM   15  C   UNL     1      -9.859  12.011  67.250  1.00  0.00    -0.200 C  
HETATM   16  C   UNL     1      -9.167  10.400  69.099  1.00  0.00    -0.202 A  
HETATM   17  C   UNL     1     -11.868   9.980  69.763  1.00  0.00    -0.087 A  
HETATM   18  C   UNL     1     -11.516  10.888  68.759  1.00  0.00    -0.376 A  
HETATM   19  C   UNL     1      -9.539   9.509  70.130  1.00  0.00    -0.290 A  
BRANCH  16  20
HETATM   20  C   UNL     1      -7.708  10.482  68.685  1.00  0.00    -0.106 C  
BRANCH  20  21
HETATM   21  C   UNL     1      -6.723   9.609  69.413  1.00  0.00    -0.053 A  
HETATM   22  C   UNL     1      -5.889   9.873  70.480  1.00  0.00    -0.071 A  
HETATM   23  C   UNL     1      -5.326   8.676  71.035  1.00  0.00    -0.028 A  
HETATM   24  C   UNL     1      -5.751   7.526  70.387  1.00  0.00    -0.023 A  
HETATM   25  S   UNL     1      -6.634   7.952  68.974  1.00  0.00    -0.045 SA 
BRANCH  24  26
HETATM   26  C   UNL     1      -5.563   6.105  70.757  1.00  0.00    -0.018 A  
HETATM   27  C   UNL     1      -5.465   5.104  69.772  1.00  0.00    -0.011 A  
HETATM   28  C   UNL     1      -5.363   3.752  70.115  1.00  0.00    -0.008 A  
HETATM   29  C   UNL     1      -5.376   3.385  71.451  1.00  0.00    -0.004 A  
HETATM   30  F   UNL     1      -5.308   2.087  71.778  1.00  0.00    -0.003 F  
HETATM   31  C   UNL     1      -5.464   4.345  72.448  1.00  0.00    -0.004 A  
HETATM   32  C   UNL     1      -5.554   5.701  72.104  1.00  0.00    -0.022 A  
ENDBRANCH  24  26
ENDBRANCH  20  21
ENDBRANCH  16  20
ENDBRANCH   1  13
BRANCH   4  33
HETATM   33  C   UNL     1      -9.524   4.951  72.125  1.00  0.00    -0.145 C  
HETATM   34  O   UNL     1      -8.849   5.128  70.876  1.00  0.00    -0.129 OA 
HETATM   35  H   UNL     1      -8.198   4.447  70.761  1.00  0.00     0.000 HD 
ENDBRANCH   4  33
TORSDOF 5
ENDMDL
MODEL      197
REMARK 921   NORMALIZED FREE ENERGY PREDICTED BY IDOCK:   -2.99 KCAL/MOL
REMARK 922        TOTAL FREE ENERGY PREDICTED BY IDOCK:   -4.47 KCAL/MOL
REMARK 923 INTER-LIGAND FREE ENERGY PREDICTED BY IDOCK:   -3.21 KCAL/MOL
REMARK 924 INTRA-LIGAND FREE ENERGY PREDICTED BY IDOCK:   -1.26 KCAL/MOL
REMARK 927      BINDING AFFINITY PREDICTED BY RF-SCORE:    0.00 PKD
ROOT
HETATM    1  C   UNL     1      -8.445   2.820  68.172  1.00  0.00    -0.082 C  
HETATM    2  O   UNL     1      -9.182   3.821  68.908  1.00  0.00    -0.130 OA 
HETATM    3  H   UNL     1      -5.410   1.589  68.291  1.00  0.00     0.000 HD 
HETATM    4  C   UNL     1      -9.210   3.570  70.315  1.00  0.00    -0.155 C  
HETATM    5  O   UNL     1      -6.314   1.635  68.003  1.00  0.00    -0.024 OA 
HETATM    6  C   UNL     1      -7.790   3.614  70.897  1.00  0.00    -0.047 C  
HETATM    7  H   UNL     1      -5.034   2.036  70.205  1.00  0.00     0.000 HD 
HETATM    8  O   UNL     1      -5.573   2.677  70.653  1.00  0.00    -0.012 OA 
HETATM    9  O   UNL     1      -7.748   3.294  72.295  1.00  0.00    -0.056 OA 
HETATM   10  C   UNL     1      -6.924   2.580  70.175  1.00  0.00    -0.033 C  
HETATM   11  H   UNL     1      -6.870   3.322  72.655  1.00  0.00     0.000 HD 
HETATM   12  C   UNL     1      -6.974   2.743  68.641  1.00  0.00    -0.048 C  
ENDROOT
BRANCH   1  13
HETATM   13  C   UNL     1      -8.585   3.104  66.679  1.00  0.00    -0.120 A  
HETATM   14  C   UNL     1      -8.665   3.661  63.894  1.00  0.00    -0.095 A  
HETATM   15  C   UNL     1      -8.608   3.894  62.407  1.00  0.00    -0.082 C  
HETATM   16  C   UNL     1      -8.595   4.724  64.816  1.00  0.00    -0.146 A  
HETATM   17  C   UNL     1      -8.680   2.069  65.744  1.00  0.00    -0.119 A  
HETATM   18  C   UNL     1      -8.719   2.344  64.374  1.00  0.00    -0.100 A  
HETATM   19  C   UNL     1      -8.584   4.428  66.198  1.00  0.00    -0.113 A  
BRANCH  16  20
HETATM   20  C   UNL     1      -8.403   6.161  64.368  1.00  0.00     0.002 C  
BRANCH  20  21
HETATM   21  C   UNL     1      -7.881   7.147  65.376  1.00  0.00    -0.119 A  
HETATM   22  C   UNL     1      -6.592   7.485  65.735  1.00  0.00    -0.045 A  
HETATM   23  C   UNL     1      -6.547   8.675  66.534  1.00  0.00    -0.063 A  
HETATM   24  C   UNL     1      -7.800   9.224  66.758  1.00  0.00    -0.104 A  
HETATM   25  S   UNL     1      -9.013   8.147  66.189  1.00  0.00    -0.172 SA 
BRANCH  24  26
HETATM   26  C   UNL     1      -8.170  10.527  67.357  1.00  0.00    -0.118 A  
HETATM   27  C   UNL     1      -9.515  10.940  67.425  1.00  0.00    -0.170 A  
HETATM   28  C   UNL     1      -9.866  12.199  67.920  1.00  0.00    -0.199 A  
HETATM   29  C   UNL     1      -8.871  13.069  68.338  1.00  0.00    -0.123 A  
HETATM   30  F   UNL     1      -9.206  14.288  68.784  1.00  0.00    -0.190 F  
HETATM   31  C   UNL     1      -7.537  12.693  68.291  1.00  0.00    -0.133 A  
HETATM   32  C   UNL     1      -7.186  11.426  67.806  1.00  0.00    -0.089 A  
ENDBRANCH  24  26
ENDBRANCH  20  21
ENDBRANCH  16  20
ENDBRANCH   1  13
BRANCH   4  33
HETATM   33  C   UNL     1     -10.118   4.604  70.991  1.00  0.00    -0.175 C  
HETATM   34  O   UNL     1      -9.335   5.702  71.467  1.00  0.00    -0.146 OA 
HETATM   35  H   UNL     1      -9.898   6.343  71.886  1.00  0.00     0.000 HD 
ENDBRANCH   4  33
TORSDOF 5
ENDMDL
MODEL      198
REMARK 921   NORMALIZED FREE ENERGY PREDICTED BY IDOCK:   -2.80 KCAL/MOL
REMARK 922        TOTAL FREE ENERGY PREDICTED BY IDOCK:   -4.22 KCAL/MOL
REMARK 923 INTER-LIGAND FREE ENERGY PREDICTED BY IDOCK:   -3.82 KCAL/MOL
REMARK 924 INTRA-LIGAND FREE ENERGY PREDICTED BY IDOCK:   -0.40 KCAL/MOL
REMARK 927      BINDING AFFINITY PREDICTED BY RF-SCORE:    0.00 PKD
ROOT
HETATM    1  C   UNL     1      -9.472  14.351  67.426  1.00  0.00    -0.207 C  
HETATM    2  O   UNL     1      -9.999  14.903  66.201  1.00  0.00    -0.270 OA 
HETATM    3  H   UNL     1      -6.552  14.327  68.916  1.00  0.00     0.000 HD 
HETATM    4  C   UNL     1      -9.799  16.315  66.093  1.00  0.00    -0.334 C  
HETATM    5  O   UNL     1      -7.487  14.176  68.843  1.00  0.00    -0.123 OA 
HETATM    6  C   UNL     1      -8.300  16.643  66.064  1.00  0.00    -0.145 C  
HETATM    7  H   UNL     1      -5.819  15.978  68.056  1.00  0.00     0.000 HD 
HETATM    8  O   UNL     1      -6.227  16.319  67.269  1.00  0.00    -0.161 OA 
HETATM    9  O   UNL     1      -8.037  18.054  66.033  1.00  0.00    -0.483 OA 
HETATM   10  C   UNL     1      -7.644  16.094  67.332  1.00  0.00    -0.163 C  
HETATM   11  H   UNL     1      -7.109  18.258  66.014  1.00  0.00     0.000 HD 
HETATM   12  C   UNL     1      -7.949  14.596  67.546  1.00  0.00    -0.190 C  
ENDROOT
BRANCH   1  13
HETATM   13  C   UNL     1      -9.849  12.874  67.504  1.00  0.00    -0.208 A  
HETATM   14  C   UNL     1     -10.725  10.174  67.635  1.00  0.00    -0.339 A  
HETATM   15  C   UNL     1     -11.271   8.770  67.624  1.00  0.00     0.578 C  
HETATM   16  C   UNL     1     -10.776  10.982  68.789  1.00  0.00    -0.240 A  
HETATM   17  C   UNL     1      -9.786  12.045  66.380  1.00  0.00    -0.238 A  
HETATM   18  C   UNL     1     -10.218  10.716  66.446  1.00  0.00    -0.291 A  
HETATM   19  C   UNL     1     -10.309  12.314  68.711  1.00  0.00    -0.156 A  
BRANCH  16  20
HETATM   20  C   UNL     1     -11.431  10.504  70.072  1.00  0.00    -0.393 C  
BRANCH  20  21
HETATM   21  C   UNL     1     -10.986   9.183  70.639  1.00  0.00    -0.263 A  
HETATM   22  C   UNL     1     -11.708   8.102  71.100  1.00  0.00    -0.309 A  
HETATM   23  C   UNL     1     -10.886   6.942  71.285  1.00  0.00    -0.263 A  
HETATM   24  C   UNL     1      -9.558   7.160  70.951  1.00  0.00    -0.167 A  
HETATM   25  S   UNL     1      -9.306   8.834  70.647  1.00  0.00    -0.214 SA 
BRANCH  24  26
HETATM   26  C   UNL     1      -8.444   6.194  70.816  1.00  0.00    -0.131 A  
HETATM   27  C   UNL     1      -7.182   6.457  71.383  1.00  0.00    -0.079 A  
HETATM   28  C   UNL     1      -6.104   5.586  71.197  1.00  0.00    -0.033 A  
HETATM   29  C   UNL     1      -6.273   4.448  70.425  1.00  0.00    -0.019 A  
HETATM   30  F   UNL     1      -5.232   3.629  70.221  1.00  0.00    -0.003 F  
HETATM   31  C   UNL     1      -7.504   4.154  69.857  1.00  0.00    -0.049 A  
HETATM   32  C   UNL     1      -8.587   5.022  70.053  1.00  0.00    -0.111 A  
ENDBRANCH  24  26
ENDBRANCH  20  21
ENDBRANCH  16  20
ENDBRANCH   1  13
BRANCH   4  33
HETATM   33  C   UNL     1     -10.504  16.828  64.832  1.00  0.00     0.274 C  
HETATM   34  O   UNL     1     -11.862  17.160  65.134  1.00  0.00     0.910 OA 
HETATM   35  H   UNL     1     -12.299  17.478  64.352  1.00  0.00     0.000 HD 
ENDBRANCH   4  33
TORSDOF 5
ENDMDL
MODEL      199
REMARK 921   NORMALIZED FREE ENERGY PREDICTED BY IDOCK:   -2.66 KCAL/MOL
REMARK 922        TOTAL FREE ENERGY PREDICTED BY IDOCK:   -4.04 KCAL/MOL
REMARK 923 INTER-LIGAND FREE ENERGY PREDICTED BY IDOCK:   -4.37 KCAL/MOL
REMARK 924 INTRA-LIGAND FREE ENERGY PREDICTED BY IDOCK:    0.33 KCAL/MOL
REMARK 927      BINDING AFFINITY PREDICTED BY RF-SCORE:    0.00 PKD
ROOT
HETATM    1  C   UNL     1     -11.499  13.297  69.581  1.00  0.00    -0.198 C  
HETATM    2  O   UNL     1     -11.997  12.097  70.212  1.00  0.00    -0.348 OA 
HETATM    3  H   UNL     1     -12.484  16.417  69.379  1.00  0.00     0.000 HD 
HETATM    4  C   UNL     1     -12.200  12.249  71.619  1.00  0.00     0.562 C  
HETATM    5  O   UNL     1     -11.882  15.691  69.266  1.00  0.00    -0.353 OA 
HETATM    6  C   UNL     1     -13.269  13.316  71.895  1.00  0.00    -0.431 C  
HETATM    7  H   UNL     1     -13.594  16.436  71.044  1.00  0.00     0.000 HD 
HETATM    8  O   UNL     1     -13.866  15.616  71.438  1.00  0.00    -0.537 OA 
HETATM    9  O   UNL     1     -13.461  13.567  73.295  1.00  0.00    -0.363 OA 
HETATM   10  C   UNL     1     -12.830  14.637  71.260  1.00  0.00    -0.335 C  
HETATM   11  H   UNL     1     -14.123  14.226  73.466  1.00  0.00     0.000 HD 
HETATM   12  C   UNL     1     -12.478  14.479  69.765  1.00  0.00    -0.215 C  
ENDROOT
BRANCH   1  13
HETATM   13  C   UNL     1     -11.194  12.993  68.117  1.00  0.00    -0.305 A  
HETATM   14  C   UNL     1     -10.623  12.253  65.434  1.00  0.00    -0.309 A  
HETATM   15  C   UNL     1     -10.393  11.769  64.026  1.00  0.00    -0.401 C  
HETATM   16  C   UNL     1      -9.580  12.306  66.380  1.00  0.00    -0.242 A  
HETATM   17  C   UNL     1     -12.206  12.956  67.153  1.00  0.00    -0.131 A  
HETATM   18  C   UNL     1     -11.924  12.592  65.833  1.00  0.00    -0.497 A  
HETATM   19  C   UNL     1      -9.879  12.704  67.703  1.00  0.00    -0.210 A  
BRANCH  16  20
HETATM   20  C   UNL     1      -8.177  11.830  66.053  1.00  0.00     0.251 C  
BRANCH  20  21
HETATM   21  C   UNL     1      -8.032  10.676  65.098  1.00  0.00    -0.036 A  
HETATM   22  C   UNL     1      -7.631  10.633  63.779  1.00  0.00     0.173 A  
HETATM   23  C   UNL     1      -7.364   9.294  63.339  1.00  0.00    -0.096 A  
HETATM   24  C   UNL     1      -7.557   8.348  64.334  1.00  0.00    -0.115 A  
HETATM   25  S   UNL     1      -8.284   9.091  65.704  1.00  0.00    -0.126 SA 
BRANCH  24  26
HETATM   26  C   UNL     1      -7.216   6.907  64.351  1.00  0.00    -0.067 A  
HETATM   27  C   UNL     1      -7.408   6.101  63.212  1.00  0.00    -0.062 A  
HETATM   28  C   UNL     1      -7.159   4.726  63.244  1.00  0.00    -0.047 A  
HETATM   29  C   UNL     1      -6.730   4.137  64.423  1.00  0.00    -0.044 A  
HETATM   30  F   UNL     1      -6.521   2.814  64.461  1.00  0.00    -0.024 F  
HETATM   31  C   UNL     1      -6.524   4.902  65.561  1.00  0.00    -0.036 A  
HETATM   32  C   UNL     1      -6.763   6.282  65.526  1.00  0.00    -0.048 A  
ENDBRANCH  24  26
ENDBRANCH  20  21
ENDBRANCH  16  20
ENDBRANCH   1  13
BRANCH   4  33
HETATM   33  C   UNL     1     -12.600  10.896  72.218  1.00  0.00     0.547 C  
HETATM   34  O   UNL     1     -12.539   9.881  71.212  1.00  0.00    -0.327 OA 
HETATM   35  H   UNL     1     -12.787   9.042  71.583  1.00  0.00     0.000 HD 
ENDBRANCH   4  33
TORSDOF 5
ENDMDL
MODEL      200
REMARK 921   NORMALIZED FREE ENERGY PREDICTED BY IDOCK:   -2.46 KCAL/MOL
REMARK 922        TOTAL FREE ENERGY PREDICTED BY IDOCK:   -3.77 KCAL/MOL
REMARK 923 INTER-LIGAND FREE ENERGY PREDICTED BY IDOCK:   -3.72 KCAL/MOL
REMARK 924 INTRA-LIGAND FREE ENERGY PREDICTED BY IDOCK:   -0.05 KCAL/MOL
REMARK 927      BINDING AFFINITY PREDICTED BY RF-SCORE:    0.00 PKD
ROOT
HETATM    1  C   UNL     1      -8.189  12.837  69.151  1.00  0.00     0.566 C  
HETATM    2  O   UNL     1      -9.168  13.895  69.062  1.00  0.00     0.016 OA 
HETATM    3  H   UNL     1      -4.998  12.538  68.462  1.00  0.00     0.000 HD 
HETATM    4  C   UNL     1      -8.782  15.074  69.771  1.00  0.00     0.129 C  
HETATM    5  O   UNL     1      -5.835  12.265  68.819  1.00  0.00    -0.053 OA 
HETATM    6  C   UNL     1      -7.501  15.667  69.169  1.00  0.00    -0.201 C  
HETATM    7  H   UNL     1      -4.529  14.478  68.604  1.00  0.00     0.000 HD 
HETATM    8  O   UNL     1      -5.218  15.132  68.574  1.00  0.00    -0.090 OA 
HETATM    9  O   UNL     1      -7.022  16.813  69.889  1.00  0.00     0.049 OA 
HETATM   10  C   UNL     1      -6.393  14.614  69.217  1.00  0.00    -0.116 C  
HETATM   11  H   UNL     1      -6.230  17.181  69.516  1.00  0.00     0.000 HD 
HETATM   12  C   UNL     1      -6.826  13.280  68.571  1.00  0.00    -0.099 C  
ENDROOT
BRANCH   1  13
HETATM   13  C   UNL     1      -8.750  11.588  68.477  1.00  0.00    -0.138 A  
HETATM   14  C   UNL     1      -9.669   9.283  67.093  1.00  0.00    -0.225 A  
HETATM   15  C   UNL     1     -10.045   8.035  66.338  1.00  0.00    -0.174 C  
HETATM   16  C   UNL     1     -10.060  10.563  66.653  1.00  0.00    -0.275 A  
HETATM   17  C   UNL     1      -8.397  10.305  68.908  1.00  0.00    -0.136 A  
HETATM   18  C   UNL     1      -8.851   9.172  68.227  1.00  0.00    -0.129 A  
HETATM   19  C   UNL     1      -9.615  11.697  67.371  1.00  0.00    -0.173 A  
BRANCH  16  20
HETATM   20  C   UNL     1     -10.834  10.765  65.364  1.00  0.00    -0.062 C  
BRANCH  20  21
HETATM   21  C   UNL     1     -11.085  12.177  64.908  1.00  0.00    -0.319 A  
HETATM   22  C   UNL     1     -12.184  12.758  64.311  1.00  0.00    -0.499 A  
HETATM   23  C   UNL     1     -12.103  14.190  64.307  1.00  0.00    -0.471 A  
HETATM   24  C   UNL     1     -10.951  14.669  64.909  1.00  0.00    -0.407 A  
HETATM   25  S   UNL     1      -9.890  13.360  65.252  1.00  0.00    -0.001 SA 
BRANCH  24  26
HETATM   26  C   UNL     1     -10.579  16.055  65.277  1.00  0.00    -0.424 A  
HETATM   27  C   UNL     1      -9.535  16.310  66.187  1.00  0.00    -0.373 A  
HETATM   28  C   UNL     1      -9.228  17.611  66.596  1.00  0.00    -0.284 A  
HETATM   29  C   UNL     1      -9.976  18.673  66.112  1.00  0.00    -0.330 A  
HETATM   30  F   UNL     1      -9.701  19.917  66.528  1.00  0.00    -0.399 F  
HETATM   31  C   UNL     1     -11.007  18.458  65.209  1.00  0.00     0.664 A  
HETATM   32  C   UNL     1     -11.307  17.155  64.791  1.00  0.00     0.658 A  
ENDBRANCH  24  26
ENDBRANCH  20  21
ENDBRANCH  16  20
ENDBRANCH   1  13
BRANCH   4  33
HETATM   33  C   UNL     1      -9.934  16.085  69.729  1.00  0.00    -0.172 C  
HETATM   34  O   UNL     1     -10.931  15.650  68.800  1.00  0.00    -0.250 OA 
HETATM   35  H   UNL     1     -11.644  16.276  68.774  1.00  0.00     0.000 HD 
ENDBRANCH   4  33
TORSDOF 5
ENDMDL
MODEL      201
REMARK 921   NORMALIZED FREE ENERGY PREDICTED BY IDOCK:   -2.24 KCAL/MOL
REMARK 922        TOTAL FREE ENERGY PREDICTED BY IDOCK:   -3.49 KCAL/MOL
REMARK 923 INTER-LIGAND FREE ENERGY PREDICTED BY IDOCK:   -5.05 KCAL/MOL
REMARK 924 INTRA-LIGAND FREE ENERGY PREDICTED BY IDOCK:    1.56 KCAL/MOL
REMARK 927      BINDING AFFINITY PREDICTED BY RF-SCORE:    0.00 PKD
ROOT
HETATM    1  C   UNL     1      -8.099  15.725  68.561  1.00  0.00    -0.153 C  
HETATM    2  O   UNL     1      -8.585  16.802  67.730  1.00  0.00    -0.194 OA 
HETATM    3  H   UNL     1      -5.338  15.109  70.217  1.00  0.00     0.000 HD 
HETATM    4  C   UNL     1      -8.555  18.071  68.387  1.00  0.00    -0.290 C  
HETATM    5  O   UNL     1      -6.238  14.961  69.949  1.00  0.00    -0.127 OA 
HETATM    6  C   UNL     1      -7.112  18.460  68.738  1.00  0.00    -0.283 C  
HETATM    7  H   UNL     1      -4.748  17.009  70.432  1.00  0.00     0.000 HD 
HETATM    8  O   UNL     1      -5.126  17.684  69.882  1.00  0.00    -0.170 OA 
HETATM    9  O   UNL     1      -7.026  19.692  69.468  1.00  0.00    -0.347 OA 
HETATM   10  C   UNL     1      -6.503  17.371  69.624  1.00  0.00    -0.157 C  
HETATM   11  H   UNL     1      -6.133  19.933  69.685  1.00  0.00     0.000 HD 
HETATM   12  C   UNL     1      -6.636  15.966  68.998  1.00  0.00    -0.142 C  
ENDROOT
BRANCH   1  13
HETATM   13  C   UNL     1      -8.294  14.405  67.820  1.00  0.00    -0.172 A  
HETATM   14  C   UNL     1      -8.733  11.881  66.591  1.00  0.00    -0.185 A  
HETATM   15  C   UNL     1      -9.069  10.540  65.994  1.00  0.00    -0.191 C  
HETATM   16  C   UNL     1      -7.634  12.054  67.456  1.00  0.00    -0.147 A  
HETATM   17  C   UNL     1      -9.362  14.213  66.938  1.00  0.00    -0.274 A  
HETATM   18  C   UNL     1      -9.577  12.971  66.334  1.00  0.00    -0.258 A  
HETATM   19  C   UNL     1      -7.416  13.325  68.036  1.00  0.00    -0.138 A  
BRANCH  16  20
HETATM   20  C   UNL     1      -6.758  10.890  67.881  1.00  0.00    -0.064 C  
BRANCH  20  21
HETATM   21  C   UNL     1      -6.965   9.568  67.193  1.00  0.00    -0.085 A  
HETATM   22  C   UNL     1      -6.410   9.045  66.043  1.00  0.00    -0.064 A  
HETATM   23  C   UNL     1      -6.673   7.641  65.907  1.00  0.00    -0.046 A  
HETATM   24  C   UNL     1      -7.411   7.124  66.960  1.00  0.00    -0.097 A  
HETATM   25  S   UNL     1      -7.965   8.406  67.963  1.00  0.00    -0.120 SA 
BRANCH  24  26
HETATM   26  C   UNL     1      -7.726   5.716  67.295  1.00  0.00    -0.101 A  
HETATM   27  C   UNL     1      -7.265   4.656  66.491  1.00  0.00    -0.080 A  
HETATM   28  C   UNL     1      -7.620   3.331  66.759  1.00  0.00    -0.076 A  
HETATM   29  C   UNL     1      -8.457   3.052  67.827  1.00  0.00    -0.085 A  
HETATM   30  F   UNL     1      -8.822   1.785  68.065  1.00  0.00    -0.094 F  
HETATM   31  C   UNL     1      -8.924   4.071  68.645  1.00  0.00    -0.164 A  
HETATM   32  C   UNL     1      -8.559   5.398  68.383  1.00  0.00    -0.095 A  
ENDBRANCH  24  26
ENDBRANCH  20  21
ENDBRANCH  16  20
ENDBRANCH   1  13
BRANCH   4  33
HETATM   33  C   UNL     1      -9.207  19.122  67.481  1.00  0.00    -0.296 C  
HETATM   34  O   UNL     1      -9.789  20.158  68.277  1.00  0.00    -0.355 OA 
HETATM   35  H   UNL     1     -10.193  20.809  67.716  1.00  0.00     0.000 HD 
ENDBRANCH   4  33
TORSDOF 5
ENDMDL
MODEL      202
REMARK 921   NORMALIZED FREE ENERGY PREDICTED BY IDOCK:   -0.80 KCAL/MOL
REMARK 922        TOTAL FREE ENERGY PREDICTED BY IDOCK:   -1.64 KCAL/MOL
REMARK 923 INTER-LIGAND FREE ENERGY PREDICTED BY IDOCK:   -4.18 KCAL/MOL
REMARK 924 INTRA-LIGAND FREE ENERGY PREDICTED BY IDOCK:    2.54 KCAL/MOL
REMARK 927      BINDING AFFINITY PREDICTED BY RF-SCORE:    0.00 PKD
ROOT
HETATM    1  C   UNL     1      -8.736  14.055  66.707  1.00  0.00    -0.110 C  
HETATM    2  O   UNL     1      -8.364  15.383  67.139  1.00  0.00    -0.184 OA 
HETATM    3  H   UNL     1     -11.552  12.426  66.312  1.00  0.00     0.000 HD 
HETATM    4  C   UNL     1      -8.993  16.414  66.375  1.00  0.00    -0.305 C  
HETATM    5  O   UNL     1     -10.615  12.564  66.240  1.00  0.00    -0.243 OA 
HETATM    6  C   UNL     1     -10.517  16.354  66.543  1.00  0.00    -0.282 C  
HETATM    7  H   UNL     1     -12.734  14.023  66.078  1.00  0.00     0.000 HD 
HETATM    8  O   UNL     1     -12.426  14.880  66.347  1.00  0.00     0.050 OA 
HETATM    9  O   UNL     1     -11.208  17.321  65.738  1.00  0.00     0.225 OA 
HETATM   10  C   UNL     1     -11.013  14.974  66.109  1.00  0.00    -0.334 C  
HETATM   11  H   UNL     1     -12.151  17.284  65.843  1.00  0.00     0.000 HD 
HETATM   12  C   UNL     1     -10.261  13.831  66.824  1.00  0.00    -0.268 C  
ENDROOT
BRANCH   1  13
HETATM   13  C   UNL     1      -7.917  13.035  67.493  1.00  0.00    -0.177 A  
HETATM   14  C   UNL     1      -6.452  11.007  68.841  1.00  0.00    -0.054 A  
HETATM   15  C   UNL     1      -5.650   9.888  69.450  1.00  0.00    -0.034 C  
HETATM   16  C   UNL     1      -7.833  11.148  69.082  1.00  0.00    -0.065 A  
HETATM   17  C   UNL     1      -6.541  12.890  67.290  1.00  0.00    -0.047 A  
HETATM   18  C   UNL     1      -5.822  11.892  67.955  1.00  0.00    -0.054 A  
HETATM   19  C   UNL     1      -8.540  12.180  68.424  1.00  0.00    -0.141 A  
BRANCH  16  20
HETATM   20  C   UNL     1      -8.604  10.149  69.926  1.00  0.00    -0.100 C  
BRANCH  20  21
HETATM   21  C   UNL     1      -8.197   8.703  69.849  1.00  0.00    -0.121 A  
HETATM   22  C   UNL     1      -7.009   8.111  69.473  1.00  0.00    -0.050 A  
HETATM   23  C   UNL     1      -6.963   6.720  69.820  1.00  0.00    -0.063 A  
HETATM   24  C   UNL     1      -8.112   6.285  70.462  1.00  0.00    -0.113 A  
HETATM   25  S   UNL     1      -9.306   7.521  70.412  1.00  0.00    -0.160 SA 
BRANCH  24  26
HETATM   26  C   UNL     1      -8.388   4.999  71.142  1.00  0.00    -0.115 A  
HETATM   27  C   UNL     1      -9.698   4.492  71.236  1.00  0.00    -0.252 A  
HETATM   28  C   UNL     1      -9.976   3.317  71.941  1.00  0.00    -0.209 A  
HETATM   29  C   UNL     1      -8.945   2.643  72.576  1.00  0.00    -0.078 A  
HETATM   30  F   UNL     1      -9.217   1.534  73.278  1.00  0.00    -0.063 F  
HETATM   31  C   UNL     1      -7.641   3.110  72.498  1.00  0.00    -0.057 A  
HETATM   32  C   UNL     1      -7.362   4.281  71.782  1.00  0.00    -0.064 A  
ENDBRANCH  24  26
ENDBRANCH  20  21
ENDBRANCH  16  20
ENDBRANCH   1  13
BRANCH   4  33
HETATM   33  C   UNL     1      -8.440  17.775  66.817  1.00  0.00    -0.248 C  
HETATM   34  O   UNL     1      -8.877  18.795  65.914  1.00  0.00    -0.465 OA 
HETATM   35  H   UNL     1      -8.535  19.637  66.187  1.00  0.00     0.000 HD 
ENDBRANCH   4  33
TORSDOF 5
ENDMDL
MODEL      203
REMARK 921   NORMALIZED FREE ENERGY PREDICTED BY IDOCK:   -0.01 KCAL/MOL
REMARK 922        TOTAL FREE ENERGY PREDICTED BY IDOCK:   -0.61 KCAL/MOL
REMARK 923 INTER-LIGAND FREE ENERGY PREDICTED BY IDOCK:   -2.82 KCAL/MOL
REMARK 924 INTRA-LIGAND FREE ENERGY PREDICTED BY IDOCK:    2.22 KCAL/MOL
REMARK 927      BINDING AFFINITY PREDICTED BY RF-SCORE:    0.00 PKD
ROOT
HETATM    1  C   UNL     1      -8.571  14.762  68.713  1.00  0.00    -0.170 C  
HETATM    2  O   UNL     1      -9.200  15.499  67.643  1.00  0.00    -0.189 OA 
HETATM    3  H   UNL     1      -5.572  14.653  70.032  1.00  0.00     0.000 HD 
HETATM    4  C   UNL     1      -9.088  16.916  67.800  1.00  0.00    -0.229 C  
HETATM    5  O   UNL     1      -6.499  14.456  69.975  1.00  0.00    -0.151 OA 
HETATM    6  C   UNL     1      -7.615  17.345  67.765  1.00  0.00    -0.194 C  
HETATM    7  H   UNL     1      -4.987  16.483  69.473  1.00  0.00     0.000 HD 
HETATM    8  O   UNL     1      -5.459  16.939  68.787  1.00  0.00    -0.129 OA 
HETATM    9  O   UNL     1      -7.435  18.750  67.994  1.00  0.00    -0.241 OA 
HETATM   10  C   UNL     1      -6.855  16.610  68.871  1.00  0.00    -0.191 C  
HETATM   11  H   UNL     1      -6.524  19.016  67.972  1.00  0.00     0.000 HD 
HETATM   12  C   UNL     1      -7.061  15.082  68.806  1.00  0.00    -0.114 C  
ENDROOT
BRANCH   1  13
HETATM   13  C   UNL     1      -8.858  13.275  68.522  1.00  0.00    -0.055 A  
HETATM   14  C   UNL     1      -9.297  10.475  68.316  1.00  0.00    -0.156 A  
HETATM   15  C   UNL     1      -9.543   8.989  68.324  1.00  0.00    -0.158 C  
HETATM   16  C   UNL     1      -8.071  11.023  67.888  1.00  0.00    -0.114 A  
HETATM   17  C   UNL     1     -10.074  12.710  68.917  1.00  0.00     0.047 A  
HETATM   18  C   UNL     1     -10.289  11.332  68.815  1.00  0.00    -0.223 A  
HETATM   19  C   UNL     1      -7.882  12.421  67.972  1.00  0.00    -0.141 A  
BRANCH  16  20
HETATM   20  C   UNL     1      -6.908  10.146  67.460  1.00  0.00    -0.077 C  
BRANCH  20  21
HETATM   21  C   UNL     1      -7.140   9.171  66.338  1.00  0.00    -0.084 A  
HETATM   22  C   UNL     1      -6.274   8.632  65.409  1.00  0.00    -0.049 A  
HETATM   23  C   UNL     1      -6.857   7.528  64.703  1.00  0.00    -0.051 A  
HETATM   24  C   UNL     1      -8.149   7.243  65.116  1.00  0.00    -0.128 A  
HETATM   25  S   UNL     1      -8.700   8.473  66.184  1.00  0.00    -0.161 SA 
BRANCH  24  26
HETATM   26  C   UNL     1      -9.016   6.088  64.787  1.00  0.00     0.324 A  
HETATM   27  C   UNL     1      -8.903   5.423  63.551  1.00  0.00     0.161 A  
HETATM   28  C   UNL     1      -9.768   4.381  63.203  1.00  0.00    -0.012 A  
HETATM   29  C   UNL     1     -10.769   4.003  64.084  1.00  0.00    -0.163 A  
HETATM   30  F   UNL     1     -11.617   3.024  63.737  1.00  0.00     0.128 F  
HETATM   31  C   UNL     1     -10.904   4.631  65.313  1.00  0.00    -0.059 A  
HETATM   32  C   UNL     1     -10.030   5.668  65.666  1.00  0.00     0.244 A  
ENDBRANCH  24  26
ENDBRANCH  20  21
ENDBRANCH  16  20
ENDBRANCH   1  13
BRANCH   4  33
HETATM   33  C   UNL     1      -9.894  17.610  66.696  1.00  0.00    -0.309 C  
HETATM   34  O   UNL     1     -10.803  16.680  66.099  1.00  0.00    -0.179 OA 
HETATM   35  H   UNL     1     -11.303  17.109  65.415  1.00  0.00     0.000 HD 
ENDBRANCH   4  33
TORSDOF 5
ENDMDL
MODEL      204
REMARK 921   NORMALIZED FREE ENERGY PREDICTED BY IDOCK:    0.06 KCAL/MOL
REMARK 922        TOTAL FREE ENERGY PREDICTED BY IDOCK:   -0.52 KCAL/MOL
REMARK 923 INTER-LIGAND FREE ENERGY PREDICTED BY IDOCK:   -0.47 KCAL/MOL
REMARK 924 INTRA-LIGAND FREE ENERGY PREDICTED BY IDOCK:   -0.06 KCAL/MOL
REMARK 927      BINDING AFFINITY PREDICTED BY RF-SCORE:    0.00 PKD
ROOT
HETATM    1  C   UNL     1      -8.554   2.327  67.530  1.00  0.00    -0.104 C  
HETATM    2  O   UNL     1      -9.263   2.800  68.696  1.00  0.00    -0.147 OA 
HETATM    3  H   UNL     1      -5.416   2.192  66.594  1.00  0.00     0.000 HD 
HETATM    4  C   UNL     1      -8.803   2.200  69.910  1.00  0.00    -0.075 C  
HETATM    5  O   UNL     1      -6.346   2.007  66.533  1.00  0.00    -0.023 OA 
HETATM    6  C   UNL     1      -7.333   2.563  70.164  1.00  0.00    -0.040 C  
HETATM    7  H   UNL     1      -4.608   2.229  68.424  1.00  0.00     0.000 HD 
HETATM    8  O   UNL     1      -5.130   2.516  69.163  1.00  0.00    -0.010 OA 
HETATM    9  O   UNL     1      -6.793   1.926  71.332  1.00  0.00    -0.026 OA 
HETATM   10  C   UNL     1      -6.492   2.101  68.973  1.00  0.00    -0.029 C  
HETATM   11  H   UNL     1      -5.884   2.151  71.489  1.00  0.00     0.000 HD 
HETATM   12  C   UNL     1      -7.041   2.628  67.630  1.00  0.00    -0.049 C  
ENDROOT
BRANCH   1  13
HETATM   13  C   UNL     1      -9.203   2.924  66.284  1.00  0.00    -0.107 A  
HETATM   14  C   UNL     1     -10.273   4.151  63.955  1.00  0.00    -0.082 A  
HETATM   15  C   UNL     1     -10.730   4.806  62.678  1.00  0.00     0.622 C  
HETATM   16  C   UNL     1     -10.441   4.770  65.209  1.00  0.00    -0.031 A  
HETATM   17  C   UNL     1      -9.071   2.319  65.031  1.00  0.00    -0.125 A  
HETATM   18  C   UNL     1      -9.598   2.923  63.886  1.00  0.00    -0.130 A  
HETATM   19  C   UNL     1      -9.927   4.130  66.360  1.00  0.00    -0.177 A  
BRANCH  16  20
HETATM   20  C   UNL     1     -11.044   6.156  65.343  1.00  0.00     3.013 C  
BRANCH  20  21
HETATM   21  C   UNL     1     -10.658   6.977  66.544  1.00  0.00     0.062 A  
HETATM   22  C   UNL     1     -10.612   8.342  66.735  1.00  0.00    -0.227 A  
HETATM   23  C   UNL     1     -10.463   8.690  68.119  1.00  0.00    -0.241 A  
HETATM   24  C   UNL     1     -10.408   7.583  68.952  1.00  0.00    -0.211 A  
HETATM   25  S   UNL     1     -10.303   6.151  68.005  1.00  0.00    -0.226 SA 
BRANCH  24  26
HETATM   26  C   UNL     1     -10.450   7.507  70.430  1.00  0.00    -0.227 A  
HETATM   27  C   UNL     1      -9.324   7.840  71.208  1.00  0.00    -0.171 A  
HETATM   28  C   UNL     1      -9.332   7.699  72.599  1.00  0.00    -0.225 A  
HETATM   29  C   UNL     1     -10.465   7.205  73.227  1.00  0.00    -0.349 A  
HETATM   30  F   UNL     1     -10.461   7.041  74.557  1.00  0.00    -0.333 F  
HETATM   31  C   UNL     1     -11.594   6.874  72.493  1.00  0.00    -0.237 A  
HETATM   32  C   UNL     1     -11.589   7.026  71.100  1.00  0.00    -0.351 A  
ENDBRANCH  24  26
ENDBRANCH  20  21
ENDBRANCH  16  20
ENDBRANCH   1  13
BRANCH   4  33
HETATM   33  C   UNL     1      -9.696   2.660  71.068  1.00  0.00    -0.087 C  
HETATM   34  O   UNL     1      -9.392   4.017  71.407  1.00  0.00    -0.124 OA 
HETATM   35  H   UNL     1      -9.945   4.302  72.125  1.00  0.00     0.000 HD 
ENDBRANCH   4  33
TORSDOF 5
ENDMDL
MODEL      205
REMARK 921   NORMALIZED FREE ENERGY PREDICTED BY IDOCK:    0.21 KCAL/MOL
REMARK 922        TOTAL FREE ENERGY PREDICTED BY IDOCK:   -0.33 KCAL/MOL
REMARK 923 INTER-LIGAND FREE ENERGY PREDICTED BY IDOCK:    0.62 KCAL/MOL
REMARK 924 INTRA-LIGAND FREE ENERGY PREDICTED BY IDOCK:   -0.94 KCAL/MOL
REMARK 927      BINDING AFFINITY PREDICTED BY RF-SCORE:    0.00 PKD
ROOT
HETATM    1  C   UNL     1      -8.433   2.149  67.669  1.00  0.00    -0.078 C  
HETATM    2  O   UNL     1      -9.241   2.645  68.758  1.00  0.00    -0.137 OA 
HETATM    3  H   UNL     1      -5.233   2.110  66.958  1.00  0.00     0.000 HD 
HETATM    4  C   UNL     1      -8.843   2.126  70.030  1.00  0.00    -0.074 C  
HETATM    5  O   UNL     1      -6.148   1.880  66.843  1.00  0.00    -0.019 OA 
HETATM    6  C   UNL     1      -7.412   2.568  70.365  1.00  0.00    -0.039 C  
HETATM    7  H   UNL     1      -4.559   2.273  68.835  1.00  0.00     0.000 HD 
HETATM    8  O   UNL     1      -5.144   2.572  69.521  1.00  0.00    -0.006 OA 
HETATM    9  O   UNL     1      -6.929   2.014  71.598  1.00  0.00    -0.029 OA 
HETATM   10  C   UNL     1      -6.470   2.086  69.259  1.00  0.00    -0.029 C  
HETATM   11  H   UNL     1      -6.044   2.287  71.806  1.00  0.00     0.000 HD 
HETATM   12  C   UNL     1      -6.944   2.522  67.856  1.00  0.00    -0.048 C  
ENDROOT
BRANCH   1  13
HETATM   13  C   UNL     1      -9.017   2.654  66.353  1.00  0.00    -0.147 A  
HETATM   14  C   UNL     1      -9.958   3.701  63.885  1.00  0.00    -0.186 A  
HETATM   15  C   UNL     1     -10.346   4.252  62.538  1.00  0.00    -0.082 C  
HETATM   16  C   UNL     1     -10.126   4.446  65.069  1.00  0.00    -0.165 A  
HETATM   17  C   UNL     1      -8.884   1.924  65.167  1.00  0.00    -0.119 A  
HETATM   18  C   UNL     1      -9.348   2.440  63.954  1.00  0.00    -0.116 A  
HETATM   19  C   UNL     1      -9.677   3.897  66.291  1.00  0.00    -0.176 A  
BRANCH  16  20
HETATM   20  C   UNL     1     -10.658   5.868  65.051  1.00  0.00     2.438 C  
BRANCH  20  21
HETATM   21  C   UNL     1     -10.308   6.763  66.208  1.00  0.00     0.260 A  
HETATM   22  C   UNL     1      -9.088   7.136  66.733  1.00  0.00    -0.169 A  
HETATM   23  C   UNL     1      -9.207   8.227  67.656  1.00  0.00    -0.150 A  
HETATM   24  C   UNL     1     -10.512   8.669  67.807  1.00  0.00    -0.224 A  
HETATM   25  S   UNL     1     -11.584   7.591  67.003  1.00  0.00     2.414 SA 
BRANCH  24  26
HETATM   26  C   UNL     1     -11.032   9.869  68.500  1.00  0.00    -0.226 A  
HETATM   27  C   UNL     1     -11.236  11.078  67.807  1.00  0.00    -0.374 A  
HETATM   28  C   UNL     1     -11.656  12.235  68.470  1.00  0.00    -0.359 A  
HETATM   29  C   UNL     1     -11.859  12.201  69.841  1.00  0.00    -0.319 A  
HETATM   30  F   UNL     1     -12.231  13.318  70.481  1.00  0.00    -0.386 F  
HETATM   31  C   UNL     1     -11.674  11.025  70.554  1.00  0.00    -0.416 A  
HETATM   32  C   UNL     1     -11.264   9.863  69.887  1.00  0.00    -0.298 A  
ENDBRANCH  24  26
ENDBRANCH  20  21
ENDBRANCH  16  20
ENDBRANCH   1  13
BRANCH   4  33
HETATM   33  C   UNL     1      -9.834   2.602  71.099  1.00  0.00    -0.022 C  
HETATM   34  O   UNL     1      -9.835   1.691  72.202  1.00  0.00    -0.101 OA 
HETATM   35  H   UNL     1     -10.449   1.985  72.864  1.00  0.00     0.000 HD 
ENDBRANCH   4  33
TORSDOF 5
ENDMDL
MODEL      206
REMARK 921   NORMALIZED FREE ENERGY PREDICTED BY IDOCK:    0.25 KCAL/MOL
REMARK 922        TOTAL FREE ENERGY PREDICTED BY IDOCK:   -0.27 KCAL/MOL
REMARK 923 INTER-LIGAND FREE ENERGY PREDICTED BY IDOCK:    0.88 KCAL/MOL
REMARK 924 INTRA-LIGAND FREE ENERGY PREDICTED BY IDOCK:   -1.15 KCAL/MOL
REMARK 927      BINDING AFFINITY PREDICTED BY RF-SCORE:    0.00 PKD
ROOT
HETATM    1  C   UNL     1     -12.174  15.314  67.284  1.00  0.00     0.571 C  
HETATM    2  O   UNL     1     -12.309  13.993  66.718  1.00  0.00    -0.439 OA 
HETATM    3  H   UNL     1     -10.534  18.041  66.494  1.00  0.00     0.000 HD 
HETATM    4  C   UNL     1     -12.754  14.010  65.360  1.00  0.00    -0.471 C  
HETATM    5  O   UNL     1     -11.161  17.519  66.981  1.00  0.00    -0.012 OA 
HETATM    6  C   UNL     1     -11.726  14.720  64.467  1.00  0.00    -0.391 C  
HETATM    7  H   UNL     1     -10.351  17.664  64.537  1.00  0.00     0.000 HD 
HETATM    8  O   UNL     1     -10.485  16.781  64.213  1.00  0.00     0.240 OA 
HETATM    9  O   UNL     1     -12.155  14.834  63.102  1.00  0.00    -0.237 OA 
HETATM   10  C   UNL     1     -11.511  16.141  64.989  1.00  0.00     0.013 C  
HETATM   11  H   UNL     1     -11.519  15.273  62.550  1.00  0.00     0.000 HD 
HETATM   12  C   UNL     1     -11.154  16.165  66.491  1.00  0.00     0.068 C  
ENDROOT
BRANCH   1  13
HETATM   13  C   UNL     1     -11.824  15.184  68.763  1.00  0.00    -0.329 A  
HETATM   14  C   UNL     1     -11.150  15.120  71.523  1.00  0.00    -0.218 A  
HETATM   15  C   UNL     1     -10.856  15.184  72.999  1.00  0.00     1.558 C  
HETATM   16  C   UNL     1     -10.129  15.214  70.557  1.00  0.00     0.274 A  
HETATM   17  C   UNL     1     -12.817  15.066  69.741  1.00  0.00     0.050 A  
HETATM   18  C   UNL     1     -12.484  15.034  71.098  1.00  0.00    -0.400 A  
HETATM   19  C   UNL     1     -10.481  15.216  69.189  1.00  0.00    -0.252 A  
BRANCH  16  20
HETATM   20  C   UNL     1      -8.679  15.440  70.945  1.00  0.00     2.463 C  
BRANCH  20  21
HETATM   21  C   UNL     1      -7.732  15.916  69.877  1.00  0.00     0.335 A  
HETATM   22  C   UNL     1      -6.741  15.256  69.181  1.00  0.00    -0.135 A  
HETATM   23  C   UNL     1      -6.275  16.013  68.055  1.00  0.00    -0.138 A  
HETATM   24  C   UNL     1      -6.928  17.227  67.912  1.00  0.00    -0.166 A  
HETATM   25  S   UNL     1      -7.921  17.515  69.285  1.00  0.00     0.289 SA 
BRANCH  24  26
HETATM   26  C   UNL     1      -6.884  18.201  66.797  1.00  0.00    -0.223 A  
HETATM   27  C   UNL     1      -6.205  17.904  65.599  1.00  0.00    -0.210 A  
HETATM   28  C   UNL     1      -6.096  18.846  64.572  1.00  0.00    -0.131 A  
HETATM   29  C   UNL     1      -6.651  20.106  64.739  1.00  0.00    -0.227 A  
HETATM   30  F   UNL     1      -6.519  21.018  63.767  1.00  0.00    -0.335 F  
HETATM   31  C   UNL     1      -7.332  20.429  65.903  1.00  0.00    -0.178 A  
HETATM   32  C   UNL     1      -7.451  19.481  66.928  1.00  0.00    -0.251 A  
ENDBRANCH  24  26
ENDBRANCH  20  21
ENDBRANCH  16  20
ENDBRANCH   1  13
BRANCH   4  33
HETATM   33  C   UNL     1     -12.993  12.569  64.891  1.00  0.00     0.069 C  
HETATM   34  O   UNL     1     -11.741  11.912  64.679  1.00  0.00    -0.308 OA 
HETATM   35  H   UNL     1     -11.888  11.019  64.389  1.00  0.00     0.000 HD 
ENDBRANCH   4  33
TORSDOF 5
ENDMDL
MODEL      207
REMARK 921   NORMALIZED FREE ENERGY PREDICTED BY IDOCK:    0.30 KCAL/MOL
REMARK 922        TOTAL FREE ENERGY PREDICTED BY IDOCK:   -0.22 KCAL/MOL
REMARK 923 INTER-LIGAND FREE ENERGY PREDICTED BY IDOCK:   -0.94 KCAL/MOL
REMARK 924 INTRA-LIGAND FREE ENERGY PREDICTED BY IDOCK:    0.72 KCAL/MOL
REMARK 927      BINDING AFFINITY PREDICTED BY RF-SCORE:    0.00 PKD
ROOT
HETATM    1  C   UNL     1     -11.340   7.879  71.376  1.00  0.00    -0.252 C  
HETATM    2  O   UNL     1     -10.464   6.741  71.230  1.00  0.00    -0.211 OA 
HETATM    3  H   UNL     1     -14.580   8.323  71.605  1.00  0.00     0.000 HD 
HETATM    4  C   UNL     1     -10.646   5.761  72.254  1.00  0.00    -0.218 C  
HETATM    5  O   UNL     1     -13.667   8.583  71.635  1.00  0.00    -0.365 OA 
HETATM    6  C   UNL     1     -12.065   5.179  72.194  1.00  0.00     0.844 C  
HETATM    7  H   UNL     1     -15.035   6.497  72.286  1.00  0.00     0.000 HD 
HETATM    8  O   UNL     1     -14.406   5.791  72.195  1.00  0.00     0.314 OA 
HETATM    9  O   UNL     1     -12.331   4.242  73.248  1.00  0.00     0.078 OA 
HETATM   10  C   UNL     1     -13.077   6.317  72.340  1.00  0.00     0.424 C  
HETATM   11  H   UNL     1     -13.209   3.881  73.210  1.00  0.00     0.000 HD 
HETATM   12  C   UNL     1     -12.827   7.455  71.329  1.00  0.00    -0.321 C  
ENDROOT
BRANCH   1  13
HETATM   13  C   UNL     1     -10.979   8.919  70.319  1.00  0.00    -0.266 A  
HETATM   14  C   UNL     1     -10.287  10.718  68.232  1.00  0.00    -0.195 A  
HETATM   15  C   UNL     1      -9.985  11.606  67.053  1.00  0.00    -0.226 C  
HETATM   16  C   UNL     1      -9.273  10.011  68.908  1.00  0.00    -0.169 A  
HETATM   17  C   UNL     1     -11.964   9.651  69.648  1.00  0.00     0.324 A  
HETATM   18  C   UNL     1     -11.622  10.536  68.622  1.00  0.00    -0.241 A  
HETATM   19  C   UNL     1      -9.635   9.142  69.962  1.00  0.00    -0.218 A  
BRANCH  16  20
HETATM   20  C   UNL     1      -7.825  10.060  68.456  1.00  0.00    -0.093 C  
BRANCH  20  21
HETATM   21  C   UNL     1      -7.307  11.357  67.897  1.00  0.00    -0.093 A  
HETATM   22  C   UNL     1      -7.100  11.768  66.596  1.00  0.00     0.026 A  
HETATM   23  C   UNL     1      -6.864  13.180  66.507  1.00  0.00     1.920 A  
HETATM   24  C   UNL     1      -6.908  13.815  67.738  1.00  0.00    -0.173 A  
HETATM   25  S   UNL     1      -6.999  12.642  68.991  1.00  0.00    -0.016 SA 
BRANCH  24  26
HETATM   26  C   UNL     1      -6.908  15.261  68.058  1.00  0.00    -0.152 A  
HETATM   27  C   UNL     1      -6.336  15.741  69.252  1.00  0.00    -0.147 A  
HETATM   28  C   UNL     1      -6.399  17.094  69.597  1.00  0.00    -0.209 A  
HETATM   29  C   UNL     1      -7.052  17.983  68.757  1.00  0.00    -0.276 A  
HETATM   30  F   UNL     1      -7.138  19.274  69.103  1.00  0.00    -0.338 F  
HETATM   31  C   UNL     1      -7.621  17.545  67.570  1.00  0.00    -0.209 A  
HETATM   32  C   UNL     1      -7.548  16.191  67.219  1.00  0.00    -0.217 A  
ENDBRANCH  24  26
ENDBRANCH  20  21
ENDBRANCH  16  20
ENDBRANCH   1  13
BRANCH   4  33
HETATM   33  C   UNL     1      -9.589   4.662  72.092  1.00  0.00    -0.151 C  
HETATM   34  O   UNL     1     -10.123   3.583  71.319  1.00  0.00    -0.114 OA 
HETATM   35  H   UNL     1      -9.468   2.902  71.219  1.00  0.00     0.000 HD 
ENDBRANCH   4  33
TORSDOF 5
ENDMDL
MODEL      208
REMARK 921   NORMALIZED FREE ENERGY PREDICTED BY IDOCK:    1.46 KCAL/MOL
REMARK 922        TOTAL FREE ENERGY PREDICTED BY IDOCK:    1.29 KCAL/MOL
REMARK 923 INTER-LIGAND FREE ENERGY PREDICTED BY IDOCK:   -0.68 KCAL/MOL
REMARK 924 INTRA-LIGAND FREE ENERGY PREDICTED BY IDOCK:    1.97 KCAL/MOL
REMARK 927      BINDING AFFINITY PREDICTED BY RF-SCORE:    0.00 PKD
ROOT
HETATM    1  C   UNL     1     -10.215  15.758  67.808  1.00  0.00    -0.251 C  
HETATM    2  O   UNL     1     -10.247  16.530  66.588  1.00  0.00    -0.283 OA 
HETATM    3  H   UNL     1      -9.090  16.234  70.850  1.00  0.00     0.000 HD 
HETATM    4  C   UNL     1     -10.877  17.803  66.750  1.00  0.00    -0.010 C  
HETATM    5  O   UNL     1      -9.565  15.779  70.165  1.00  0.00    -0.045 OA 
HETATM    6  C   UNL     1     -10.092  18.667  67.746  1.00  0.00    -0.371 C  
HETATM    7  H   UNL     1      -9.135  18.235  70.822  1.00  0.00     0.000 HD 
HETATM    8  O   UNL     1      -9.192  18.693  69.992  1.00  0.00     1.041 OA 
HETATM    9  O   UNL     1     -10.720  19.932  68.006  1.00  0.00    -0.340 OA 
HETATM   10  C   UNL     1     -10.001  17.929  69.083  1.00  0.00    -0.195 C  
HETATM   11  H   UNL     1     -10.234  20.467  68.622  1.00  0.00     0.000 HD 
HETATM   12  C   UNL     1      -9.443  16.499  68.924  1.00  0.00    -0.260 C  
ENDROOT
BRANCH   1  13
HETATM   13  C   UNL     1      -9.645  14.376  67.502  1.00  0.00    -0.215 A  
HETATM   14  C   UNL     1      -8.452  11.883  66.839  1.00  0.00    -0.174 A  
HETATM   15  C   UNL     1      -7.716  10.612  66.506  1.00  0.00    -0.137 C  
HETATM   16  C   UNL     1      -9.252  12.549  65.888  1.00  0.00     0.044 A  
HETATM   17  C   UNL     1      -8.868  13.682  68.435  1.00  0.00    -0.152 A  
HETATM   18  C   UNL     1      -8.282  12.456  68.108  1.00  0.00    -0.173 A  
HETATM   19  C   UNL     1      -9.860  13.774  66.246  1.00  0.00    -0.314 A  
BRANCH  16  20
HETATM   20  C   UNL     1      -9.374  12.055  64.459  1.00  0.00     0.244 C  
BRANCH  20  21
HETATM   21  C   UNL     1      -9.181  10.585  64.205  1.00  0.00    -0.249 A  
HETATM   22  C   UNL     1      -8.364   9.915  63.317  1.00  0.00    -0.169 A  
HETATM   23  C   UNL     1      -8.286   8.512  63.607  1.00  0.00    -0.084 A  
HETATM   24  C   UNL     1      -9.036   8.146  64.714  1.00  0.00     0.594 A  
HETATM   25  S   UNL     1     -10.000   9.475  65.226  1.00  0.00     0.238 SA 
BRANCH  24  26
HETATM   26  C   UNL     1      -9.076   6.860  65.448  1.00  0.00     0.279 A  
HETATM   27  C   UNL     1      -9.436   5.663  64.799  1.00  0.00     0.603 A  
HETATM   28  C   UNL     1      -9.548   4.460  65.502  1.00  0.00    -0.188 A  
HETATM   29  C   UNL     1      -9.319   4.444  66.869  1.00  0.00    -0.153 A  
HETATM   30  F   UNL     1      -9.457   3.296  67.547  1.00  0.00    -0.203 F  
HETATM   31  C   UNL     1      -8.956   5.603  67.538  1.00  0.00    -0.107 A  
HETATM   32  C   UNL     1      -8.833   6.807  66.832  1.00  0.00    -0.120 A  
ENDBRANCH  24  26
ENDBRANCH  20  21
ENDBRANCH  16  20
ENDBRANCH   1  13
BRANCH   4  33
HETATM   33  C   UNL     1     -10.981  18.489  65.382  1.00  0.00     0.502 C  
HETATM   34  O   UNL     1     -11.573  17.597  64.434  1.00  0.00    -0.032 OA 
HETATM   35  H   UNL     1     -11.638  18.022  63.587  1.00  0.00     0.000 HD 
ENDBRANCH   4  33
TORSDOF 5
ENDMDL
MODEL      209
REMARK 921   NORMALIZED FREE ENERGY PREDICTED BY IDOCK:    2.18 KCAL/MOL
REMARK 922        TOTAL FREE ENERGY PREDICTED BY IDOCK:    2.22 KCAL/MOL
REMARK 923 INTER-LIGAND FREE ENERGY PREDICTED BY IDOCK:   -0.66 KCAL/MOL
REMARK 924 INTRA-LIGAND FREE ENERGY PREDICTED BY IDOCK:    2.88 KCAL/MOL
REMARK 927      BINDING AFFINITY PREDICTED BY RF-SCORE:    0.00 PKD
ROOT
HETATM    1  C   UNL     1      -8.359  17.288  68.533  1.00  0.00    -0.267 C  
HETATM    2  O   UNL     1      -8.246  17.875  67.219  1.00  0.00    -0.212 OA 
HETATM    3  H   UNL     1      -6.407  17.019  71.153  1.00  0.00     0.000 HD 
HETATM    4  C   UNL     1      -7.904  19.263  67.255  1.00  0.00    -0.254 C  
HETATM    5  O   UNL     1      -7.223  16.951  70.672  1.00  0.00     1.985 OA 
HETATM    6  C   UNL     1      -6.524  19.459  67.898  1.00  0.00    -0.227 C  
HETATM    7  H   UNL     1      -5.238  18.594  70.755  1.00  0.00     0.000 HD 
HETATM    8  O   UNL     1      -5.228  18.964  69.881  1.00  0.00    -0.194 OA 
HETATM    9  O   UNL     1      -6.159  20.841  68.031  1.00  0.00    -0.271 OA 
HETATM   10  C   UNL     1      -6.541  18.863  69.307  1.00  0.00    -0.283 C  
HETATM   11  H   UNL     1      -5.306  20.962  68.428  1.00  0.00     0.000 HD 
HETATM   12  C   UNL     1      -7.031  17.399  69.317  1.00  0.00    -0.175 C  
ENDROOT
BRANCH   1  13
HETATM   13  C   UNL     1      -8.852  15.850  68.390  1.00  0.00    -0.184 A  
HETATM   14  C   UNL     1      -9.708  13.143  68.290  1.00  0.00    -0.223 A  
HETATM   15  C   UNL     1     -10.197  11.719  68.349  1.00  0.00    -0.208 C  
HETATM   16  C   UNL     1      -8.352  13.454  68.069  1.00  0.00    -0.165 A  
HETATM   17  C   UNL     1     -10.196  15.517  68.581  1.00  0.00    -0.216 A  
HETATM   18  C   UNL     1     -10.616  14.184  68.531  1.00  0.00    -0.257 A  
HETATM   19  C   UNL     1      -7.950  14.809  68.095  1.00  0.00    -0.129 A  
BRANCH  16  20
HETATM   20  C   UNL     1      -7.295  12.374  67.931  1.00  0.00    -0.112 C  
BRANCH  20  21
HETATM   21  C   UNL     1      -7.584  11.222  67.009  1.00  0.00    -0.143 A  
HETATM   22  C   UNL     1      -6.825  10.641  66.014  1.00  0.00    -0.129 A  
HETATM   23  C   UNL     1      -7.372   9.388  65.578  1.00  0.00    -0.088 A  
HETATM   24  C   UNL     1      -8.528   9.037  66.257  1.00  0.00    -0.125 A  
HETATM   25  S   UNL     1      -9.045  10.352  67.238  1.00  0.00    -0.134 SA 
BRANCH  24  26
HETATM   26  C   UNL     1      -9.283   7.763  66.248  1.00  0.00    -0.217 A  
HETATM   27  C   UNL     1      -8.644   6.542  65.957  1.00  0.00    -0.150 A  
HETATM   28  C   UNL     1      -9.364   5.346  65.873  1.00  0.00    -0.155 A  
HETATM   29  C   UNL     1     -10.737   5.361  66.062  1.00  0.00    -0.007 A  
HETATM   30  F   UNL     1     -11.430   4.219  65.951  1.00  0.00     0.446 F  
HETATM   31  C   UNL     1     -11.397   6.545  66.358  1.00  0.00     0.881 A  
HETATM   32  C   UNL     1     -10.674   7.741  66.453  1.00  0.00     0.645 A  
ENDBRANCH  24  26
ENDBRANCH  20  21
ENDBRANCH  16  20
ENDBRANCH   1  13
BRANCH   4  33
HETATM   33  C   UNL     1      -7.936  19.826  65.830  1.00  0.00    -0.180 C  
HETATM   34  O   UNL     1      -9.242  19.658  65.269  1.00  0.00     0.093 OA 
HETATM   35  H   UNL     1      -9.262  20.007  64.386  1.00  0.00     0.000 HD 
ENDBRANCH   4  33
TORSDOF 5
ENDMDL
MODEL      210
REMARK 921   NORMALIZED FREE ENERGY PREDICTED BY IDOCK:    2.57 KCAL/MOL
REMARK 922        TOTAL FREE ENERGY PREDICTED BY IDOCK:    2.72 KCAL/MOL
REMARK 923 INTER-LIGAND FREE ENERGY PREDICTED BY IDOCK:    2.52 KCAL/MOL
REMARK 924 INTRA-LIGAND FREE ENERGY PREDICTED BY IDOCK:    0.20 KCAL/MOL
REMARK 927      BINDING AFFINITY PREDICTED BY RF-SCORE:    0.00 PKD
ROOT
HETATM    1  C   UNL     1      -9.597  17.260  69.631  1.00  0.00     0.477 C  
HETATM    2  O   UNL     1     -10.235  17.269  68.336  1.00  0.00    -0.313 OA 
HETATM    3  H   UNL     1      -6.745  16.174  70.828  1.00  0.00     0.000 HD 
HETATM    4  C   UNL     1      -9.438  17.891  67.325  1.00  0.00    -0.263 C  
HETATM    5  O   UNL     1      -7.571  16.643  70.852  1.00  0.00     3.233 OA 
HETATM    6  C   UNL     1      -8.131  17.113  67.119  1.00  0.00    -0.191 C  
HETATM    7  H   UNL     1      -5.725  16.202  69.107  1.00  0.00     0.000 HD 
HETATM    8  O   UNL     1      -6.195  16.244  68.282  1.00  0.00    -0.113 OA 
HETATM    9  O   UNL     1      -7.253  17.734  66.167  1.00  0.00    -0.268 OA 
HETATM   10  C   UNL     1      -7.375  17.046  68.447  1.00  0.00    -0.213 C  
HETATM   11  H   UNL     1      -6.445  17.252  66.039  1.00  0.00     0.000 HD 
HETATM   12  C   UNL     1      -8.252  16.497  69.592  1.00  0.00     0.477 C  
ENDROOT
BRANCH   1  13
HETATM   13  C   UNL     1     -10.576  16.698  70.658  1.00  0.00     0.556 A  
HETATM   14  C   UNL     1     -12.263  15.551  72.637  1.00  0.00    -0.521 A  
HETATM   15  C   UNL     1     -13.067  14.952  73.760  1.00  0.00    -0.005 C  
HETATM   16  C   UNL     1     -11.968  14.826  71.465  1.00  0.00    -0.415 A  
HETATM   17  C   UNL     1     -10.904  17.406  71.819  1.00  0.00     2.268 A  
HETATM   18  C   UNL     1     -11.734  16.841  72.791  1.00  0.00    -0.035 A  
HETATM   19  C   UNL     1     -11.150  15.424  70.480  1.00  0.00    -0.361 A  
BRANCH  16  20
HETATM   20  C   UNL     1     -12.397  13.380  71.289  1.00  0.00    -0.286 C  
BRANCH  20  21
HETATM   21  C   UNL     1     -11.704  12.566  70.231  1.00  0.00    -0.116 A  
HETATM   22  C   UNL     1     -11.604  11.201  70.054  1.00  0.00    -0.421 A  
HETATM   23  C   UNL     1     -11.093  10.861  68.758  1.00  0.00    -0.310 A  
HETATM   24  C   UNL     1     -10.823  11.971  67.973  1.00  0.00    -0.216 A  
HETATM   25  S   UNL     1     -10.977  13.399  68.918  1.00  0.00    -0.223 SA 
BRANCH  24  26
HETATM   26  C   UNL     1     -10.473  12.054  66.536  1.00  0.00    -0.253 A  
HETATM   27  C   UNL     1     -10.806  13.188  65.771  1.00  0.00    -0.289 A  
HETATM   28  C   UNL     1     -10.545  13.243  64.398  1.00  0.00    -0.438 A  
HETATM   29  C   UNL     1      -9.964  12.152  63.771  1.00  0.00    -0.318 A  
HETATM   30  F   UNL     1      -9.743  12.193  62.450  1.00  0.00     0.173 F  
HETATM   31  C   UNL     1      -9.618  11.021  64.495  1.00  0.00    -0.299 A  
HETATM   32  C   UNL     1      -9.868  10.971  65.873  1.00  0.00    -0.278 A  
ENDBRANCH  24  26
ENDBRANCH  20  21
ENDBRANCH  16  20
ENDBRANCH   1  13
BRANCH   4  33
HETATM   33  C   UNL     1     -10.246  17.970  66.025  1.00  0.00    -0.303 C  
HETATM   34  O   UNL     1      -9.382  17.776  64.901  1.00  0.00     1.788 OA 
HETATM   35  H   UNL     1      -9.883  17.825  64.096  1.00  0.00     0.000 HD 
ENDBRANCH   4  33
TORSDOF 5
ENDMDL
MODEL      211
REMARK 921   NORMALIZED FREE ENERGY PREDICTED BY IDOCK:    3.89 KCAL/MOL
REMARK 922        TOTAL FREE ENERGY PREDICTED BY IDOCK:    4.43 KCAL/MOL
REMARK 923 INTER-LIGAND FREE ENERGY PREDICTED BY IDOCK:    4.13 KCAL/MOL
REMARK 924 INTRA-LIGAND FREE ENERGY PREDICTED BY IDOCK:    0.30 KCAL/MOL
REMARK 927      BINDING AFFINITY PREDICTED BY RF-SCORE:    0.00 PKD
ROOT
HETATM    1  C   UNL     1      -9.028  14.923  69.545  1.00  0.00     0.027 C  
HETATM    2  O   UNL     1      -9.145  15.895  68.483  1.00  0.00    -0.186 OA 
HETATM    3  H   UNL     1      -6.771  14.190  71.807  1.00  0.00     0.000 HD 
HETATM    4  C   UNL     1      -8.992  17.241  68.938  1.00  0.00    -0.173 C  
HETATM    5  O   UNL     1      -7.620  14.140  71.384  1.00  0.00     2.382 OA 
HETATM    6  C   UNL     1      -7.587  17.455  69.518  1.00  0.00     0.354 C  
HETATM    7  H   UNL     1      -5.879  15.981  71.858  1.00  0.00     0.000 HD 
HETATM    8  O   UNL     1      -6.018  16.596  71.148  1.00  0.00     0.508 OA 
HETATM    9  O   UNL     1      -7.399  18.770  70.061  1.00  0.00     0.430 OA 
HETATM   10  C   UNL     1      -7.362  16.462  70.661  1.00  0.00     2.476 C  
HETATM   11  H   UNL     1      -6.530  18.902  70.419  1.00  0.00     0.000 HD 
HETATM   12  C   UNL     1      -7.646  15.006  70.234  1.00  0.00     0.471 C  
ENDROOT
BRANCH   1  13
HETATM   13  C   UNL     1      -9.335  13.538  68.982  1.00  0.00     0.321 A  
HETATM   14  C   UNL     1      -9.842  10.890  68.088  1.00  0.00    -0.187 A  
HETATM   15  C   UNL     1     -10.146   9.460  67.723  1.00  0.00    -0.246 C  
HETATM   16  C   UNL     1      -8.538  11.416  68.006  1.00  0.00    -0.147 A  
HETATM   17  C   UNL     1     -10.625  13.001  69.029  1.00  0.00    -0.079 A  
HETATM   18  C   UNL     1     -10.873  11.698  68.589  1.00  0.00    -0.253 A  
HETATM   19  C   UNL     1      -8.311  12.745  68.430  1.00  0.00    -0.119 A  
BRANCH  16  20
HETATM   20  C   UNL     1      -7.353  10.560  67.598  1.00  0.00    -0.087 C  
BRANCH  20  21
HETATM   21  C   UNL     1      -7.533   9.620  66.437  1.00  0.00    -0.094 A  
HETATM   22  C   UNL     1      -7.520   9.844  65.075  1.00  0.00    -0.134 A  
HETATM   23  C   UNL     1      -7.448   8.622  64.327  1.00  0.00    -0.109 A  
HETATM   24  C   UNL     1      -7.396   7.496  65.133  1.00  0.00    -0.073 A  
HETATM   25  S   UNL     1      -7.676   7.943  66.770  1.00  0.00    -0.100 SA 
BRANCH  24  26
HETATM   26  C   UNL     1      -7.128   6.084  64.774  1.00  0.00    -0.060 A  
HETATM   27  C   UNL     1      -7.816   5.461  63.715  1.00  0.00    -0.097 A  
HETATM   28  C   UNL     1      -7.623   4.109  63.418  1.00  0.00    -0.062 A  
HETATM   29  C   UNL     1      -6.751   3.358  64.191  1.00  0.00    -0.039 A  
HETATM   30  F   UNL     1      -6.589   2.054  63.925  1.00  0.00    -0.022 F  
HETATM   31  C   UNL     1      -6.052   3.942  65.237  1.00  0.00    -0.024 A  
HETATM   32  C   UNL     1      -6.237   5.300  65.528  1.00  0.00    -0.034 A  
ENDBRANCH  24  26
ENDBRANCH  20  21
ENDBRANCH  16  20
ENDBRANCH   1  13
BRANCH   4  33
HETATM   33  C   UNL     1      -9.262  18.200  67.773  1.00  0.00    -0.263 C  
HETATM   34  O   UNL     1      -8.781  17.630  66.552  1.00  0.00    -0.254 OA 
HETATM   35  H   UNL     1      -8.948  18.224  65.830  1.00  0.00     0.000 HD 
ENDBRANCH   4  33
TORSDOF 5
ENDMDL
MODEL      212
REMARK 921   NORMALIZED FREE ENERGY PREDICTED BY IDOCK:    6.53 KCAL/MOL
REMARK 922        TOTAL FREE ENERGY PREDICTED BY IDOCK:    7.84 KCAL/MOL
REMARK 923 INTER-LIGAND FREE ENERGY PREDICTED BY IDOCK:    7.95 KCAL/MOL
REMARK 924 INTRA-LIGAND FREE ENERGY PREDICTED BY IDOCK:   -0.11 KCAL/MOL
REMARK 927      BINDING AFFINITY PREDICTED BY RF-SCORE:    0.00 PKD
ROOT
HETATM    1  C   UNL     1     -10.705  11.410  68.975  1.00  0.00    -0.205 C  
HETATM    2  O   UNL     1     -10.117  12.558  69.624  1.00  0.00     0.752 OA 
HETATM    3  H   UNL     1     -13.751  10.425  68.271  1.00  0.00     0.000 HD 
HETATM    4  C   UNL     1     -10.507  13.797  69.027  1.00  0.00    -0.098 C  
HETATM    5  O   UNL     1     -12.802  10.393  68.238  1.00  0.00     1.944 OA 
HETATM    6  C   UNL     1     -12.022  14.001  69.156  1.00  0.00    -0.360 C  
HETATM    7  H   UNL     1     -14.606  12.235  68.279  1.00  0.00     0.000 HD 
HETATM    8  O   UNL     1     -14.158  12.965  68.690  1.00  0.00     7.357 OA 
HETATM    9  O   UNL     1     -12.484  15.195  68.507  1.00  0.00    -0.525 OA 
HETATM   10  C   UNL     1     -12.742  12.825  68.494  1.00  0.00     1.302 C  
HETATM   11  H   UNL     1     -13.421  15.322  68.587  1.00  0.00     0.000 HD 
HETATM   12  C   UNL     1     -12.249  11.463  69.027  1.00  0.00    -0.134 C  
ENDROOT
BRANCH   1  13
HETATM   13  C   UNL     1     -10.127  10.142  69.599  1.00  0.00    -0.265 A  
HETATM   14  C   UNL     1      -8.965   7.887  70.879  1.00  0.00    -0.147 A  
HETATM   15  C   UNL     1      -8.368   6.746  71.660  1.00  0.00    -0.111 C  
HETATM   16  C   UNL     1      -8.204   8.638  69.962  1.00  0.00    -0.122 A  
HETATM   17  C   UNL     1     -10.869   9.366  70.495  1.00  0.00    -0.336 A  
HETATM   18  C   UNL     1     -10.296   8.256  71.124  1.00  0.00    -0.247 A  
HETATM   19  C   UNL     1      -8.808   9.740  69.314  1.00  0.00    -0.171 A  
BRANCH  16  20
HETATM   20  C   UNL     1      -6.724   8.377  69.747  1.00  0.00    -0.039 C  
BRANCH  20  21
HETATM   21  C   UNL     1      -6.318   7.023  69.232  1.00  0.00    -0.035 A  
HETATM   22  C   UNL     1      -5.996   5.857  69.896  1.00  0.00    -0.025 A  
HETATM   23  C   UNL     1      -5.946   4.728  69.013  1.00  0.00    -0.025 A  
HETATM   24  C   UNL     1      -6.241   5.055  67.699  1.00  0.00    -0.039 A  
HETATM   25  S   UNL     1      -6.338   6.764  67.536  1.00  0.00    -0.046 SA 
BRANCH  24  26
HETATM   26  C   UNL     1      -6.482   4.173  66.534  1.00  0.00    -0.037 A  
HETATM   27  C   UNL     1      -7.734   4.145  65.890  1.00  0.00    -0.090 A  
HETATM   28  C   UNL     1      -7.992   3.262  64.837  1.00  0.00    -0.086 A  
HETATM   29  C   UNL     1      -7.003   2.381  64.428  1.00  0.00    -0.048 A  
HETATM   30  F   UNL     1      -7.260   1.513  63.440  1.00  0.00    -0.031 F  
HETATM   31  C   UNL     1      -5.756   2.386  65.036  1.00  0.00    -0.017 A  
HETATM   32  C   UNL     1      -5.494   3.279  66.083  1.00  0.00    -0.017 A  
ENDBRANCH  24  26
ENDBRANCH  20  21
ENDBRANCH  16  20
ENDBRANCH   1  13
BRANCH   4  33
HETATM   33  C   UNL     1      -9.734  14.942  69.693  1.00  0.00     0.032 C  
HETATM   34  O   UNL     1      -8.884  15.578  68.735  1.00  0.00    -0.177 OA 
HETATM   35  H   UNL     1      -8.405  16.287  69.148  1.00  0.00     0.000 HD 
ENDBRANCH   4  33
TORSDOF 5
ENDMDL
MODEL      213
REMARK 921   NORMALIZED FREE ENERGY PREDICTED BY IDOCK:    7.28 KCAL/MOL
REMARK 922        TOTAL FREE ENERGY PREDICTED BY IDOCK:    8.81 KCAL/MOL
REMARK 923 INTER-LIGAND FREE ENERGY PREDICTED BY IDOCK:    9.19 KCAL/MOL
REMARK 924 INTRA-LIGAND FREE ENERGY PREDICTED BY IDOCK:   -0.38 KCAL/MOL
REMARK 927      BINDING AFFINITY PREDICTED BY RF-SCORE:    0.00 PKD
ROOT
HETATM    1  C   UNL     1      -8.958  14.018  66.219  1.00  0.00     0.086 C  
HETATM    2  O   UNL     1      -8.464  14.146  67.570  1.00  0.00    -0.163 OA 
HETATM    3  H   UNL     1     -11.915  13.814  64.820  1.00  0.00     0.000 HD 
HETATM    4  C   UNL     1      -8.997  15.283  68.254  1.00  0.00    -0.176 C  
HETATM    5  O   UNL     1     -10.970  13.905  64.835  1.00  0.00    -0.345 OA 
HETATM    6  C   UNL     1     -10.520  15.155  68.400  1.00  0.00    -0.233 C  
HETATM    7  H   UNL     1     -12.946  14.713  66.282  1.00  0.00     0.000 HD 
HETATM    8  O   UNL     1     -12.558  14.802  67.144  1.00  0.00     0.171 OA 
HETATM    9  O   UNL     1     -11.122  16.304  69.013  1.00  0.00    -0.305 OA 
HETATM   10  C   UNL     1     -11.143  15.011  67.010  1.00  0.00    -0.334 C  
HETATM   11  H   UNL     1     -12.064  16.225  69.104  1.00  0.00     0.000 HD 
HETATM   12  C   UNL     1     -10.497  13.871  66.194  1.00  0.00    -0.297 C  
ENDROOT
BRANCH   1  13
HETATM   13  C   UNL     1      -8.234  12.860  65.538  1.00  0.00     2.484 A  
HETATM   14  C   UNL     1      -7.011  10.594  64.337  1.00  0.00     0.228 A  
HETATM   15  C   UNL     1      -6.471   9.352  63.677  1.00  0.00    -0.095 C  
HETATM   16  C   UNL     1      -6.784  10.869  65.700  1.00  0.00     0.049 A  
HETATM   17  C   UNL     1      -8.424  12.578  64.181  1.00  0.00     3.151 A  
HETATM   18  C   UNL     1      -7.821  11.463  63.592  1.00  0.00     1.186 A  
HETATM   19  C   UNL     1      -7.378  12.017  66.273  1.00  0.00     0.570 A  
BRANCH  16  20
HETATM   20  C   UNL     1      -6.028   9.906  66.597  1.00  0.00    -0.055 C  
BRANCH  20  21
HETATM   21  C   UNL     1      -6.829   9.034  67.524  1.00  0.00    -0.077 A  
HETATM   22  C   UNL     1      -6.614   7.748  67.976  1.00  0.00    -0.056 A  
HETATM   23  C   UNL     1      -7.478   7.407  69.069  1.00  0.00    -0.100 A  
HETATM   24  C   UNL     1      -8.324   8.442  69.433  1.00  0.00    -0.120 A  
HETATM   25  S   UNL     1      -8.208   9.716  68.283  1.00  0.00    -0.106 SA 
BRANCH  24  26
HETATM   26  C   UNL     1      -9.217   8.568  70.608  1.00  0.00    -0.189 A  
HETATM   27  C   UNL     1     -10.600   8.323  70.500  1.00  0.00    -0.233 A  
HETATM   28  C   UNL     1     -11.459   8.512  71.586  1.00  0.00    -0.365 A  
HETATM   29  C   UNL     1     -10.947   8.967  72.791  1.00  0.00     0.643 A  
HETATM   30  F   UNL     1     -11.776   9.177  73.823  1.00  0.00     2.433 F  
HETATM   31  C   UNL     1      -9.589   9.211  72.934  1.00  0.00     1.498 A  
HETATM   32  C   UNL     1      -8.726   9.011  71.849  1.00  0.00     0.067 A  
ENDBRANCH  24  26
ENDBRANCH  20  21
ENDBRANCH  16  20
ENDBRANCH   1  13
BRANCH   4  33
HETATM   33  C   UNL     1      -8.318  15.409  69.623  1.00  0.00    -0.127 C  
HETATM   34  O   UNL     1      -7.565  16.624  69.683  1.00  0.00     0.002 OA 
HETATM   35  H   UNL     1      -7.145  16.703  70.531  1.00  0.00     0.000 HD 
ENDBRANCH   4  33
TORSDOF 5
ENDMDL
MODEL      214
REMARK 921   NORMALIZED FREE ENERGY PREDICTED BY IDOCK:    8.87 KCAL/MOL
REMARK 922        TOTAL FREE ENERGY PREDICTED BY IDOCK:   10.87 KCAL/MOL
REMARK 923 INTER-LIGAND FREE ENERGY PREDICTED BY IDOCK:   11.57 KCAL/MOL
REMARK 924 INTRA-LIGAND FREE ENERGY PREDICTED BY IDOCK:   -0.70 KCAL/MOL
REMARK 927      BINDING AFFINITY PREDICTED BY RF-SCORE:    0.00 PKD
ROOT
HETATM    1  C   UNL     1     -10.088  15.111  68.997  1.00  0.00    -0.244 C  
HETATM    2  O   UNL     1      -9.941  16.542  68.865  1.00  0.00    -0.238 OA 
HETATM    3  H   UNL     1     -12.433  13.090  70.073  1.00  0.00     0.000 HD 
HETATM    4  C   UNL     1     -10.980  17.140  68.086  1.00  0.00    -0.231 C  
HETATM    5  O   UNL     1     -11.612  13.316  69.653  1.00  0.00    -0.285 OA 
HETATM    6  C   UNL     1     -12.341  16.943  68.767  1.00  0.00     2.184 C  
HETATM    7  H   UNL     1     -13.980  14.327  69.787  1.00  0.00     0.000 HD 
HETATM    8  O   UNL     1     -13.823  15.257  69.671  1.00  0.00     1.418 OA 
HETATM    9  O   UNL     1     -13.435  17.458  67.993  1.00  0.00     4.358 OA 
HETATM   10  C   UNL     1     -12.593  15.445  68.954  1.00  0.00     0.408 C  
HETATM   11  H   UNL     1     -14.277  17.336  68.414  1.00  0.00     0.000 HD 
HETATM   12  C   UNL     1     -11.425  14.743  69.680  1.00  0.00    -0.292 C  
ENDROOT
BRANCH   1  13
HETATM   13  C   UNL     1      -8.868  14.556  69.727  1.00  0.00     0.599 A  
HETATM   14  C   UNL     1      -6.494  13.615  70.971  1.00  0.00     0.650 A  
HETATM   15  C   UNL     1      -5.190  13.224  71.617  1.00  0.00    -0.167 C  
HETATM   16  C   UNL     1      -6.940  13.016  69.776  1.00  0.00     0.370 A  
HETATM   17  C   UNL     1      -8.417  15.116  70.926  1.00  0.00     2.402 A  
HETATM   18  C   UNL     1      -7.249  14.652  71.537  1.00  0.00     2.250 A  
HETATM   19  C   UNL     1      -8.139  13.479  69.187  1.00  0.00     0.374 A  
BRANCH  16  20
HETATM   20  C   UNL     1      -6.109  11.981  69.041  1.00  0.00    -0.073 C  
BRANCH  20  21
HETATM   21  C   UNL     1      -6.768  11.214  67.927  1.00  0.00    -0.063 A  
HETATM   22  C   UNL     1      -6.410  11.043  66.605  1.00  0.00    -0.124 A  
HETATM   23  C   UNL     1      -7.167  10.004  65.970  1.00  0.00    -0.112 A  
HETATM   24  C   UNL     1      -8.077   9.399  66.822  1.00  0.00    -0.109 A  
HETATM   25  S   UNL     1      -8.150  10.270  68.303  1.00  0.00    -0.110 SA 
BRANCH  24  26
HETATM   26  C   UNL     1      -8.899   8.183  66.623  1.00  0.00    -0.164 A  
HETATM   27  C   UNL     1      -8.534   7.205  65.678  1.00  0.00    -0.141 A  
HETATM   28  C   UNL     1      -9.343   6.092  65.432  1.00  0.00     0.307 A  
HETATM   29  C   UNL     1     -10.540   5.955  66.116  1.00  0.00     0.124 A  
HETATM   30  F   UNL     1     -11.331   4.904  65.857  1.00  0.00    -0.232 F  
HETATM   31  C   UNL     1     -10.928   6.896  67.059  1.00  0.00    -0.404 A  
HETATM   32  C   UNL     1     -10.111   8.005  67.314  1.00  0.00    -0.309 A  
ENDBRANCH  24  26
ENDBRANCH  20  21
ENDBRANCH  16  20
ENDBRANCH   1  13
BRANCH   4  33
HETATM   33  C   UNL     1     -10.668  18.629  67.892  1.00  0.00    -0.296 C  
HETATM   34  O   UNL     1      -9.254  18.823  67.803  1.00  0.00    -0.283 OA 
HETATM   35  H   UNL     1      -9.061  19.745  67.682  1.00  0.00     0.000 HD 
ENDBRANCH   4  33
TORSDOF 5
ENDMDL
MODEL      215
REMARK 921   NORMALIZED FREE ENERGY PREDICTED BY IDOCK:    9.82 KCAL/MOL
REMARK 922        TOTAL FREE ENERGY PREDICTED BY IDOCK:   12.09 KCAL/MOL
REMARK 923 INTER-LIGAND FREE ENERGY PREDICTED BY IDOCK:   12.51 KCAL/MOL
REMARK 924 INTRA-LIGAND FREE ENERGY PREDICTED BY IDOCK:   -0.41 KCAL/MOL
REMARK 927      BINDING AFFINITY PREDICTED BY RF-SCORE:    0.00 PKD
ROOT
HETATM    1  C   UNL     1     -10.088  15.111  68.997  1.00  0.00    -0.244 C  
HETATM    2  O   UNL     1      -9.961  16.543  68.857  1.00  0.00    -0.238 OA 
HETATM    3  H   UNL     1     -12.412  13.061  70.063  1.00  0.00     0.000 HD 
HETATM    4  C   UNL     1     -11.002  17.121  68.066  1.00  0.00    -0.229 C  
HETATM    5  O   UNL     1     -11.591  13.297  69.649  1.00  0.00    -0.285 OA 
HETATM    6  C   UNL     1     -12.367  16.907  68.735  1.00  0.00     2.184 C  
HETATM    7  H   UNL     1     -13.975  14.273  69.755  1.00  0.00     0.000 HD 
HETATM    8  O   UNL     1     -13.831  15.204  69.635  1.00  0.00     1.555 OA 
HETATM    9  O   UNL     1     -13.460  17.401  67.947  1.00  0.00     4.542 OA 
HETATM   10  C   UNL     1     -12.597  15.407  68.929  1.00  0.00     0.408 C  
HETATM   11  H   UNL     1     -14.304  17.269  68.361  1.00  0.00     0.000 HD 
HETATM   12  C   UNL     1     -11.426  14.727  69.670  1.00  0.00    -0.292 C  
ENDROOT
BRANCH   1  13
HETATM   13  C   UNL     1      -8.867  14.579  69.741  1.00  0.00     0.599 A  
HETATM   14  C   UNL     1      -6.490  13.681  71.014  1.00  0.00     0.650 A  
HETATM   15  C   UNL     1      -5.187  13.314  71.674  1.00  0.00    -0.167 C  
HETATM   16  C   UNL     1      -6.916  13.069  69.819  1.00  0.00     0.370 A  
HETATM   17  C   UNL     1      -8.436  15.153  70.941  1.00  0.00     2.402 A  
HETATM   18  C   UNL     1      -7.266  14.711  71.566  1.00  0.00     2.250 A  
HETATM   19  C   UNL     1      -8.116  13.510  69.215  1.00  0.00     0.530 A  
BRANCH  16  20
HETATM   20  C   UNL     1      -6.062  12.042  69.097  1.00  0.00    -0.080 C  
BRANCH  20  21
HETATM   21  C   UNL     1      -6.699  11.259  67.982  1.00  0.00    -0.062 A  
HETATM   22  C   UNL     1      -7.543  11.650  66.962  1.00  0.00    -0.154 A  
HETATM   23  C   UNL     1      -7.680  10.637  65.956  1.00  0.00    -0.151 A  
HETATM   24  C   UNL     1      -6.931   9.502  66.223  1.00  0.00    -0.091 A  
HETATM   25  S   UNL     1      -6.268   9.607  67.807  1.00  0.00    -0.053 SA 
BRANCH  24  26
HETATM   26  C   UNL     1      -6.647   8.330  65.365  1.00  0.00    -0.052 A  
HETATM   27  C   UNL     1      -7.348   8.123  64.161  1.00  0.00    -0.095 A  
HETATM   28  C   UNL     1      -7.138   6.981  63.383  1.00  0.00    -0.065 A  
HETATM   29  C   UNL     1      -6.234   6.021  63.811  1.00  0.00    -0.025 A  
HETATM   30  F   UNL     1      -6.056   4.911  63.081  1.00  0.00    -0.019 F  
HETATM   31  C   UNL     1      -5.521   6.195  64.988  1.00  0.00    -0.017 A  
HETATM   32  C   UNL     1      -5.724   7.346  65.761  1.00  0.00    -0.036 A  
ENDBRANCH  24  26
ENDBRANCH  20  21
ENDBRANCH  16  20
ENDBRANCH   1  13
BRANCH   4  33
HETATM   33  C   UNL     1     -10.711  18.613  67.865  1.00  0.00    -0.296 C  
HETATM   34  O   UNL     1      -9.480  18.960  68.507  1.00  0.00    -0.331 OA 
HETATM   35  H   UNL     1      -9.300  19.884  68.383  1.00  0.00     0.000 HD 
ENDBRANCH   4  33
TORSDOF 5
ENDMDL
MODEL      216
REMARK 921   NORMALIZED FREE ENERGY PREDICTED BY IDOCK:   12.50 KCAL/MOL
REMARK 922        TOTAL FREE ENERGY PREDICTED BY IDOCK:   15.56 KCAL/MOL
REMARK 923 INTER-LIGAND FREE ENERGY PREDICTED BY IDOCK:    8.13 KCAL/MOL
REMARK 924 INTRA-LIGAND FREE ENERGY PREDICTED BY IDOCK:    7.43 KCAL/MOL
REMARK 927      BINDING AFFINITY PREDICTED BY RF-SCORE:    0.00 PKD
ROOT
HETATM    1  C   UNL     1      -9.191  14.458  67.322  1.00  0.00    -0.209 C  
HETATM    2  O   UNL     1      -9.459  15.175  66.098  1.00  0.00    -0.282 OA 
HETATM    3  H   UNL     1      -6.847  14.533  69.612  1.00  0.00     0.000 HD 
HETATM    4  C   UNL     1      -9.519  16.591  66.283  1.00  0.00    -0.310 C  
HETATM    5  O   UNL     1      -7.678  14.271  69.233  1.00  0.00    -0.072 OA 
HETATM    6  C   UNL     1      -8.165  17.127  66.767  1.00  0.00    -0.240 C  
HETATM    7  H   UNL     1      -6.246  16.415  69.293  1.00  0.00     0.000 HD 
HETATM    8  O   UNL     1      -6.481  16.853  68.483  1.00  0.00    -0.152 OA 
HETATM    9  O   UNL     1      -8.186  18.535  67.043  1.00  0.00    -0.237 OA 
HETATM   10  C   UNL     1      -7.787  16.421  68.071  1.00  0.00    -0.155 C  
HETATM   11  H   UNL     1      -7.348  18.867  67.342  1.00  0.00     0.000 HD 
HETATM   12  C   UNL     1      -7.839  14.884  67.940  1.00  0.00    -0.137 C  
ENDROOT
BRANCH   1  13
HETATM   13  C   UNL     1      -9.277  12.960  67.044  1.00  0.00    -0.226 A  
HETATM   14  C   UNL     1      -9.611  10.195  66.479  1.00  0.00    -0.236 A  
HETATM   15  C   UNL     1      -9.851   8.761  66.086  1.00  0.00    -0.297 C  
HETATM   16  C   UNL     1     -10.078  10.719  67.701  1.00  0.00    -0.205 A  
HETATM   17  C   UNL     1      -8.801  12.410  65.850  1.00  0.00     0.302 A  
HETATM   18  C   UNL     1      -8.965  11.049  65.573  1.00  0.00    -0.208 A  
HETATM   19  C   UNL     1      -9.878  12.091  67.976  1.00  0.00    -0.199 A  
BRANCH  16  20
HETATM   20  C   UNL     1     -10.897   9.885  68.668  1.00  0.00    -0.244 C  
BRANCH  20  21
HETATM   21  C   UNL     1     -11.093   8.428  68.348  1.00  0.00     0.385 A  
HETATM   22  C   UNL     1     -11.961   7.491  68.871  1.00  0.00     1.726 A  
HETATM   23  C   UNL     1     -12.007   6.296  68.079  1.00  0.00     2.280 A  
HETATM   24  C   UNL     1     -11.183   6.352  66.965  1.00  0.00    -0.195 A  
HETATM   25  S   UNL     1     -10.200   7.761  67.044  1.00  0.00    -0.323 SA 
BRANCH  24  26
HETATM   26  C   UNL     1     -11.084   5.428  65.812  1.00  0.00     0.464 A  
HETATM   27  C   UNL     1      -9.833   5.072  65.272  1.00  0.00     0.059 A  
HETATM   28  C   UNL     1      -9.735   4.260  64.137  1.00  0.00    -0.096 A  
HETATM   29  C   UNL     1     -10.890   3.810  63.519  1.00  0.00    -0.147 A  
HETATM   30  F   UNL     1     -10.796   3.058  62.414  1.00  0.00    -0.144 F  
HETATM   31  C   UNL     1     -12.139   4.136  64.028  1.00  0.00     3.017 A  
HETATM   32  C   UNL     1     -12.237   4.940  65.171  1.00  0.00     3.428 A  
ENDBRANCH  24  26
ENDBRANCH  20  21
ENDBRANCH  16  20
ENDBRANCH   1  13
BRANCH   4  33
HETATM   33  C   UNL     1      -9.937  17.253  64.964  1.00  0.00     1.352 C  
HETATM   34  O   UNL     1     -11.354  17.452  64.946  1.00  0.00    -0.570 OA 
HETATM   35  H   UNL     1     -11.613  17.862  64.129  1.00  0.00     0.000 HD 
ENDBRANCH   4  33
TORSDOF 5
ENDMDL
MODEL      217
REMARK 921   NORMALIZED FREE ENERGY PREDICTED BY IDOCK:   12.70 KCAL/MOL
REMARK 922        TOTAL FREE ENERGY PREDICTED BY IDOCK:   15.81 KCAL/MOL
REMARK 923 INTER-LIGAND FREE ENERGY PREDICTED BY IDOCK:   16.26 KCAL/MOL
REMARK 924 INTRA-LIGAND FREE ENERGY PREDICTED BY IDOCK:   -0.45 KCAL/MOL
REMARK 927      BINDING AFFINITY PREDICTED BY RF-SCORE:    0.00 PKD
ROOT
HETATM    1  C   UNL     1     -10.921  11.571  70.756  1.00  0.00     1.763 C  
HETATM    2  O   UNL     1     -10.406  12.683  71.520  1.00  0.00     7.095 OA 
HETATM    3  H   UNL     1     -13.891  10.551  69.818  1.00  0.00     0.000 HD 
HETATM    4  C   UNL     1     -10.807  13.952  70.997  1.00  0.00     2.066 C  
HETATM    5  O   UNL     1     -12.941  10.550  69.834  1.00  0.00    -0.099 OA 
HETATM    6  C   UNL     1     -12.334  14.099  71.060  1.00  0.00    -0.366 C  
HETATM    7  H   UNL     1     -14.807  12.328  69.916  1.00  0.00     0.000 HD 
HETATM    8  O   UNL     1     -14.406  13.038  70.403  1.00  0.00     3.310 OA 
HETATM    9  O   UNL     1     -12.802  15.325  70.478  1.00  0.00    -0.499 OA 
HETATM   10  C   UNL     1     -12.978  12.956  70.274  1.00  0.00     0.460 C  
HETATM   11  H   UNL     1     -13.746  15.417  70.518  1.00  0.00     0.000 HD 
HETATM   12  C   UNL     1     -12.467  11.573  70.729  1.00  0.00    -0.349 C  
ENDROOT
BRANCH   1  13
HETATM   13  C   UNL     1     -10.332  10.277  71.313  1.00  0.00     1.272 A  
HETATM   14  C   UNL     1      -9.159   7.967  72.480  1.00  0.00    -0.271 A  
HETATM   15  C   UNL     1      -8.561   6.789  73.204  1.00  0.00    -0.132 C  
HETATM   16  C   UNL     1      -8.383   8.801  71.650  1.00  0.00    -0.190 A  
HETATM   17  C   UNL     1     -11.087   9.420  72.121  1.00  0.00     0.203 A  
HETATM   18  C   UNL     1     -10.508   8.284  72.694  1.00  0.00    -0.373 A  
HETATM   19  C   UNL     1      -8.992   9.929  71.056  1.00  0.00     0.868 A  
BRANCH  16  20
HETATM   20  C   UNL     1      -6.890   8.593  71.479  1.00  0.00    -0.085 C  
BRANCH  20  21
HETATM   21  C   UNL     1      -6.376   8.292  70.097  1.00  0.00    -0.035 A  
HETATM   22  C   UNL     1      -5.395   7.427  69.660  1.00  0.00    -0.022 A  
HETATM   23  C   UNL     1      -5.427   7.247  68.237  1.00  0.00    -0.022 A  
HETATM   24  C   UNL     1      -6.437   7.970  67.622  1.00  0.00    -0.057 A  
HETATM   25  S   UNL     1      -7.167   9.029  68.764  1.00  0.00    -0.075 SA 
BRANCH  24  26
HETATM   26  C   UNL     1      -6.926   7.917  66.226  1.00  0.00    -0.063 A  
HETATM   27  C   UNL     1      -7.964   8.761  65.786  1.00  0.00    -0.105 A  
HETATM   28  C   UNL     1      -8.481   8.665  64.490  1.00  0.00    -0.128 A  
HETATM   29  C   UNL     1      -7.976   7.708  63.624  1.00  0.00    -0.089 A  
HETATM   30  F   UNL     1      -8.493   7.596  62.392  1.00  0.00    -0.154 F  
HETATM   31  C   UNL     1      -6.949   6.865  64.022  1.00  0.00    -0.056 A  
HETATM   32  C   UNL     1      -6.423   6.969  65.316  1.00  0.00    -0.043 A  
ENDBRANCH  24  26
ENDBRANCH  20  21
ENDBRANCH  16  20
ENDBRANCH   1  13
BRANCH   4  33
HETATM   33  C   UNL     1     -10.109  15.065  71.788  1.00  0.00     2.384 C  
HETATM   34  O   UNL     1     -11.056  15.730  72.630  1.00  0.00     0.054 OA 
HETATM   35  H   UNL     1     -10.624  16.420  73.120  1.00  0.00     0.000 HD 
ENDBRANCH   4  33
TORSDOF 5
ENDMDL
MODEL      218
REMARK 921   NORMALIZED FREE ENERGY PREDICTED BY IDOCK:   19.57 KCAL/MOL
REMARK 922        TOTAL FREE ENERGY PREDICTED BY IDOCK:   24.69 KCAL/MOL
REMARK 923 INTER-LIGAND FREE ENERGY PREDICTED BY IDOCK:   23.48 KCAL/MOL
REMARK 924 INTRA-LIGAND FREE ENERGY PREDICTED BY IDOCK:    1.21 KCAL/MOL
REMARK 927      BINDING AFFINITY PREDICTED BY RF-SCORE:    0.00 PKD
ROOT
HETATM    1  C   UNL     1      -8.973  17.404  65.307  1.00  0.00     1.827 C  
HETATM    2  O   UNL     1      -8.183  18.522  64.846  1.00  0.00     1.664 OA 
HETATM    3  H   UNL     1     -11.860  17.045  66.817  1.00  0.00     0.000 HD 
HETATM    4  C   UNL     1      -8.894  19.375  63.947  1.00  0.00     9.678 C  
HETATM    5  O   UNL     1     -11.081  16.752  66.359  1.00  0.00     0.068 OA 
HETATM    6  C   UNL     1     -10.103  20.007  64.650  1.00  0.00     2.547 C  
HETATM    7  H   UNL     1     -12.659  18.788  66.246  1.00  0.00     0.000 HD 
HETATM    8  O   UNL     1     -12.096  19.478  65.917  1.00  0.00     2.207 OA 
HETATM    9  O   UNL     1     -10.901  20.817  63.773  1.00  0.00     2.193 OA 
HETATM   10  C   UNL     1     -11.010  18.895  65.180  1.00  0.00     0.981 C  
HETATM   11  H   UNL     1     -11.649  21.208  64.209  1.00  0.00     0.000 HD 
HETATM   12  C   UNL     1     -10.241  17.880  66.054  1.00  0.00    -0.295 C  
ENDROOT
BRANCH   1  13
HETATM   13  C   UNL     1      -8.088  16.491  66.151  1.00  0.00    -0.242 A  
HETATM   14  C   UNL     1      -6.388  14.709  67.568  1.00  0.00    -0.042 A  
HETATM   15  C   UNL     1      -5.409  13.778  68.233  1.00  0.00    -0.109 C  
HETATM   16  C   UNL     1      -7.654  14.268  67.134  1.00  0.00     0.002 A  
HETATM   17  C   UNL     1      -6.837  16.910  66.614  1.00  0.00    -0.271 A  
HETATM   18  C   UNL     1      -6.002  16.032  67.312  1.00  0.00    -0.106 A  
HETATM   19  C   UNL     1      -8.497  15.178  66.455  1.00  0.00    -0.149 A  
BRANCH  16  20
HETATM   20  C   UNL     1      -8.085  12.819  67.262  1.00  0.00    -0.172 C  
BRANCH  20  21
HETATM   21  C   UNL     1      -7.089  11.755  66.887  1.00  0.00    -0.097 A  
HETATM   22  C   UNL     1      -5.952  11.308  67.528  1.00  0.00    -0.055 A  
HETATM   23  C   UNL     1      -5.458  10.085  66.964  1.00  0.00    -0.042 A  
HETATM   24  C   UNL     1      -6.235   9.621  65.914  1.00  0.00    -0.069 A  
HETATM   25  S   UNL     1      -7.405  10.809  65.492  1.00  0.00     0.096 SA 
BRANCH  24  26
HETATM   26  C   UNL     1      -6.185   8.326  65.198  1.00  0.00    -0.045 A  
HETATM   27  C   UNL     1      -6.795   7.175  65.735  1.00  0.00    -0.056 A  
HETATM   28  C   UNL     1      -6.689   5.933  65.103  1.00  0.00    -0.044 A  
HETATM   29  C   UNL     1      -5.954   5.824  63.933  1.00  0.00    -0.025 A  
HETATM   30  F   UNL     1      -5.827   4.627  63.344  1.00  0.00    -0.015 F  
HETATM   31  C   UNL     1      -5.346   6.938  63.373  1.00  0.00    -0.032 A  
HETATM   32  C   UNL     1      -5.462   8.185  64.000  1.00  0.00    -0.048 A  
ENDBRANCH  24  26
ENDBRANCH  20  21
ENDBRANCH  16  20
ENDBRANCH   1  13
BRANCH   4  33
HETATM   33  C   UNL     1      -7.940  20.450  63.412  1.00  0.00     4.319 C  
HETATM   34  O   UNL     1      -6.620  20.224  63.916  1.00  0.00    -0.185 OA 
HETATM   35  H   UNL     1      -6.029  20.889  63.585  1.00  0.00     0.000 HD 
ENDBRANCH   4  33
TORSDOF 5
ENDMDL
MODEL      219
REMARK 921   NORMALIZED FREE ENERGY PREDICTED BY IDOCK:   23.30 KCAL/MOL
REMARK 922        TOTAL FREE ENERGY PREDICTED BY IDOCK:   29.52 KCAL/MOL
REMARK 923 INTER-LIGAND FREE ENERGY PREDICTED BY IDOCK:   30.28 KCAL/MOL
REMARK 924 INTRA-LIGAND FREE ENERGY PREDICTED BY IDOCK:   -0.77 KCAL/MOL
REMARK 927      BINDING AFFINITY PREDICTED BY RF-SCORE:    0.00 PKD
ROOT
HETATM    1  C   UNL     1      -9.416  12.512  66.297  1.00  0.00    -0.210 C  
HETATM    2  O   UNL     1      -9.764  13.906  66.443  1.00  0.00    -0.282 OA 
HETATM    3  H   UNL     1     -11.079   9.696  66.071  1.00  0.00     0.000 HD 
HETATM    4  C   UNL     1     -10.647  14.371  65.419  1.00  0.00    -0.365 C  
HETATM    5  O   UNL     1     -10.308  10.250  66.041  1.00  0.00    -0.237 OA 
HETATM    6  C   UNL     1     -11.984  13.619  65.481  1.00  0.00    -0.384 C  
HETATM    7  H   UNL     1     -12.793  10.472  65.391  1.00  0.00     0.000 HD 
HETATM    8  O   UNL     1     -12.956  11.403  65.481  1.00  0.00     2.375 OA 
HETATM    9  O   UNL     1     -12.884  13.991  64.427  1.00  0.00    -0.626 OA 
HETATM   10  C   UNL     1     -11.720  12.119  65.335  1.00  0.00    -0.321 C  
HETATM   11  H   UNL     1     -13.712  13.526  64.465  1.00  0.00     0.000 HD 
HETATM   12  C   UNL     1     -10.671  11.609  66.346  1.00  0.00    -0.272 C  
ENDROOT
BRANCH   1  13
HETATM   13  C   UNL     1      -8.376  12.151  67.354  1.00  0.00    -0.174 A  
HETATM   14  C   UNL     1      -6.561  11.366  69.395  1.00  0.00    -0.119 A  
HETATM   15  C   UNL     1      -5.639  10.840  70.463  1.00  0.00    -0.106 C  
HETATM   16  C   UNL     1      -7.563  12.315  69.679  1.00  0.00     0.862 A  
HETATM   17  C   UNL     1      -7.358  11.229  67.092  1.00  0.00    -0.130 A  
HETATM   18  C   UNL     1      -6.465  10.844  68.096  1.00  0.00    -0.058 A  
HETATM   19  C   UNL     1      -8.439  12.714  68.644  1.00  0.00     0.043 A  
BRANCH  16  20
HETATM   20  C   UNL     1      -7.807  12.823  71.088  1.00  0.00     8.118 C  
BRANCH  20  21
HETATM   21  C   UNL     1      -7.840  14.312  71.302  1.00  0.00     3.957 A  
HETATM   22  C   UNL     1      -6.953  15.159  71.934  1.00  0.00     2.512 A  
HETATM   23  C   UNL     1      -7.233  16.539  71.657  1.00  0.00     6.172 A  
HETATM   24  C   UNL     1      -8.318  16.713  70.813  1.00  0.00     4.482 A  
HETATM   25  S   UNL     1      -9.110  15.205  70.572  1.00  0.00     1.690 SA 
BRANCH  24  26
HETATM   26  C   UNL     1      -8.810  17.937  70.142  1.00  0.00     2.547 A  
HETATM   27  C   UNL     1     -10.040  17.946  69.455  1.00  0.00     0.005 A  
HETATM   28  C   UNL     1     -10.475  19.075  68.755  1.00  0.00    -0.039 A  
HETATM   29  C   UNL     1      -9.675  20.206  68.721  1.00  0.00    -0.069 A  
HETATM   30  F   UNL     1     -10.079  21.278  68.025  1.00  0.00    -0.264 F  
HETATM   31  C   UNL     1      -8.461  20.235  69.392  1.00  0.00     0.761 A  
HETATM   32  C   UNL     1      -8.030  19.107  70.102  1.00  0.00     1.192 A  
ENDBRANCH  24  26
ENDBRANCH  20  21
ENDBRANCH  16  20
ENDBRANCH   1  13
BRANCH   4  33
HETATM   33  C   UNL     1     -10.852  15.881  65.580  1.00  0.00    -0.315 C  
HETATM   34  O   UNL     1      -9.616  16.568  65.360  1.00  0.00    -0.462 OA 
HETATM   35  H   UNL     1      -9.744  17.503  65.459  1.00  0.00     0.000 HD 
ENDBRANCH   4  33
TORSDOF 5
ENDMDL
MODEL      220
REMARK 921   NORMALIZED FREE ENERGY PREDICTED BY IDOCK:   24.94 KCAL/MOL
REMARK 922        TOTAL FREE ENERGY PREDICTED BY IDOCK:   31.64 KCAL/MOL
REMARK 923 INTER-LIGAND FREE ENERGY PREDICTED BY IDOCK:   30.86 KCAL/MOL
REMARK 924 INTRA-LIGAND FREE ENERGY PREDICTED BY IDOCK:    0.78 KCAL/MOL
REMARK 927      BINDING AFFINITY PREDICTED BY RF-SCORE:    0.00 PKD
ROOT
HETATM    1  C   UNL     1     -11.847  14.386  68.049  1.00  0.00    -0.325 C  
HETATM    2  O   UNL     1     -11.539  13.264  67.195  1.00  0.00    -0.319 OA 
HETATM    3  H   UNL     1     -10.668  17.419  68.446  1.00  0.00     0.000 HD 
HETATM    4  C   UNL     1     -11.585  13.592  65.804  1.00  0.00    -0.330 C  
HETATM    5  O   UNL     1     -11.280  16.704  68.579  1.00  0.00    -0.344 OA 
HETATM    6  C   UNL     1     -10.525  14.650  65.468  1.00  0.00    -0.356 C  
HETATM    7  H   UNL     1      -9.876  17.619  66.619  1.00  0.00     0.000 HD 
HETATM    8  O   UNL     1      -9.726  16.849  66.084  1.00  0.00    -0.300 OA 
HETATM    9  O   UNL     1     -10.574  15.075  64.097  1.00  0.00    -0.284 OA 
HETATM   10  C   UNL     1     -10.767  15.890  66.330  1.00  0.00    -0.261 C  
HETATM   11  H   UNL     1      -9.918  15.729  63.889  1.00  0.00     0.000 HD 
HETATM   12  C   UNL     1     -10.852  15.550  67.833  1.00  0.00    -0.307 C  
ENDROOT
BRANCH   1  13
HETATM   13  C   UNL     1     -11.901  13.904  69.496  1.00  0.00    -0.383 A  
HETATM   14  C   UNL     1     -12.050  13.173  72.238  1.00  0.00     1.296 A  
HETATM   15  C   UNL     1     -12.225  12.852  73.699  1.00  0.00     6.283 C  
HETATM   16  C   UNL     1     -10.917  13.860  71.760  1.00  0.00     3.180 A  
HETATM   17  C   UNL     1     -13.003  13.200  69.991  1.00  0.00     0.543 A  
HETATM   18  C   UNL     1     -13.075  12.840  71.341  1.00  0.00    -0.318 A  
HETATM   19  C   UNL     1     -10.848  14.191  70.387  1.00  0.00     0.506 A  
BRANCH  16  20
HETATM   20  C   UNL     1      -9.833  14.365  72.695  1.00  0.00     6.721 C  
BRANCH  20  21
HETATM   21  C   UNL     1      -8.619  15.009  72.080  1.00  0.00     6.446 A  
HETATM   22  C   UNL     1      -7.281  14.682  72.154  1.00  0.00     3.266 A  
HETATM   23  C   UNL     1      -6.497  15.393  71.186  1.00  0.00     0.856 A  
HETATM   24  C   UNL     1      -7.255  16.237  70.390  1.00  0.00     1.422 A  
HETATM   25  S   UNL     1      -8.861  16.318  70.998  1.00  0.00     5.097 SA 
BRANCH  24  26
HETATM   26  C   UNL     1      -6.872  16.988  69.172  1.00  0.00    -0.240 A  
HETATM   27  C   UNL     1      -5.700  17.768  69.138  1.00  0.00    -0.201 A  
HETATM   28  C   UNL     1      -5.371  18.539  68.018  1.00  0.00    -0.170 A  
HETATM   29  C   UNL     1      -6.223  18.552  66.925  1.00  0.00    -0.173 A  
HETATM   30  F   UNL     1      -5.923  19.315  65.865  1.00  0.00    -0.176 F  
HETATM   31  C   UNL     1      -7.383  17.791  66.923  1.00  0.00    -0.229 A  
HETATM   32  C   UNL     1      -7.706  17.009  68.040  1.00  0.00    -0.181 A  
ENDBRANCH  24  26
ENDBRANCH  20  21
ENDBRANCH  16  20
ENDBRANCH   1  13
BRANCH   4  33
HETATM   33  C   UNL     1     -11.376  12.316  64.980  1.00  0.00    -0.328 C  
HETATM   34  O   UNL     1     -12.487  11.432  65.159  1.00  0.00     0.470 OA 
HETATM   35  H   UNL     1     -12.358  10.642  64.649  1.00  0.00     0.000 HD 
ENDBRANCH   4  33
TORSDOF 5
ENDMDL
MODEL      221
REMARK 921   NORMALIZED FREE ENERGY PREDICTED BY IDOCK:   25.35 KCAL/MOL
REMARK 922        TOTAL FREE ENERGY PREDICTED BY IDOCK:   32.16 KCAL/MOL
REMARK 923 INTER-LIGAND FREE ENERGY PREDICTED BY IDOCK:   32.19 KCAL/MOL
REMARK 924 INTRA-LIGAND FREE ENERGY PREDICTED BY IDOCK:   -0.03 KCAL/MOL
REMARK 927      BINDING AFFINITY PREDICTED BY RF-SCORE:    0.00 PKD
ROOT
HETATM    1  C   UNL     1      -8.806  14.264  65.992  1.00  0.00     0.478 C  
HETATM    2  O   UNL     1      -8.180  14.546  67.262  1.00  0.00    -0.192 OA 
HETATM    3  H   UNL     1     -10.900  15.831  64.016  1.00  0.00     0.000 HD 
HETATM    4  C   UNL     1      -7.447  15.773  67.262  1.00  0.00    -0.217 C  
HETATM    5  O   UNL     1     -10.288  15.147  64.259  1.00  0.00     0.215 OA 
HETATM    6  C   UNL     1      -8.388  16.960  67.012  1.00  0.00    -0.200 C  
HETATM    7  H   UNL     1     -10.501  17.687  64.651  1.00  0.00     0.000 HD 
HETATM    8  O   UNL     1     -10.054  17.814  65.479  1.00  0.00    -0.548 OA 
HETATM    9  O   UNL     1      -7.696  18.215  66.926  1.00  0.00    -0.210 OA 
HETATM   10  C   UNL     1      -9.107  16.753  65.677  1.00  0.00     0.291 C  
HETATM   11  H   UNL     1      -8.278  18.949  66.772  1.00  0.00     0.000 HD 
HETATM   12  C   UNL     1      -9.803  15.378  65.595  1.00  0.00    -0.352 C  
ENDROOT
BRANCH   1  13
HETATM   13  C   UNL     1      -9.448  12.880  66.055  1.00  0.00    -0.112 A  
HETATM   14  C   UNL     1     -10.795  10.385  66.228  1.00  0.00    -0.022 A  
HETATM   15  C   UNL     1     -11.604   9.115  66.275  1.00  0.00     3.908 C  
HETATM   16  C   UNL     1     -10.294  10.990  67.398  1.00  0.00    -0.242 A  
HETATM   17  C   UNL     1      -9.933  12.247  64.907  1.00  0.00    -0.219 A  
HETATM   18  C   UNL     1     -10.595  11.019  64.993  1.00  0.00    -0.315 A  
HETATM   19  C   UNL     1      -9.602  12.217  67.289  1.00  0.00    -0.187 A  
BRANCH  16  20
HETATM   20  C   UNL     1     -10.586  10.428  68.777  1.00  0.00    -0.232 C  
BRANCH  20  21
HETATM   21  C   UNL     1     -11.139  11.366  69.815  1.00  0.00    -0.126 A  
HETATM   22  C   UNL     1     -11.822  11.123  70.989  1.00  0.00    -0.128 A  
HETATM   23  C   UNL     1     -11.911  12.292  71.815  1.00  0.00     1.433 A  
HETATM   24  C   UNL     1     -11.286  13.397  71.259  1.00  0.00     2.480 A  
HETATM   25  S   UNL     1     -10.814  13.042  69.644  1.00  0.00     0.480 SA 
BRANCH  24  26
HETATM   26  C   UNL     1     -10.987  14.718  71.857  1.00  0.00     0.706 A  
HETATM   27  C   UNL     1     -11.858  15.811  71.678  1.00  0.00    -0.539 A  
HETATM   28  C   UNL     1     -11.547  17.079  72.177  1.00  0.00     0.610 A  
HETATM   29  C   UNL     1     -10.348  17.274  72.845  1.00  0.00     6.352 A  
HETATM   30  F   UNL     1     -10.036  18.497  73.296  1.00  0.00     2.679 F  
HETATM   31  C   UNL     1      -9.470  16.219  73.045  1.00  0.00    11.619 A  
HETATM   32  C   UNL     1      -9.788  14.945  72.555  1.00  0.00     4.995 A  
ENDBRANCH  24  26
ENDBRANCH  20  21
ENDBRANCH  16  20
ENDBRANCH   1  13
BRANCH   4  33
HETATM   33  C   UNL     1      -6.714  15.921  68.601  1.00  0.00    -0.119 C  
HETATM   34  O   UNL     1      -5.300  15.918  68.384  1.00  0.00    -0.094 OA 
HETATM   35  H   UNL     1      -4.845  16.009  69.213  1.00  0.00     0.000 HD 
ENDBRANCH   4  33
TORSDOF 5
ENDMDL
MODEL      222
REMARK 921   NORMALIZED FREE ENERGY PREDICTED BY IDOCK:   30.37 KCAL/MOL
REMARK 922        TOTAL FREE ENERGY PREDICTED BY IDOCK:   38.64 KCAL/MOL
REMARK 923 INTER-LIGAND FREE ENERGY PREDICTED BY IDOCK:   39.78 KCAL/MOL
REMARK 924 INTRA-LIGAND FREE ENERGY PREDICTED BY IDOCK:   -1.14 KCAL/MOL
REMARK 927      BINDING AFFINITY PREDICTED BY RF-SCORE:    0.00 PKD
ROOT
HETATM    1  C   UNL     1      -9.093   5.763  64.599  1.00  0.00     0.396 C  
HETATM    2  O   UNL     1     -10.390   6.187  64.126  1.00  0.00     3.608 OA 
HETATM    3  H   UNL     1      -7.993   3.918  67.075  1.00  0.00     0.000 HD 
HETATM    4  C   UNL     1     -11.272   5.093  63.860  1.00  0.00     2.680 C  
HETATM    5  O   UNL     1      -7.922   4.415  66.269  1.00  0.00    -0.098 OA 
HETATM    6  C   UNL     1     -11.556   4.307  65.147  1.00  0.00     1.465 C  
HETATM    7  H   UNL     1      -9.661   2.845  67.347  1.00  0.00     0.000 HD 
HETATM    8  O   UNL     1     -10.483   3.153  66.983  1.00  0.00     1.545 OA 
HETATM    9  O   UNL     1     -12.377   3.150  64.928  1.00  0.00     3.676 OA 
HETATM   10  C   UNL     1     -10.232   3.812  65.732  1.00  0.00     0.169 C  
HETATM   11  H   UNL     1     -12.553   2.665  65.724  1.00  0.00     0.000 HD 
HETATM   12  C   UNL     1      -9.209   4.954  65.912  1.00  0.00    -0.155 C  
ENDROOT
BRANCH   1  13
HETATM   13  C   UNL     1      -8.192   6.988  64.727  1.00  0.00    -0.048 A  
HETATM   14  C   UNL     1      -6.463   9.207  65.128  1.00  0.00    -0.069 A  
HETATM   15  C   UNL     1      -5.470  10.309  65.389  1.00  0.00    -0.088 C  
HETATM   16  C   UNL     1      -7.736   9.196  65.733  1.00  0.00    -0.094 A  
HETATM   17  C   UNL     1      -6.933   7.035  64.119  1.00  0.00    -0.056 A  
HETATM   18  C   UNL     1      -6.084   8.128  64.317  1.00  0.00    -0.065 A  
HETATM   19  C   UNL     1      -8.593   8.096  65.499  1.00  0.00    -0.173 A  
BRANCH  16  20
HETATM   20  C   UNL     1      -8.161  10.264  66.723  1.00  0.00    -0.121 C  
BRANCH  20  21
HETATM   21  C   UNL     1      -9.214   9.903  67.736  1.00  0.00    -0.130 A  
HETATM   22  C   UNL     1     -10.449  10.458  67.999  1.00  0.00    -0.232 A  
HETATM   23  C   UNL     1     -11.244   9.626  68.856  1.00  0.00    -0.020 A  
HETATM   24  C   UNL     1     -10.602   8.452  69.217  1.00  0.00    -0.182 A  
HETATM   25  S   UNL     1      -8.964   8.505  68.698  1.00  0.00    -0.139 SA 
BRANCH  24  26
HETATM   26  C   UNL     1     -11.132   7.259  69.917  1.00  0.00    -0.233 A  
HETATM   27  C   UNL     1     -12.164   6.484  69.353  1.00  0.00     1.153 A  
HETATM   28  C   UNL     1     -12.719   5.401  70.041  1.00  0.00     7.243 A  
HETATM   29  C   UNL     1     -12.260   5.091  71.311  1.00  0.00     3.282 A  
HETATM   30  F   UNL     1     -12.814   4.072  71.982  1.00  0.00     2.933 F  
HETATM   31  C   UNL     1     -11.240   5.829  71.894  1.00  0.00    -0.289 A  
HETATM   32  C   UNL     1     -10.675   6.907  71.200  1.00  0.00    -0.252 A  
ENDBRANCH  24  26
ENDBRANCH  20  21
ENDBRANCH  16  20
ENDBRANCH   1  13
BRANCH   4  33
HETATM   33  C   UNL     1     -12.567   5.631  63.241  1.00  0.00     7.985 C  
HETATM   34  O   UNL     1     -13.690   5.218  64.027  1.00  0.00     6.087 OA 
HETATM   35  H   UNL     1     -14.493   5.551  63.644  1.00  0.00     0.000 HD 
ENDBRANCH   4  33
TORSDOF 5
ENDMDL
MODEL      223
REMARK 921   NORMALIZED FREE ENERGY PREDICTED BY IDOCK:   32.64 KCAL/MOL
REMARK 922        TOTAL FREE ENERGY PREDICTED BY IDOCK:   41.59 KCAL/MOL
REMARK 923 INTER-LIGAND FREE ENERGY PREDICTED BY IDOCK:   42.36 KCAL/MOL
REMARK 924 INTRA-LIGAND FREE ENERGY PREDICTED BY IDOCK:   -0.78 KCAL/MOL
REMARK 927      BINDING AFFINITY PREDICTED BY RF-SCORE:    0.00 PKD
ROOT
HETATM    1  C   UNL     1      -9.857  14.998  64.903  1.00  0.00     0.132 C  
HETATM    2  O   UNL     1      -9.231  15.807  63.884  1.00  0.00     5.286 OA 
HETATM    3  H   UNL     1      -8.864  13.515  67.652  1.00  0.00     0.000 HD 
HETATM    4  C   UNL     1      -8.578  16.964  64.413  1.00  0.00     8.012 C  
HETATM    5  O   UNL     1      -9.499  13.826  67.018  1.00  0.00    -0.236 OA 
HETATM    6  C   UNL     1      -7.435  16.552  65.351  1.00  0.00     2.850 C  
HETATM    7  H   UNL     1      -7.275  14.680  68.004  1.00  0.00     0.000 HD 
HETATM    8  O   UNL     1      -6.924  15.220  67.306  1.00  0.00    -0.193 OA 
HETATM    9  O   UNL     1      -6.790  17.674  65.973  1.00  0.00    -0.270 OA 
HETATM   10  C   UNL     1      -8.001  15.682  66.475  1.00  0.00    -0.062 C  
HETATM   11  H   UNL     1      -6.083  17.419  66.553  1.00  0.00     0.000 HD 
HETATM   12  C   UNL     1      -8.824  14.492  65.936  1.00  0.00     0.589 C  
ENDROOT
BRANCH   1  13
HETATM   13  C   UNL     1     -10.631  13.869  64.228  1.00  0.00    -0.083 A  
HETATM   14  C   UNL     1     -12.039  11.665  63.117  1.00  0.00    -0.133 A  
HETATM   15  C   UNL     1     -12.827  10.475  62.635  1.00  0.00     5.052 C  
HETATM   16  C   UNL     1     -10.632  11.699  63.051  1.00  0.00    -0.224 A  
HETATM   17  C   UNL     1     -12.029  13.822  64.258  1.00  0.00    -0.481 A  
HETATM   18  C   UNL     1     -12.720  12.737  63.710  1.00  0.00    -0.277 A  
HETATM   19  C   UNL     1      -9.951  12.817  63.584  1.00  0.00     0.263 A  
BRANCH  16  20
HETATM   20  C   UNL     1      -9.825  10.518  62.542  1.00  0.00    -0.049 C  
BRANCH  20  21
HETATM   21  C   UNL     1      -9.493   9.422  63.517  1.00  0.00     0.565 A  
HETATM   22  C   UNL     1      -8.754   8.266  63.368  1.00  0.00     0.312 A  
HETATM   23  C   UNL     1      -8.453   7.651  64.629  1.00  0.00     0.077 A  
HETATM   24  C   UNL     1      -8.960   8.355  65.710  1.00  0.00    -0.159 A  
HETATM   25  S   UNL     1      -9.987   9.615  65.148  1.00  0.00     0.196 SA 
BRANCH  24  26
HETATM   26  C   UNL     1      -8.718   8.171  67.159  1.00  0.00    -0.130 A  
HETATM   27  C   UNL     1      -8.134   9.192  67.933  1.00  0.00    -0.105 A  
HETATM   28  C   UNL     1      -7.833   8.998  69.285  1.00  0.00    -0.095 A  
HETATM   29  C   UNL     1      -8.097   7.772  69.874  1.00  0.00    -0.120 A  
HETATM   30  F   UNL     1      -7.781   7.577  71.162  1.00  0.00    -0.083 F  
HETATM   31  C   UNL     1      -8.679   6.746  69.142  1.00  0.00    -0.131 A  
HETATM   32  C   UNL     1      -8.990   6.944  67.791  1.00  0.00    -0.117 A  
ENDBRANCH  24  26
ENDBRANCH  20  21
ENDBRANCH  16  20
ENDBRANCH   1  13
BRANCH   4  33
HETATM   33  C   UNL     1      -8.061  17.824  63.254  1.00  0.00    19.328 C  
HETATM   34  O   UNL     1      -6.875  18.518  63.653  1.00  0.00     2.653 OA 
HETATM   35  H   UNL     1      -6.555  19.050  62.935  1.00  0.00     0.000 HD 
ENDBRANCH   4  33
TORSDOF 5
ENDMDL
MODEL      224
REMARK 921   NORMALIZED FREE ENERGY PREDICTED BY IDOCK:   37.47 KCAL/MOL
REMARK 922        TOTAL FREE ENERGY PREDICTED BY IDOCK:   47.83 KCAL/MOL
REMARK 923 INTER-LIGAND FREE ENERGY PREDICTED BY IDOCK:   48.43 KCAL/MOL
REMARK 924 INTRA-LIGAND FREE ENERGY PREDICTED BY IDOCK:   -0.61 KCAL/MOL
REMARK 927      BINDING AFFINITY PREDICTED BY RF-SCORE:    0.00 PKD
ROOT
HETATM    1  C   UNL     1     -11.839  11.886  66.819  1.00  0.00    -0.087 C  
HETATM    2  O   UNL     1     -12.787  12.913  67.185  1.00  0.00     0.454 OA 
HETATM    3  H   UNL     1     -10.925  10.434  64.027  1.00  0.00     0.000 HD 
HETATM    4  C   UNL     1     -12.585  14.138  66.475  1.00  0.00    -0.128 C  
HETATM    5  O   UNL     1     -10.870  10.642  64.952  1.00  0.00    -0.125 OA 
HETATM    6  C   UNL     1     -12.792  13.924  64.969  1.00  0.00    -0.268 C  
HETATM    7  H   UNL     1     -11.476  11.906  62.788  1.00  0.00     0.000 HD 
HETATM    8  O   UNL     1     -12.076  12.576  63.091  1.00  0.00    -0.462 OA 
HETATM    9  O   UNL     1     -12.528  15.104  64.195  1.00  0.00    -0.779 OA 
HETATM   10  C   UNL     1     -11.826  12.844  64.480  1.00  0.00    -0.375 C  
HETATM   11  H   UNL     1     -12.657  14.973  63.264  1.00  0.00     0.000 HD 
HETATM   12  C   UNL     1     -11.928  11.548  65.313  1.00  0.00     0.505 C  
ENDROOT
BRANCH   1  13
HETATM   13  C   UNL     1     -12.055  10.674  67.720  1.00  0.00     1.156 A  
HETATM   14  C   UNL     1     -12.635   8.437  69.374  1.00  0.00     3.174 A  
HETATM   15  C   UNL     1     -13.027   7.223  70.174  1.00  0.00     1.120 C  
HETATM   16  C   UNL     1     -12.747   9.740  69.898  1.00  0.00     0.613 A  
HETATM   17  C   UNL     1     -11.928   9.369  67.232  1.00  0.00     4.124 A  
HETATM   18  C   UNL     1     -12.213   8.270  68.047  1.00  0.00     4.949 A  
HETATM   19  C   UNL     1     -12.427  10.839  69.069  1.00  0.00     0.339 A  
BRANCH  16  20
HETATM   20  C   UNL     1     -13.320  10.001  71.279  1.00  0.00    -0.410 C  
BRANCH  20  21
HETATM   21  C   UNL     1     -12.735  11.132  72.080  1.00  0.00    -0.039 A  
HETATM   22  C   UNL     1     -11.427  11.451  72.381  1.00  0.00     5.660 A  
HETATM   23  C   UNL     1     -11.305  12.770  72.930  1.00  0.00     8.181 A  
HETATM   24  C   UNL     1     -12.519  13.431  73.027  1.00  0.00     1.159 A  
HETATM   25  S   UNL     1     -13.800  12.341  72.666  1.00  0.00     1.059 SA 
BRANCH  24  26
HETATM   26  C   UNL     1     -12.805  14.847  73.353  1.00  0.00    -0.638 A  
HETATM   27  C   UNL     1     -14.110  15.367  73.254  1.00  0.00     0.627 A  
HETATM   28  C   UNL     1     -14.374  16.720  73.488  1.00  0.00     2.223 A  
HETATM   29  C   UNL     1     -13.330  17.574  73.807  1.00  0.00     3.390 A  
HETATM   30  F   UNL     1     -13.579  18.876  74.000  1.00  0.00     5.859 F  
HETATM   31  C   UNL     1     -12.033  17.094  73.919  1.00  0.00     0.059 A  
HETATM   32  C   UNL     1     -11.770  15.736  73.696  1.00  0.00    -0.151 A  
ENDBRANCH  24  26
ENDBRANCH  20  21
ENDBRANCH  16  20
ENDBRANCH   1  13
BRANCH   4  33
HETATM   33  C   UNL     1     -13.545  15.200  67.022  1.00  0.00     5.568 C  
HETATM   34  O   UNL     1     -12.803  16.256  67.638  1.00  0.00     1.674 OA 
HETATM   35  H   UNL     1     -13.398  16.915  67.977  1.00  0.00     0.000 HD 
ENDBRANCH   4  33
TORSDOF 5
ENDMDL
MODEL      225
REMARK 921   NORMALIZED FREE ENERGY PREDICTED BY IDOCK:   57.58 KCAL/MOL
REMARK 922        TOTAL FREE ENERGY PREDICTED BY IDOCK:   73.81 KCAL/MOL
REMARK 923 INTER-LIGAND FREE ENERGY PREDICTED BY IDOCK:   73.50 KCAL/MOL
REMARK 924 INTRA-LIGAND FREE ENERGY PREDICTED BY IDOCK:    0.31 KCAL/MOL
REMARK 927      BINDING AFFINITY PREDICTED BY RF-SCORE:    0.00 PKD
ROOT
HETATM    1  C   UNL     1     -10.446   7.332  65.630  1.00  0.00     2.418 C  
HETATM    2  O   UNL     1     -11.291   7.713  64.523  1.00  0.00    11.605 OA 
HETATM    3  H   UNL     1     -10.753   5.377  68.243  1.00  0.00     0.000 HD 
HETATM    4  C   UNL     1     -11.772   6.592  63.777  1.00  0.00    15.280 C  
HETATM    5  O   UNL     1     -10.289   5.935  67.630  1.00  0.00    -0.168 OA 
HETATM    6  C   UNL     1     -12.654   5.699  64.660  1.00  0.00     6.859 C  
HETATM    7  H   UNL     1     -12.184   4.192  67.501  1.00  0.00     0.000 HD 
HETATM    8  O   UNL     1     -12.688   4.477  66.748  1.00  0.00     9.856 OA 
HETATM    9  O   UNL     1     -13.105   4.515  63.985  1.00  0.00     5.420 OA 
HETATM   10  C   UNL     1     -11.842   5.240  65.873  1.00  0.00     2.170 C  
HETATM   11  H   UNL     1     -13.651   3.962  64.531  1.00  0.00     0.000 HD 
HETATM   12  C   UNL     1     -11.200   6.423  66.628  1.00  0.00     0.128 C  
ENDROOT
BRANCH   1  13
HETATM   13  C   UNL     1      -9.883   8.595  66.277  1.00  0.00    -0.320 A  
HETATM   14  C   UNL     1      -8.962  10.930  67.608  1.00  0.00    -0.140 A  
HETATM   15  C   UNL     1      -8.494  12.112  68.415  1.00  0.00    -0.145 C  
HETATM   16  C   UNL     1     -10.087  11.006  66.763  1.00  0.00    -0.260 A  
HETATM   17  C   UNL     1      -8.755   8.551  67.102  1.00  0.00    -0.134 A  
HETATM   18  C   UNL     1      -8.303   9.701  67.756  1.00  0.00    -0.121 A  
HETATM   19  C   UNL     1     -10.513   9.840  66.087  1.00  0.00    -0.128 A  
BRANCH  16  20
HETATM   20  C   UNL     1     -10.924  12.267  66.656  1.00  0.00    -0.321 C  
BRANCH  20  21
HETATM   21  C   UNL     1     -10.211  13.591  66.712  1.00  0.00    -0.264 A  
HETATM   22  C   UNL     1      -9.185  14.103  65.945  1.00  0.00     0.093 A  
HETATM   23  C   UNL     1      -9.003  15.510  66.157  1.00  0.00    -0.329 A  
HETATM   24  C   UNL     1      -9.900  16.041  67.070  1.00  0.00    -0.236 A  
HETATM   25  S   UNL     1     -10.782  14.769  67.820  1.00  0.00    -0.274 SA 
BRANCH  24  26
HETATM   26  C   UNL     1     -10.172  17.454  67.420  1.00  0.00    -0.326 A  
HETATM   27  C   UNL     1      -9.155  18.426  67.362  1.00  0.00    -0.268 A  
HETATM   28  C   UNL     1      -9.386  19.746  67.762  1.00  0.00    -0.443 A  
HETATM   29  C   UNL     1     -10.635  20.104  68.244  1.00  0.00    -0.076 A  
HETATM   30  F   UNL     1     -10.847  21.362  68.656  1.00  0.00     0.468 F  
HETATM   31  C   UNL     1     -11.662  19.174  68.308  1.00  0.00     2.309 A  
HETATM   32  C   UNL     1     -11.434  17.854  67.896  1.00  0.00     0.841 A  
ENDBRANCH  24  26
ENDBRANCH  20  21
ENDBRANCH  16  20
ENDBRANCH   1  13
BRANCH   4  33
HETATM   33  C   UNL     1     -12.545   7.097  62.553  1.00  0.00    14.441 C  
HETATM   34  O   UNL     1     -13.891   6.614  62.593  1.00  0.00     5.565 OA 
HETATM   35  H   UNL     1     -14.370   6.927  61.835  1.00  0.00     0.000 HD 
ENDBRANCH   4  33
TORSDOF 5
ENDMDL
MODEL      226
REMARK 921   NORMALIZED FREE ENERGY PREDICTED BY IDOCK:   62.05 KCAL/MOL
REMARK 922        TOTAL FREE ENERGY PREDICTED BY IDOCK:   79.59 KCAL/MOL
REMARK 923 INTER-LIGAND FREE ENERGY PREDICTED BY IDOCK:   78.90 KCAL/MOL
REMARK 924 INTRA-LIGAND FREE ENERGY PREDICTED BY IDOCK:    0.68 KCAL/MOL
REMARK 927      BINDING AFFINITY PREDICTED BY RF-SCORE:    0.00 PKD
ROOT
HETATM    1  C   UNL     1      -9.961  14.600  70.537  1.00  0.00     1.062 C  
HETATM    2  O   UNL     1      -9.279  15.655  69.824  1.00  0.00    -0.255 OA 
HETATM    3  H   UNL     1      -9.221  12.599  73.026  1.00  0.00     0.000 HD 
HETATM    4  C   UNL     1      -8.817  16.700  70.683  1.00  0.00     3.715 C  
HETATM    5  O   UNL     1      -9.789  13.006  72.382  1.00  0.00    12.962 OA 
HETATM    6  C   UNL     1      -7.780  16.158  71.677  1.00  0.00     6.781 C  
HETATM    7  H   UNL     1      -7.812  13.750  73.860  1.00  0.00     0.000 HD 
HETATM    8  O   UNL     1      -7.421  14.454  73.357  1.00  0.00     3.259 OA 
HETATM    9  O   UNL     1      -7.335  17.148  72.617  1.00  0.00     9.664 OA 
HETATM   10  C   UNL     1      -8.412  15.024  72.488  1.00  0.00     7.741 C  
HETATM   11  H   UNL     1      -6.694  16.813  73.232  1.00  0.00     0.000 HD 
HETATM   12  C   UNL     1      -9.036  13.939  71.585  1.00  0.00     9.260 C  
ENDROOT
BRANCH   1  13
HETATM   13  C   UNL     1     -10.525  13.607  69.524  1.00  0.00     0.305 A  
HETATM   14  C   UNL     1     -11.611  11.646  67.777  1.00  0.00    -0.359 A  
HETATM   15  C   UNL     1     -12.268  10.587  66.932  1.00  0.00     3.468 C  
HETATM   16  C   UNL     1     -10.290  11.507  68.249  1.00  0.00    -0.211 A  
HETATM   17  C   UNL     1     -11.824  13.735  69.023  1.00  0.00    -0.397 A  
HETATM   18  C   UNL     1     -12.357  12.769  68.163  1.00  0.00     0.277 A  
HETATM   19  C   UNL     1      -9.758  12.506  69.094  1.00  0.00     0.480 A  
BRANCH  16  20
HETATM   20  C   UNL     1      -9.472  10.257  67.979  1.00  0.00    -0.156 C  
BRANCH  20  21
HETATM   21  C   UNL     1      -9.771   9.479  66.727  1.00  0.00    -0.197 A  
HETATM   22  C   UNL     1      -9.330   9.639  65.430  1.00  0.00    -0.320 A  
HETATM   23  C   UNL     1      -9.640   8.504  64.609  1.00  0.00     1.314 A  
HETATM   24  C   UNL     1     -10.299   7.500  65.301  1.00  0.00     3.477 A  
HETATM   25  S   UNL     1     -10.732   8.064  66.866  1.00  0.00     0.086 SA 
BRANCH  24  26
HETATM   26  C   UNL     1     -10.620   6.115  64.884  1.00  0.00     3.552 A  
HETATM   27  C   UNL     1     -11.398   5.863  63.738  1.00  0.00     7.263 A  
HETATM   28  C   UNL     1     -11.768   4.563  63.380  1.00  0.00     2.019 A  
HETATM   29  C   UNL     1     -11.378   3.499  64.178  1.00  0.00     0.744 A  
HETATM   30  F   UNL     1     -11.758   2.256  63.852  1.00  0.00     0.271 F  
HETATM   31  C   UNL     1     -10.605   3.711  65.311  1.00  0.00     0.396 A  
HETATM   32  C   UNL     1     -10.225   5.013  65.662  1.00  0.00    -0.088 A  
ENDBRANCH  24  26
ENDBRANCH  20  21
ENDBRANCH  16  20
ENDBRANCH   1  13
BRANCH   4  33
HETATM   33  C   UNL     1      -8.228  17.829  69.829  1.00  0.00     1.277 C  
HETATM   34  O   UNL     1      -8.480  19.092  70.452  1.00  0.00     1.510 OA 
HETATM   35  H   UNL     1      -8.115  19.792  69.923  1.00  0.00     0.000 HD 
ENDBRANCH   4  33
TORSDOF 5
ENDMDL
MODEL      227
REMARK 921   NORMALIZED FREE ENERGY PREDICTED BY IDOCK:   62.38 KCAL/MOL
REMARK 922        TOTAL FREE ENERGY PREDICTED BY IDOCK:   80.01 KCAL/MOL
REMARK 923 INTER-LIGAND FREE ENERGY PREDICTED BY IDOCK:   79.76 KCAL/MOL
REMARK 924 INTRA-LIGAND FREE ENERGY PREDICTED BY IDOCK:    0.25 KCAL/MOL
REMARK 927      BINDING AFFINITY PREDICTED BY RF-SCORE:    0.00 PKD
ROOT
HETATM    1  C   UNL     1      -8.854  14.287  66.329  1.00  0.00     0.159 C  
HETATM    2  O   UNL     1      -9.539  15.254  65.504  1.00  0.00    -0.317 OA 
HETATM    3  H   UNL     1      -5.746  13.315  66.703  1.00  0.00     0.000 HD 
HETATM    4  C   UNL     1      -9.017  16.578  65.644  1.00  0.00     0.264 C  
HETATM    5  O   UNL     1      -6.670  13.361  66.919  1.00  0.00     0.104 OA 
HETATM    6  C   UNL     1      -7.554  16.629  65.183  1.00  0.00     3.915 C  
HETATM    7  H   UNL     1      -4.879  14.987  66.027  1.00  0.00     0.000 HD 
HETATM    8  O   UNL     1      -5.386  15.607  65.518  1.00  0.00     4.625 OA 
HETATM    9  O   UNL     1      -6.952  17.918  65.372  1.00  0.00    -0.434 OA 
HETATM   10  C   UNL     1      -6.737  15.629  66.004  1.00  0.00     3.413 C  
HETATM   11  H   UNL     1      -6.047  17.950  65.087  1.00  0.00     0.000 HD 
HETATM   12  C   UNL     1      -7.350  14.212  65.978  1.00  0.00     4.306 C  
ENDROOT
BRANCH   1  13
HETATM   13  C   UNL     1      -9.566  12.943  66.206  1.00  0.00    -0.245 A  
HETATM   14  C   UNL     1     -11.043  10.522  66.032  1.00  0.00     0.241 A  
HETATM   15  C   UNL     1     -11.915   9.301  65.895  1.00  0.00     7.583 C  
HETATM   16  C   UNL     1     -10.586  10.972  67.286  1.00  0.00    -0.287 A  
HETATM   17  C   UNL     1     -10.009  12.461  64.970  1.00  0.00    -0.219 A  
HETATM   18  C   UNL     1     -10.735  11.270  64.886  1.00  0.00    -0.337 A  
HETATM   19  C   UNL     1      -9.829  12.164  67.350  1.00  0.00    -0.193 A  
BRANCH  16  20
HETATM   20  C   UNL     1     -10.990  10.286  68.579  1.00  0.00    -0.294 C  
BRANCH  20  21
HETATM   21  C   UNL     1     -10.417  10.816  69.864  1.00  0.00    -0.004 A  
HETATM   22  C   UNL     1     -10.166  10.198  71.072  1.00  0.00     0.587 A  
HETATM   23  C   UNL     1      -9.352  11.005  71.934  1.00  0.00    10.855 A  
HETATM   24  C   UNL     1      -8.992  12.215  71.362  1.00  0.00    14.425 A  
HETATM   25  S   UNL     1      -9.849  12.435  69.888  1.00  0.00     2.691 SA 
BRANCH  24  26
HETATM   26  C   UNL     1      -8.023  13.233  71.829  1.00  0.00    10.598 A  
HETATM   27  C   UNL     1      -8.292  14.609  71.692  1.00  0.00     4.877 A  
HETATM   28  C   UNL     1      -7.350  15.574  72.062  1.00  0.00     4.860 A  
HETATM   29  C   UNL     1      -6.119  15.173  72.556  1.00  0.00     1.190 A  
HETATM   30  F   UNL     1      -5.206  16.098  72.882  1.00  0.00     0.327 F  
HETATM   31  C   UNL     1      -5.824  13.826  72.711  1.00  0.00     0.358 A  
HETATM   32  C   UNL     1      -6.772  12.859  72.351  1.00  0.00     5.311 A  
ENDBRANCH  24  26
ENDBRANCH  20  21
ENDBRANCH  16  20
ENDBRANCH   1  13
BRANCH   4  33
HETATM   33  C   UNL     1      -9.887  17.549  64.837  1.00  0.00     2.369 C  
HETATM   34  O   UNL     1     -11.193  16.996  64.653  1.00  0.00    -0.968 OA 
HETATM   35  H   UNL     1     -11.732  17.598  64.153  1.00  0.00     0.000 HD 
ENDBRANCH   4  33
TORSDOF 5
ENDMDL
MODEL      228
REMARK 921   NORMALIZED FREE ENERGY PREDICTED BY IDOCK:   73.63 KCAL/MOL
REMARK 922        TOTAL FREE ENERGY PREDICTED BY IDOCK:   94.55 KCAL/MOL
REMARK 923 INTER-LIGAND FREE ENERGY PREDICTED BY IDOCK:   95.46 KCAL/MOL
REMARK 924 INTRA-LIGAND FREE ENERGY PREDICTED BY IDOCK:   -0.91 KCAL/MOL
REMARK 927      BINDING AFFINITY PREDICTED BY RF-SCORE:    0.00 PKD
ROOT
HETATM    1  C   UNL     1      -9.877  14.966  64.844  1.00  0.00     0.113 C  
HETATM    2  O   UNL     1      -9.252  15.645  63.734  1.00  0.00     6.155 OA 
HETATM    3  H   UNL     1      -8.825  13.432  67.543  1.00  0.00     0.000 HD 
HETATM    4  C   UNL     1      -8.387  16.707  64.145  1.00  0.00    11.173 C  
HETATM    5  O   UNL     1      -9.472  13.815  66.962  1.00  0.00    -0.236 OA 
HETATM    6  C   UNL     1      -7.223  16.157  64.981  1.00  0.00     7.133 C  
HETATM    7  H   UNL     1      -7.056  14.358  67.683  1.00  0.00     0.000 HD 
HETATM    8  O   UNL     1      -6.707  14.821  66.931  1.00  0.00     0.010 OA 
HETATM    9  O   UNL     1      -6.361  17.188  65.486  1.00  0.00     0.243 OA 
HETATM   10  C   UNL     1      -7.787  15.413  66.192  1.00  0.00     1.148 C  
HETATM   11  H   UNL     1      -5.640  16.848  66.002  1.00  0.00     0.000 HD 
HETATM   12  C   UNL     1      -8.825  14.343  65.790  1.00  0.00     0.876 C  
ENDROOT
BRANCH   1  13
HETATM   13  C   UNL     1     -10.873  13.946  64.300  1.00  0.00    -0.185 A  
HETATM   14  C   UNL     1     -12.694  11.944  63.433  1.00  0.00    -0.496 A  
HETATM   15  C   UNL     1     -13.693  10.873  63.085  1.00  0.00     4.165 C  
HETATM   16  C   UNL     1     -11.311  11.764  63.233  1.00  0.00    -0.347 A  
HETATM   17  C   UNL     1     -12.252  14.112  64.464  1.00  0.00    -0.468 A  
HETATM   18  C   UNL     1     -13.147  13.126  64.037  1.00  0.00     0.506 A  
HETATM   19  C   UNL     1     -10.423  12.783  63.646  1.00  0.00    -0.239 A  
BRANCH  16  20
HETATM   20  C   UNL     1     -10.742  10.459  62.706  1.00  0.00     1.417 C  
BRANCH  20  21
HETATM   21  C   UNL     1     -10.536   9.336  63.686  1.00  0.00     4.532 A  
HETATM   22  C   UNL     1     -11.400   8.740  64.581  1.00  0.00    10.463 A  
HETATM   23  C   UNL     1     -10.868   7.520  65.116  1.00  0.00     6.485 A  
HETATM   24  C   UNL     1      -9.615   7.208  64.611  1.00  0.00     2.463 A  
HETATM   25  S   UNL     1      -9.023   8.528  63.680  1.00  0.00     0.830 SA 
BRANCH  24  26
HETATM   26  C   UNL     1      -8.818   5.969  64.753  1.00  0.00     0.206 A  
HETATM   27  C   UNL     1      -9.065   5.061  65.801  1.00  0.00    -0.154 A  
HETATM   28  C   UNL     1      -8.268   3.928  65.985  1.00  0.00    -0.101 A  
HETATM   29  C   UNL     1      -7.200   3.698  65.132  1.00  0.00    -0.067 A  
HETATM   30  F   UNL     1      -6.418   2.628  65.328  1.00  0.00    -0.024 F  
HETATM   31  C   UNL     1      -6.932   4.568  64.085  1.00  0.00    -0.046 A  
HETATM   32  C   UNL     1      -7.738   5.698  63.893  1.00  0.00    -0.095 A  
ENDBRANCH  24  26
ENDBRANCH  20  21
ENDBRANCH  16  20
ENDBRANCH   1  13
BRANCH   4  33
HETATM   33  C   UNL     1      -7.876  17.448  62.903  1.00  0.00    22.616 C  
HETATM   34  O   UNL     1      -8.672  18.613  62.669  1.00  0.00    17.384 OA 
HETATM   35  H   UNL     1      -8.356  19.072  61.900  1.00  0.00     0.000 HD 
ENDBRANCH   4  33
TORSDOF 5
ENDMDL
