MODEL        1
REMARK 921   NORMALIZED FREE ENERGY PREDICTED BY IDOCK:   -8.14 KCAL/MOL
REMARK 922        TOTAL FREE ENERGY PREDICTED BY IDOCK:  -16.78 KCAL/MOL
REMARK 923 INTER-LIGAND FREE ENERGY PREDICTED BY IDOCK:  -14.33 KCAL/MOL
REMARK 924 INTRA-LIGAND FREE ENERGY PREDICTED BY IDOCK:   -2.45 KCAL/MOL
REMARK 927      BINDING AFFINITY PREDICTED BY RF-SCORE:    0.00 PKD
ROOT
HETATM    1  C   UNL     1      -6.882   9.923  63.804  1.00  0.00    -0.125 C  
HETATM    2  C   UNL     1      -8.284   9.367  63.635  1.00  0.00    -0.169 C  
ENDROOT
BRANCH   2   3
HETATM    3  O   UNL     1      -8.992   9.587  64.860  1.00  0.00    -0.197 OA 
BRANCH   3   4
HETATM    4  C   UNL     1      -9.799  10.645  64.856  1.00  0.00    -0.302 A  
HETATM    5  N   UNL     1     -10.462  11.072  63.807  1.00  0.00    -0.369 NA 
HETATM    6  C   UNL     1     -11.146  12.168  64.246  1.00  0.00    -0.346 A  
HETATM    7  C   UNL     1     -10.963  12.392  65.625  1.00  0.00    -0.286 A  
HETATM    8  C   UNL     1     -11.696  13.417  66.272  1.00  0.00    -0.405 A  
HETATM    9  N   UNL     1      -9.994  11.453  65.956  1.00  0.00    -0.222 NA 
HETATM   10  C   UNL     1     -12.626  14.067  64.089  1.00  0.00    -0.127 A  
HETATM   11  C   UNL     1     -11.950  13.022  63.473  1.00  0.00    -0.615 A  
HETATM   12  C   UNL     1     -12.521  14.235  65.465  1.00  0.00    -0.434 A  
BRANCH   9  13
HETATM   13  C   UNL     1      -9.131  11.365  67.135  1.00  0.00    -0.164 C  
BRANCH  13  14
HETATM   14  C   UNL     1      -9.629  10.381  68.163  1.00  0.00    -0.155 A  
HETATM   15  C   UNL     1      -9.541   8.221  69.250  1.00  0.00    -0.164 A  
HETATM   16  C   UNL     1     -10.016   8.781  70.448  1.00  0.00    -0.219 A  
HETATM   17  C   UNL     1     -10.418  10.844  69.218  1.00  0.00    -0.230 A  
HETATM   18  C   UNL     1      -9.289   9.030  68.134  1.00  0.00    -0.151 A  
HETATM   19  C   UNL     1     -10.591  10.059  70.357  1.00  0.00    -0.343 A  
BRANCH  16  20
HETATM   20  C   UNL     1      -9.790   8.141  71.778  1.00  0.00    -0.256 A  
HETATM   21  C   UNL     1      -8.481   7.741  72.139  1.00  0.00    -0.159 A  
HETATM   22  C   UNL     1     -10.841   7.805  72.685  1.00  0.00    -0.413 A  
HETATM   23  C   UNL     1      -8.206   7.062  73.330  1.00  0.00    -0.126 A  
HETATM   24  C   UNL     1     -10.527   7.177  73.912  1.00  0.00    -0.288 A  
HETATM   25  C   UNL     1      -9.226   6.798  74.228  1.00  0.00    -0.246 A  
BRANCH  22  26
HETATM   26  C   UNL     1     -12.276   8.001  72.443  1.00  0.00    -0.287 A  
HETATM   27  N   UNL     1     -13.052   8.927  72.980  1.00  0.00    -0.783 NA 
HETATM   28  H   UNL     1     -12.767   9.654  73.636  1.00  0.00     0.000 HD 
HETATM   29  N   UNL     1     -14.316   8.724  72.481  1.00  0.00    -0.584 NA 
HETATM   30  N   UNL     1     -14.340   7.678  71.670  1.00  0.00    -0.456 NA 
HETATM   31  N   UNL     1     -13.088   7.202  71.681  1.00  0.00    -0.382 NA 
ENDBRANCH  22  26
ENDBRANCH  16  20
ENDBRANCH  13  14
ENDBRANCH   9  13
BRANCH   8  32
HETATM   32  C   UNL     1     -11.552  13.796  67.698  1.00  0.00    -0.347 C  
HETATM   33  O   UNL     1     -12.427  13.615  68.529  1.00  0.00    -0.095 OA 
BRANCH  32  34
HETATM   34  O   UNL     1     -10.273  14.145  67.989  1.00  0.00    -0.224 OA 
BRANCH  34  35
HETATM   35  C   UNL     1     -10.118  15.561  68.166  1.00  0.00    -0.218 C  
HETATM   36  C   UNL     1      -9.126  15.725  69.319  1.00  0.00    -0.263 C  
BRANCH  35  37
HETATM   37  O   UNL     1      -9.494  16.196  67.050  1.00  0.00    -0.216 OA 
BRANCH  37  38
HETATM   38  C   UNL     1     -10.275  17.029  66.327  1.00  0.00    -0.329 C  
HETATM   39  O   UNL     1     -10.430  17.010  65.119  1.00  0.00    -0.667 OA 
BRANCH  38  40
HETATM   40  O   UNL     1     -10.867  17.860  67.206  1.00  0.00    -0.312 OA 
BRANCH  40  41
HETATM   41  C   UNL     1     -10.605  19.280  67.287  1.00  0.00    -0.484 C  
HETATM   42  C   UNL     1      -7.740  20.053  67.514  1.00  0.00    -0.333 C  
HETATM   43  C   UNL     1      -9.919  19.528  68.632  1.00  0.00    -0.538 C  
HETATM   44  C   UNL     1      -8.430  19.203  68.572  1.00  0.00    -0.399 C  
HETATM   45  C   UNL     1      -8.362  19.878  66.132  1.00  0.00    -0.345 C  
HETATM   46  C   UNL     1      -9.890  19.979  66.125  1.00  0.00    -0.553 C  
ENDBRANCH  40  41
ENDBRANCH  38  40
ENDBRANCH  37  38
ENDBRANCH  35  37
ENDBRANCH  34  35
ENDBRANCH  32  34
ENDBRANCH   8  32
ENDBRANCH   3   4
ENDBRANCH   2   3
TORSDOF 13
ENDMDL
MODEL        2
REMARK 921   NORMALIZED FREE ENERGY PREDICTED BY IDOCK:   -7.96 KCAL/MOL
REMARK 922        TOTAL FREE ENERGY PREDICTED BY IDOCK:  -16.46 KCAL/MOL
REMARK 923 INTER-LIGAND FREE ENERGY PREDICTED BY IDOCK:  -13.16 KCAL/MOL
REMARK 924 INTRA-LIGAND FREE ENERGY PREDICTED BY IDOCK:   -3.30 KCAL/MOL
REMARK 927      BINDING AFFINITY PREDICTED BY RF-SCORE:    0.00 PKD
ROOT
HETATM    1  C   UNL     1      -6.535  11.255  67.646  1.00  0.00    -0.067 C  
HETATM    2  C   UNL     1      -6.243  10.790  69.062  1.00  0.00    -0.042 C  
ENDROOT
BRANCH   2   3
HETATM    3  O   UNL     1      -6.452   9.375  69.108  1.00  0.00    -0.041 OA 
BRANCH   3   4
HETATM    4  C   UNL     1      -7.011   8.930  70.231  1.00  0.00    -0.047 A  
HETATM    5  N   UNL     1      -6.392   8.835  71.384  1.00  0.00    -0.062 NA 
HETATM    6  C   UNL     1      -7.326   8.333  72.243  1.00  0.00    -0.105 A  
HETATM    7  C   UNL     1      -8.584   8.175  71.629  1.00  0.00    -0.140 A  
HETATM    8  C   UNL     1      -9.699   7.778  72.407  1.00  0.00    -0.249 A  
HETATM    9  N   UNL     1      -8.307   8.463  70.298  1.00  0.00    -0.119 NA 
HETATM   10  C   UNL     1      -8.203   7.537  74.345  1.00  0.00    -0.248 A  
HETATM   11  C   UNL     1      -7.127   7.985  73.590  1.00  0.00    -0.158 A  
HETATM   12  C   UNL     1      -9.465   7.468  73.767  1.00  0.00    -0.330 A  
BRANCH   9  13
HETATM   13  C   UNL     1      -9.083   8.178  69.091  1.00  0.00    -0.148 C  
BRANCH  13  14
HETATM   14  C   UNL     1      -9.716   9.407  68.488  1.00  0.00    -0.160 A  
HETATM   15  C   UNL     1     -10.482  11.696  68.650  1.00  0.00    -0.234 A  
HETATM   16  C   UNL     1     -10.235  11.898  67.281  1.00  0.00    -0.220 A  
HETATM   17  C   UNL     1      -9.813   9.506  67.098  1.00  0.00    -0.239 A  
HETATM   18  C   UNL     1     -10.163  10.476  69.261  1.00  0.00    -0.245 A  
HETATM   19  C   UNL     1     -10.048  10.745  66.503  1.00  0.00    -0.277 A  
BRANCH  16  20
HETATM   20  C   UNL     1     -10.020  13.254  66.695  1.00  0.00    -0.272 A  
HETATM   21  C   UNL     1      -9.216  14.189  67.392  1.00  0.00    -0.204 A  
HETATM   22  C   UNL     1     -10.668  13.718  65.510  1.00  0.00    -0.304 A  
HETATM   23  C   UNL     1      -9.038  15.503  66.947  1.00  0.00    -0.264 A  
HETATM   24  C   UNL     1     -10.420  15.030  65.049  1.00  0.00    -0.415 A  
HETATM   25  C   UNL     1      -9.623  15.919  65.763  1.00  0.00    -0.339 A  
BRANCH  22  26
HETATM   26  C   UNL     1     -11.649  12.962  64.719  1.00  0.00    -0.331 A  
HETATM   27  N   UNL     1     -12.909  12.719  65.040  1.00  0.00    -0.821 NA 
HETATM   28  H   UNL     1     -13.393  13.030  65.882  1.00  0.00     0.000 HD 
HETATM   29  N   UNL     1     -13.439  11.968  64.020  1.00  0.00    -0.432 NA 
HETATM   30  N   UNL     1     -12.529  11.722  63.091  1.00  0.00    -0.368 NA 
HETATM   31  N   UNL     1     -11.407  12.298  63.545  1.00  0.00    -0.459 NA 
ENDBRANCH  22  26
ENDBRANCH  16  20
ENDBRANCH  13  14
ENDBRANCH   9  13
BRANCH   8  32
HETATM   32  C   UNL     1     -11.058   7.516  71.876  1.00  0.00    -0.239 C  
HETATM   33  O   UNL     1     -11.287   6.697  71.002  1.00  0.00    -0.280 OA 
BRANCH  32  34
HETATM   34  O   UNL     1     -12.008   8.124  72.631  1.00  0.00    -0.381 OA 
BRANCH  34  35
HETATM   35  C   UNL     1     -12.919   8.905  71.844  1.00  0.00    -0.382 C  
HETATM   36  C   UNL     1     -14.297   8.280  72.068  1.00  0.00    -0.541 C  
BRANCH  35  37
HETATM   37  O   UNL     1     -13.044  10.249  72.308  1.00  0.00    -0.396 OA 
BRANCH  37  38
HETATM   38  C   UNL     1     -13.098  11.204  71.352  1.00  0.00    -0.321 C  
HETATM   39  O   UNL     1     -13.170  11.021  70.150  1.00  0.00     0.054 OA 
BRANCH  38  40
HETATM   40  O   UNL     1     -13.083  12.389  71.991  1.00  0.00    -0.430 OA 
BRANCH  40  41
HETATM   41  C   UNL     1     -13.402  13.654  71.367  1.00  0.00    -0.248 C  
HETATM   42  C   UNL     1     -12.047  16.039  72.523  1.00  0.00    -0.635 C  
HETATM   43  C   UNL     1     -14.044  14.529  72.446  1.00  0.00    -0.544 C  
HETATM   44  C   UNL     1     -12.995  15.176  73.344  1.00  0.00    -0.642 C  
HETATM   45  C   UNL     1     -11.359  15.252  71.412  1.00  0.00    -0.419 C  
HETATM   46  C   UNL     1     -12.318  14.396  70.578  1.00  0.00    -0.413 C  
ENDBRANCH  40  41
ENDBRANCH  38  40
ENDBRANCH  37  38
ENDBRANCH  35  37
ENDBRANCH  34  35
ENDBRANCH  32  34
ENDBRANCH   8  32
ENDBRANCH   3   4
ENDBRANCH   2   3
TORSDOF 13
ENDMDL
MODEL        3
REMARK 921   NORMALIZED FREE ENERGY PREDICTED BY IDOCK:   -7.94 KCAL/MOL
REMARK 922        TOTAL FREE ENERGY PREDICTED BY IDOCK:  -16.42 KCAL/MOL
REMARK 923 INTER-LIGAND FREE ENERGY PREDICTED BY IDOCK:  -11.89 KCAL/MOL
REMARK 924 INTRA-LIGAND FREE ENERGY PREDICTED BY IDOCK:   -4.53 KCAL/MOL
REMARK 927      BINDING AFFINITY PREDICTED BY RF-SCORE:    0.00 PKD
ROOT
HETATM    1  C   UNL     1     -13.892  14.905  72.278  1.00  0.00    -0.588 C  
HETATM    2  C   UNL     1     -12.811  15.785  71.674  1.00  0.00    -0.448 C  
ENDROOT
BRANCH   2   3
HETATM    3  O   UNL     1     -11.768  14.930  71.195  1.00  0.00    -0.307 OA 
BRANCH   3   4
HETATM    4  C   UNL     1     -11.479  15.072  69.904  1.00  0.00    -0.289 A  
HETATM    5  N   UNL     1     -10.996  16.167  69.365  1.00  0.00    -0.309 NA 
HETATM    6  C   UNL     1     -10.859  15.875  68.039  1.00  0.00    -0.317 A  
HETATM    7  C   UNL     1     -11.200  14.538  67.751  1.00  0.00    -0.298 A  
HETATM    8  C   UNL     1     -11.001  14.031  66.443  1.00  0.00    -0.308 A  
HETATM    9  N   UNL     1     -11.704  14.088  68.965  1.00  0.00    -0.307 NA 
HETATM   10  C   UNL     1     -10.304  16.278  65.726  1.00  0.00    -0.393 A  
HETATM   11  C   UNL     1     -10.443  16.753  67.024  1.00  0.00    -0.285 A  
HETATM   12  C   UNL     1     -10.549  14.937  65.456  1.00  0.00    -0.373 A  
BRANCH   9  13
HETATM   13  C   UNL     1     -12.518  12.910  69.267  1.00  0.00     0.295 C  
BRANCH  13  14
HETATM   14  C   UNL     1     -11.726  11.783  69.882  1.00  0.00    -0.399 A  
HETATM   15  C   UNL     1     -11.568   9.825  71.294  1.00  0.00    -0.465 A  
HETATM   16  C   UNL     1     -10.522   9.315  70.506  1.00  0.00    -0.312 A  
HETATM   17  C   UNL     1     -10.485  11.451  69.337  1.00  0.00    -0.040 A  
HETATM   18  C   UNL     1     -12.207  11.022  70.945  1.00  0.00    -0.471 A  
HETATM   19  C   UNL     1      -9.901  10.219  69.630  1.00  0.00    -0.230 A  
BRANCH  16  20
HETATM   20  C   UNL     1     -10.180   7.862  70.469  1.00  0.00    -0.198 A  
HETATM   21  C   UNL     1     -10.989   6.981  69.710  1.00  0.00    -0.283 A  
HETATM   22  C   UNL     1      -9.136   7.273  71.244  1.00  0.00    -0.146 A  
HETATM   23  C   UNL     1     -10.780   5.598  69.695  1.00  0.00    -0.398 A  
HETATM   24  C   UNL     1      -8.906   5.881  71.160  1.00  0.00    -0.138 A  
HETATM   25  C   UNL     1      -9.724   5.049  70.403  1.00  0.00    -0.280 A  
BRANCH  22  26
HETATM   26  C   UNL     1      -8.276   7.982  72.202  1.00  0.00    -0.137 A  
HETATM   27  N   UNL     1      -7.040   8.404  71.997  1.00  0.00    -0.089 NA 
HETATM   28  H   UNL     1      -6.500   8.310  71.137  1.00  0.00     0.000 HD 
HETATM   29  N   UNL     1      -6.624   8.995  73.165  1.00  0.00    -0.316 NA 
HETATM   30  N   UNL     1      -7.567   8.925  74.091  1.00  0.00    -0.384 NA 
HETATM   31  N   UNL     1      -8.573   8.257  73.511  1.00  0.00    -0.295 NA 
ENDBRANCH  22  26
ENDBRANCH  16  20
ENDBRANCH  13  14
ENDBRANCH   9  13
BRANCH   8  32
HETATM   32  C   UNL     1     -11.372  12.668  65.993  1.00  0.00    -0.327 C  
HETATM   33  O   UNL     1     -12.515  12.343  65.720  1.00  0.00    -0.615 OA 
BRANCH  32  34
HETATM   34  O   UNL     1     -10.272  11.925  65.714  1.00  0.00    -0.227 OA 
BRANCH  34  35
HETATM   35  C   UNL     1     -10.495  10.995  64.643  1.00  0.00    -0.329 C  
HETATM   36  C   UNL     1      -9.960  11.679  63.384  1.00  0.00    -0.447 C  
BRANCH  35  37
HETATM   37  O   UNL     1      -9.721   9.802  64.772  1.00  0.00    -0.283 OA 
BRANCH  37  38
HETATM   38  C   UNL     1      -9.697   9.240  66.000  1.00  0.00    -0.289 C  
HETATM   39  O   UNL     1     -10.657   8.827  66.626  1.00  0.00    -0.226 OA 
BRANCH  38  40
HETATM   40  O   UNL     1      -8.406   9.203  66.381  1.00  0.00    -0.119 OA 
BRANCH  40  41
HETATM   41  C   UNL     1      -7.467   8.181  65.976  1.00  0.00    -0.080 C  
HETATM   42  C   UNL     1      -7.382   5.752  67.693  1.00  0.00    -0.077 C  
HETATM   43  C   UNL     1      -6.471   8.014  67.126  1.00  0.00    -0.057 C  
HETATM   44  C   UNL     1      -7.034   7.131  68.234  1.00  0.00    -0.076 C  
HETATM   45  C   UNL     1      -8.370   5.815  66.533  1.00  0.00    -0.111 C  
HETATM   46  C   UNL     1      -7.994   6.839  65.458  1.00  0.00    -0.119 C  
ENDBRANCH  40  41
ENDBRANCH  38  40
ENDBRANCH  37  38
ENDBRANCH  35  37
ENDBRANCH  34  35
ENDBRANCH  32  34
ENDBRANCH   8  32
ENDBRANCH   3   4
ENDBRANCH   2   3
TORSDOF 13
ENDMDL
MODEL        4
REMARK 921   NORMALIZED FREE ENERGY PREDICTED BY IDOCK:   -7.89 KCAL/MOL
REMARK 922        TOTAL FREE ENERGY PREDICTED BY IDOCK:  -16.34 KCAL/MOL
REMARK 923 INTER-LIGAND FREE ENERGY PREDICTED BY IDOCK:  -12.85 KCAL/MOL
REMARK 924 INTRA-LIGAND FREE ENERGY PREDICTED BY IDOCK:   -3.49 KCAL/MOL
REMARK 927      BINDING AFFINITY PREDICTED BY RF-SCORE:    0.00 PKD
ROOT
HETATM    1  C   UNL     1      -6.984   7.706  63.412  1.00  0.00    -0.064 C  
HETATM    2  C   UNL     1      -7.306   7.598  64.892  1.00  0.00    -0.075 C  
ENDROOT
BRANCH   2   3
HETATM    3  O   UNL     1      -8.637   7.085  65.013  1.00  0.00    -0.034 OA 
BRANCH   3   4
HETATM    4  C   UNL     1      -8.903   6.495  66.176  1.00  0.00    -0.150 A  
HETATM    5  N   UNL     1      -8.359   5.372  66.583  1.00  0.00    -0.108 NA 
HETATM    6  C   UNL     1      -8.916   5.136  67.806  1.00  0.00    -0.110 A  
HETATM    7  C   UNL     1      -9.780   6.174  68.207  1.00  0.00    -0.121 A  
HETATM    8  C   UNL     1     -10.351   6.149  69.503  1.00  0.00    -0.277 A  
HETATM    9  N   UNL     1      -9.832   6.976  67.074  1.00  0.00    -0.170 NA 
HETATM   10  C   UNL     1      -9.312   3.950  69.870  1.00  0.00    -0.245 A  
HETATM   11  C   UNL     1      -8.707   4.010  68.621  1.00  0.00    -0.130 A  
HETATM   12  C   UNL     1     -10.090   5.015  70.307  1.00  0.00    -0.339 A  
BRANCH   9  13
HETATM   13  C   UNL     1     -10.782   8.026  66.706  1.00  0.00    -0.007 C  
BRANCH  13  14
HETATM   14  C   UNL     1     -10.329   9.406  67.111  1.00  0.00    -0.326 A  
HETATM   15  C   UNL     1      -8.907  11.342  66.823  1.00  0.00    -0.170 A  
HETATM   16  C   UNL     1      -9.904  12.180  67.351  1.00  0.00    -0.193 A  
HETATM   17  C   UNL     1     -11.149  10.172  67.943  1.00  0.00    -0.303 A  
HETATM   18  C   UNL     1      -9.144   9.973  66.646  1.00  0.00    -0.169 A  
HETATM   19  C   UNL     1     -10.950  11.548  68.042  1.00  0.00    -0.284 A  
BRANCH  16  20
HETATM   20  C   UNL     1      -9.954  13.645  67.068  1.00  0.00    -0.248 A  
HETATM   21  C   UNL     1      -9.322  14.543  67.962  1.00  0.00    -0.201 A  
HETATM   22  C   UNL     1     -10.698  14.221  65.994  1.00  0.00    -0.304 A  
HETATM   23  C   UNL     1      -9.397  15.931  67.809  1.00  0.00    -0.207 A  
HETATM   24  C   UNL     1     -10.704  15.624  65.825  1.00  0.00    -0.350 A  
HETATM   25  C   UNL     1     -10.071  16.473  66.726  1.00  0.00    -0.290 A  
BRANCH  22  26
HETATM   26  C   UNL     1     -11.538  13.481  65.042  1.00  0.00    -0.327 A  
HETATM   27  N   UNL     1     -11.389  13.427  63.729  1.00  0.00    -0.592 NA 
HETATM   28  H   UNL     1     -10.660  13.882  63.180  1.00  0.00     0.000 HD 
HETATM   29  N   UNL     1     -12.404  12.637  63.247  1.00  0.00    -0.630 NA 
HETATM   30  N   UNL     1     -13.189  12.225  64.230  1.00  0.00    -0.761 NA 
HETATM   31  N   UNL     1     -12.681  12.785  65.337  1.00  0.00    -0.603 NA 
ENDBRANCH  22  26
ENDBRANCH  16  20
ENDBRANCH  13  14
ENDBRANCH   9  13
BRANCH   8  32
HETATM   32  C   UNL     1     -11.320   7.142  70.026  1.00  0.00    -0.206 C  
HETATM   33  O   UNL     1     -12.466   6.860  70.332  1.00  0.00    -0.201 OA 
BRANCH  32  34
HETATM   34  O   UNL     1     -10.709   8.316  70.326  1.00  0.00    -0.228 OA 
BRANCH  34  35
HETATM   35  C   UNL     1     -11.166   8.871  71.568  1.00  0.00    -0.326 C  
HETATM   36  C   UNL     1     -10.028   8.643  72.564  1.00  0.00    -0.257 C  
BRANCH  35  37
HETATM   37  O   UNL     1     -11.333  10.288  71.516  1.00  0.00    -0.129 OA 
BRANCH  37  38
HETATM   38  C   UNL     1     -12.600  10.731  71.358  1.00  0.00    -0.410 C  
HETATM   39  O   UNL     1     -13.517  10.125  70.832  1.00  0.00    -0.345 OA 
BRANCH  38  40
HETATM   40  O   UNL     1     -12.653  11.954  71.916  1.00  0.00    -0.147 OA 
BRANCH  40  41
HETATM   41  C   UNL     1     -13.101  13.145  71.228  1.00  0.00    -0.193 C  
HETATM   42  C   UNL     1     -12.134  15.725  72.353  1.00  0.00    -0.588 C  
HETATM   43  C   UNL     1     -13.909  13.962  72.239  1.00  0.00    -0.669 C  
HETATM   44  C   UNL     1     -13.003  14.771  73.161  1.00  0.00    -0.623 C  
HETATM   45  C   UNL     1     -11.291  15.000  71.310  1.00  0.00    -0.315 C  
HETATM   46  C   UNL     1     -12.082  13.998  70.464  1.00  0.00    -0.424 C  
ENDBRANCH  40  41
ENDBRANCH  38  40
ENDBRANCH  37  38
ENDBRANCH  35  37
ENDBRANCH  34  35
ENDBRANCH  32  34
ENDBRANCH   8  32
ENDBRANCH   3   4
ENDBRANCH   2   3
TORSDOF 13
ENDMDL
MODEL        5
REMARK 921   NORMALIZED FREE ENERGY PREDICTED BY IDOCK:   -7.73 KCAL/MOL
REMARK 922        TOTAL FREE ENERGY PREDICTED BY IDOCK:  -16.07 KCAL/MOL
REMARK 923 INTER-LIGAND FREE ENERGY PREDICTED BY IDOCK:  -12.63 KCAL/MOL
REMARK 924 INTRA-LIGAND FREE ENERGY PREDICTED BY IDOCK:   -3.43 KCAL/MOL
REMARK 927      BINDING AFFINITY PREDICTED BY RF-SCORE:    0.00 PKD
ROOT
HETATM    1  C   UNL     1      -8.741   9.441  63.455  1.00  0.00    -0.221 C  
HETATM    2  C   UNL     1      -9.637  10.571  62.980  1.00  0.00    -0.333 C  
ENDROOT
BRANCH   2   3
HETATM    3  O   UNL     1     -10.593  10.835  64.012  1.00  0.00    -0.332 OA 
BRANCH   3   4
HETATM    4  C   UNL     1     -10.621  12.095  64.438  1.00  0.00    -0.323 A  
HETATM    5  N   UNL     1     -11.184  13.088  63.790  1.00  0.00    -0.393 NA 
HETATM    6  C   UNL     1     -10.973  14.184  64.575  1.00  0.00    -0.328 A  
HETATM    7  C   UNL     1     -10.321  13.857  65.781  1.00  0.00    -0.316 A  
HETATM    8  C   UNL     1     -10.131  14.856  66.767  1.00  0.00    -0.254 A  
HETATM    9  N   UNL     1     -10.010  12.515  65.600  1.00  0.00    -0.259 NA 
HETATM   10  C   UNL     1     -11.088  16.507  65.216  1.00  0.00    -0.080 A  
HETATM   11  C   UNL     1     -11.327  15.511  64.278  1.00  0.00    -0.165 A  
HETATM   12  C   UNL     1     -10.531  16.173  66.444  1.00  0.00    -0.304 A  
BRANCH   9  13
HETATM   13  C   UNL     1      -9.064  11.663  66.321  1.00  0.00    -0.214 C  
BRANCH  13  14
HETATM   14  C   UNL     1      -9.599  11.164  67.640  1.00  0.00    -0.180 A  
HETATM   15  C   UNL     1     -11.400  10.313  69.013  1.00  0.00    -0.237 A  
HETATM   16  C   UNL     1     -10.484   9.611  69.816  1.00  0.00    -0.263 A  
HETATM   17  C   UNL     1      -8.699  10.768  68.630  1.00  0.00    -0.152 A  
HETATM   18  C   UNL     1     -10.963  11.033  67.893  1.00  0.00    -0.317 A  
HETATM   19  C   UNL     1      -9.135   9.981  69.695  1.00  0.00    -0.230 A  
BRANCH  16  20
HETATM   20  C   UNL     1     -10.878   8.429  70.639  1.00  0.00    -0.256 A  
HETATM   21  C   UNL     1     -11.100   8.597  72.027  1.00  0.00    -0.437 A  
HETATM   22  C   UNL     1     -10.946   7.097  70.131  1.00  0.00    -0.293 A  
HETATM   23  C   UNL     1     -11.390   7.524  72.875  1.00  0.00    -0.355 A  
HETATM   24  C   UNL     1     -11.305   6.039  70.997  1.00  0.00    -0.299 A  
HETATM   25  C   UNL     1     -11.514   6.246  72.357  1.00  0.00    -0.335 A  
BRANCH  22  26
HETATM   26  C   UNL     1     -10.615   6.685  68.760  1.00  0.00    -0.236 A  
HETATM   27  N   UNL     1     -11.455   6.543  67.749  1.00  0.00    -0.663 NA 
HETATM   28  H   UNL     1     -12.461   6.709  67.767  1.00  0.00     0.000 HD 
HETATM   29  N   UNL     1     -10.712   6.130  66.671  1.00  0.00    -0.266 NA 
HETATM   30  N   UNL     1      -9.438   5.991  67.001  1.00  0.00    -0.123 NA 
HETATM   31  N   UNL     1      -9.384   6.289  68.306  1.00  0.00    -0.114 NA 
ENDBRANCH  22  26
ENDBRANCH  16  20
ENDBRANCH  13  14
ENDBRANCH   9  13
BRANCH   8  32
HETATM   32  C   UNL     1      -9.410  14.660  68.048  1.00  0.00    -0.198 C  
HETATM   33  O   UNL     1      -9.975  14.453  69.108  1.00  0.00    -0.180 OA 
BRANCH  32  34
HETATM   34  O   UNL     1      -8.075  14.518  67.845  1.00  0.00    -0.128 OA 
BRANCH  34  35
HETATM   35  C   UNL     1      -7.295  15.102  68.898  1.00  0.00    -0.142 C  
HETATM   36  C   UNL     1      -6.270  14.037  69.291  1.00  0.00    -0.105 C  
BRANCH  35  37
HETATM   37  O   UNL     1      -6.518  16.218  68.461  1.00  0.00    -0.123 OA 
BRANCH  37  38
HETATM   38  C   UNL     1      -6.769  17.394  69.078  1.00  0.00    -0.243 C  
HETATM   39  O   UNL     1      -6.052  17.954  69.888  1.00  0.00    -0.238 OA 
BRANCH  38  40
HETATM   40  O   UNL     1      -7.950  17.833  68.603  1.00  0.00    -0.282 OA 
BRANCH  40  41
HETATM   41  C   UNL     1      -8.388  19.210  68.656  1.00  0.00    -0.368 C  
HETATM   42  C   UNL     1     -10.156  20.088  66.429  1.00  0.00    -0.609 C  
HETATM   43  C   UNL     1      -7.853  19.893  67.395  1.00  0.00    -0.321 C  
HETATM   44  C   UNL     1      -8.733  19.605  66.184  1.00  0.00    -0.361 C  
HETATM   45  C   UNL     1     -10.775  19.463  67.675  1.00  0.00    -0.536 C  
HETATM   46  C   UNL     1      -9.868  19.518  68.908  1.00  0.00    -0.522 C  
ENDBRANCH  40  41
ENDBRANCH  38  40
ENDBRANCH  37  38
ENDBRANCH  35  37
ENDBRANCH  34  35
ENDBRANCH  32  34
ENDBRANCH   8  32
ENDBRANCH   3   4
ENDBRANCH   2   3
TORSDOF 13
ENDMDL
MODEL        6
REMARK 921   NORMALIZED FREE ENERGY PREDICTED BY IDOCK:   -7.65 KCAL/MOL
REMARK 922        TOTAL FREE ENERGY PREDICTED BY IDOCK:  -15.92 KCAL/MOL
REMARK 923 INTER-LIGAND FREE ENERGY PREDICTED BY IDOCK:  -12.75 KCAL/MOL
REMARK 924 INTRA-LIGAND FREE ENERGY PREDICTED BY IDOCK:   -3.17 KCAL/MOL
REMARK 927      BINDING AFFINITY PREDICTED BY RF-SCORE:    0.00 PKD
ROOT
HETATM    1  C   UNL     1     -14.397   7.563  71.455  1.00  0.00    -0.603 C  
HETATM    2  C   UNL     1     -14.122   8.917  72.085  1.00  0.00    -0.429 C  
ENDROOT
BRANCH   2   3
HETATM    3  O   UNL     1     -12.928   9.440  71.493  1.00  0.00    -0.334 OA 
BRANCH   3   4
HETATM    4  C   UNL     1     -12.878  10.767  71.415  1.00  0.00    -0.452 A  
HETATM    5  N   UNL     1     -13.354  11.585  72.325  1.00  0.00    -0.252 NA 
HETATM    6  C   UNL     1     -13.098  12.835  71.841  1.00  0.00    -0.371 A  
HETATM    7  C   UNL     1     -12.381  12.800  70.629  1.00  0.00    -0.297 A  
HETATM    8  C   UNL     1     -11.927  14.009  70.048  1.00  0.00    -0.404 A  
HETATM    9  N   UNL     1     -12.360  11.443  70.331  1.00  0.00    -0.328 NA 
HETATM   10  C   UNL     1     -13.091  15.247  71.827  1.00  0.00    -0.488 A  
HETATM   11  C   UNL     1     -13.481  14.055  72.423  1.00  0.00    -0.639 A  
HETATM   12  C   UNL     1     -12.304  15.216  70.682  1.00  0.00    -0.420 A  
BRANCH   9  13
HETATM   13  C   UNL     1     -12.063  10.760  69.072  1.00  0.00    -0.098 C  
BRANCH  13  14
HETATM   14  C   UNL     1     -10.724  10.065  69.075  1.00  0.00    -0.244 A  
HETATM   15  C   UNL     1      -8.462   9.822  69.897  1.00  0.00    -0.217 A  
HETATM   16  C   UNL     1      -8.491   8.442  69.633  1.00  0.00    -0.127 A  
HETATM   17  C   UNL     1     -10.616   8.798  68.498  1.00  0.00    -0.171 A  
HETATM   18  C   UNL     1      -9.595  10.616  69.678  1.00  0.00     0.024 A  
HETATM   19  C   UNL     1      -9.520   7.988  68.793  1.00  0.00    -0.147 A  
BRANCH  16  20
HETATM   20  C   UNL     1      -7.587   7.474  70.320  1.00  0.00    -0.090 A  
HETATM   21  C   UNL     1      -6.354   7.129  69.714  1.00  0.00    -0.035 A  
HETATM   22  C   UNL     1      -7.933   6.779  71.518  1.00  0.00    -0.102 A  
HETATM   23  C   UNL     1      -5.495   6.168  70.257  1.00  0.00    -0.014 A  
HETATM   24  C   UNL     1      -7.018   5.860  72.080  1.00  0.00    -0.078 A  
HETATM   25  C   UNL     1      -5.816   5.548  71.452  1.00  0.00    -0.028 A  
BRANCH  22  26
HETATM   26  C   UNL     1      -9.216   6.881  72.227  1.00  0.00    -0.134 A  
HETATM   27  N   UNL     1      -9.450   7.532  73.354  1.00  0.00    -0.228 NA 
HETATM   28  H   UNL     1      -8.776   8.071  73.896  1.00  0.00     0.000 HD 
HETATM   29  N   UNL     1     -10.778   7.342  73.652  1.00  0.00    -0.317 NA 
HETATM   30  N   UNL     1     -11.360   6.570  72.748  1.00  0.00    -0.226 NA 
HETATM   31  N   UNL     1     -10.383   6.246  71.890  1.00  0.00    -0.202 NA 
ENDBRANCH  22  26
ENDBRANCH  16  20
ENDBRANCH  13  14
ENDBRANCH   9  13
BRANCH   8  32
HETATM   32  C   UNL     1     -11.218  14.117  68.751  1.00  0.00    -0.268 C  
HETATM   33  O   UNL     1     -10.013  13.973  68.634  1.00  0.00    -0.227 OA 
BRANCH  32  34
HETATM   34  O   UNL     1     -12.093  14.166  67.714  1.00  0.00    -0.367 OA 
BRANCH  34  35
HETATM   35  C   UNL     1     -11.434  14.157  66.439  1.00  0.00    -0.354 C  
HETATM   36  C   UNL     1     -11.565  12.725  65.918  1.00  0.00    -0.428 C  
BRANCH  35  37
HETATM   37  O   UNL     1     -12.095  14.965  65.465  1.00  0.00    -0.195 OA 
BRANCH  37  38
HETATM   38  C   UNL     1     -11.411  16.046  65.029  1.00  0.00    -0.156 C  
HETATM   39  O   UNL     1     -11.559  16.613  63.961  1.00  0.00    -1.197 OA 
BRANCH  38  40
HETATM   40  O   UNL     1     -10.557  16.385  66.013  1.00  0.00    -0.319 OA 
BRANCH  40  41
HETATM   41  C   UNL     1     -10.527  17.681  66.654  1.00  0.00    -0.286 C  
HETATM   42  C   UNL     1      -8.133  18.232  68.335  1.00  0.00    -0.322 C  
HETATM   43  C   UNL     1     -10.499  17.427  68.163  1.00  0.00    -0.389 C  
HETATM   44  C   UNL     1      -9.093  17.094  68.651  1.00  0.00    -0.268 C  
HETATM   45  C   UNL     1      -8.096  18.565  66.846  1.00  0.00    -0.254 C  
HETATM   46  C   UNL     1      -9.483  18.712  66.213  1.00  0.00    -0.267 C  
ENDBRANCH  40  41
ENDBRANCH  38  40
ENDBRANCH  37  38
ENDBRANCH  35  37
ENDBRANCH  34  35
ENDBRANCH  32  34
ENDBRANCH   8  32
ENDBRANCH   3   4
ENDBRANCH   2   3
TORSDOF 13
ENDMDL
MODEL        7
REMARK 921   NORMALIZED FREE ENERGY PREDICTED BY IDOCK:   -7.64 KCAL/MOL
REMARK 922        TOTAL FREE ENERGY PREDICTED BY IDOCK:  -15.90 KCAL/MOL
REMARK 923 INTER-LIGAND FREE ENERGY PREDICTED BY IDOCK:  -12.48 KCAL/MOL
REMARK 924 INTRA-LIGAND FREE ENERGY PREDICTED BY IDOCK:   -3.42 KCAL/MOL
REMARK 927      BINDING AFFINITY PREDICTED BY RF-SCORE:    0.00 PKD
ROOT
HETATM    1  C   UNL     1     -12.872   7.136  71.253  1.00  0.00    -0.399 C  
HETATM    2  C   UNL     1     -11.635   6.482  70.662  1.00  0.00    -0.381 C  
ENDROOT
BRANCH   2   3
HETATM    3  O   UNL     1     -11.203   7.284  69.558  1.00  0.00    -0.160 OA 
BRANCH   3   4
HETATM    4  C   UNL     1     -10.071   7.953  69.763  1.00  0.00    -0.199 A  
HETATM    5  N   UNL     1      -9.180   7.647  70.677  1.00  0.00    -0.161 NA 
HETATM    6  C   UNL     1      -8.200   8.587  70.540  1.00  0.00    -0.115 A  
HETATM    7  C   UNL     1      -8.450   9.463  69.466  1.00  0.00    -0.152 A  
HETATM    8  C   UNL     1      -7.475  10.426  69.105  1.00  0.00    -0.112 A  
HETATM    9  N   UNL     1      -9.726   9.089  69.063  1.00  0.00    -0.164 NA 
HETATM   10  C   UNL     1      -6.123   9.711  71.032  1.00  0.00    -0.077 A  
HETATM   11  C   UNL     1      -7.056   8.730  71.342  1.00  0.00    -0.099 A  
HETATM   12  C   UNL     1      -6.320  10.517  69.917  1.00  0.00    -0.104 A  
BRANCH   9  13
HETATM   13  C   UNL     1     -10.693   9.796  68.222  1.00  0.00    -0.233 C  
BRANCH  13  14
HETATM   14  C   UNL     1     -11.505  10.816  68.980  1.00  0.00    -0.368 A  
HETATM   15  C   UNL     1     -12.533  11.620  71.017  1.00  0.00    -0.436 A  
HETATM   16  C   UNL     1     -12.395  12.951  70.587  1.00  0.00    -0.385 A  
HETATM   17  C   UNL     1     -11.696  12.081  68.422  1.00  0.00    -0.390 A  
HETATM   18  C   UNL     1     -12.033  10.564  70.246  1.00  0.00    -0.411 A  
HETATM   19  C   UNL     1     -12.116  13.142  69.224  1.00  0.00    -0.270 A  
BRANCH  16  20
HETATM   20  C   UNL     1     -12.383  14.105  71.535  1.00  0.00    -0.395 A  
HETATM   21  C   UNL     1     -13.281  14.108  72.630  1.00  0.00    -0.612 A  
HETATM   22  C   UNL     1     -11.585  15.274  71.350  1.00  0.00    -0.446 A  
HETATM   23  C   UNL     1     -13.384  15.190  73.510  1.00  0.00    -0.172 A  
HETATM   24  C   UNL     1     -11.663  16.326  72.291  1.00  0.00    -0.530 A  
HETATM   25  C   UNL     1     -12.560  16.292  73.354  1.00  0.00    -0.589 A  
BRANCH  22  26
HETATM   26  C   UNL     1     -10.698  15.534  70.208  1.00  0.00    -0.333 A  
HETATM   27  N   UNL     1      -9.501  15.013  69.999  1.00  0.00    -0.432 NA 
HETATM   28  H   UNL     1      -9.016  14.343  70.596  1.00  0.00     0.000 HD 
HETATM   29  N   UNL     1      -9.036  15.548  68.823  1.00  0.00    -0.189 NA 
HETATM   30  N   UNL     1      -9.908  16.405  68.316  1.00  0.00    -0.224 NA 
HETATM   31  N   UNL     1     -10.918  16.432  69.196  1.00  0.00    -0.321 NA 
ENDBRANCH  22  26
ENDBRANCH  16  20
ENDBRANCH  13  14
ENDBRANCH   9  13
BRANCH   8  32
HETATM   32  C   UNL     1      -7.637  11.443  68.039  1.00  0.00    -0.110 C  
HETATM   33  O   UNL     1      -8.436  12.362  68.109  1.00  0.00    -0.167 OA 
BRANCH  32  34
HETATM   34  O   UNL     1      -6.648  11.350  67.115  1.00  0.00    -0.095 OA 
BRANCH  34  35
HETATM   35  C   UNL     1      -7.150  11.070  65.800  1.00  0.00     0.098 C  
HETATM   36  C   UNL     1      -6.058  10.255  65.106  1.00  0.00    -0.130 C  
BRANCH  35  37
HETATM   37  O   UNL     1      -8.296  10.218  65.812  1.00  0.00    -0.139 OA 
BRANCH  37  38
HETATM   38  C   UNL     1      -9.184  10.403  64.810  1.00  0.00    -0.230 C  
HETATM   39  O   UNL     1      -9.246   9.769  63.771  1.00  0.00    -0.258 OA 
BRANCH  38  40
HETATM   40  O   UNL     1      -9.998  11.403  65.197  1.00  0.00    -0.240 OA 
BRANCH  40  41
HETATM   41  C   UNL     1     -10.370  12.521  64.360  1.00  0.00    -0.352 C  
HETATM   42  C   UNL     1     -12.836  13.977  65.171  1.00  0.00    -0.368 C  
HETATM   43  C   UNL     1     -11.749  12.200  63.780  1.00  0.00    -0.576 C  
HETATM   44  C   UNL     1     -12.863  12.507  64.776  1.00  0.00    -0.287 C  
HETATM   45  C   UNL     1     -11.491  14.396  65.757  1.00  0.00    -0.335 C  
HETATM   46  C   UNL     1     -10.288  13.943  64.925  1.00  0.00    -0.430 C  
ENDBRANCH  40  41
ENDBRANCH  38  40
ENDBRANCH  37  38
ENDBRANCH  35  37
ENDBRANCH  34  35
ENDBRANCH  32  34
ENDBRANCH   8  32
ENDBRANCH   3   4
ENDBRANCH   2   3
TORSDOF 13
ENDMDL
MODEL        8
REMARK 921   NORMALIZED FREE ENERGY PREDICTED BY IDOCK:   -7.63 KCAL/MOL
REMARK 922        TOTAL FREE ENERGY PREDICTED BY IDOCK:  -15.88 KCAL/MOL
REMARK 923 INTER-LIGAND FREE ENERGY PREDICTED BY IDOCK:  -13.30 KCAL/MOL
REMARK 924 INTRA-LIGAND FREE ENERGY PREDICTED BY IDOCK:   -2.57 KCAL/MOL
REMARK 927      BINDING AFFINITY PREDICTED BY RF-SCORE:    0.00 PKD
ROOT
HETATM    1  C   UNL     1     -14.356   8.204  71.805  1.00  0.00    -0.582 C  
HETATM    2  C   UNL     1     -13.320   9.295  72.004  1.00  0.00    -0.450 C  
ENDROOT
BRANCH   2   3
HETATM    3  O   UNL     1     -13.117   9.941  70.742  1.00  0.00    -0.300 OA 
BRANCH   3   4
HETATM    4  C   UNL     1     -12.866  11.245  70.817  1.00  0.00    -0.191 A  
HETATM    5  N   UNL     1     -13.196  12.011  71.831  1.00  0.00    -0.450 NA 
HETATM    6  C   UNL     1     -12.758  13.257  71.487  1.00  0.00    -0.281 A  
HETATM    7  C   UNL     1     -12.073  13.259  70.256  1.00  0.00    -0.335 A  
HETATM    8  C   UNL     1     -11.447  14.447  69.804  1.00  0.00    -0.328 A  
HETATM    9  N   UNL     1     -12.266  11.960  69.802  1.00  0.00    -0.219 NA 
HETATM   10  C   UNL     1     -12.380  15.625  71.752  1.00  0.00    -0.498 A  
HETATM   11  C   UNL     1     -12.940  14.442  72.218  1.00  0.00    -0.455 A  
HETATM   12  C   UNL     1     -11.624  15.612  70.586  1.00  0.00    -0.394 A  
BRANCH   9  13
HETATM   13  C   UNL     1     -12.096  11.395  68.463  1.00  0.00    -0.098 C  
BRANCH  13  14
HETATM   14  C   UNL     1     -10.790  10.662  68.289  1.00  0.00    -0.287 A  
HETATM   15  C   UNL     1      -8.795   9.637  69.196  1.00  0.00    -0.157 A  
HETATM   16  C   UNL     1      -8.740   8.739  68.116  1.00  0.00    -0.134 A  
HETATM   17  C   UNL     1     -10.527  10.025  67.075  1.00  0.00    -0.302 A  
HETATM   18  C   UNL     1      -9.851  10.550  69.312  1.00  0.00    -0.225 A  
HETATM   19  C   UNL     1      -9.526   9.057  66.998  1.00  0.00    -0.212 A  
BRANCH  16  20
HETATM   20  C   UNL     1      -8.019   7.433  68.194  1.00  0.00    -0.123 A  
HETATM   21  C   UNL     1      -6.926   7.196  67.325  1.00  0.00    -0.078 A  
HETATM   22  C   UNL     1      -8.429   6.349  69.026  1.00  0.00    -0.124 A  
HETATM   23  C   UNL     1      -6.256   5.969  67.282  1.00  0.00    -0.033 A  
HETATM   24  C   UNL     1      -7.695   5.141  69.010  1.00  0.00    -0.081 A  
HETATM   25  C   UNL     1      -6.627   4.947  68.140  1.00  0.00    -0.049 A  
BRANCH  22  26
HETATM   26  C   UNL     1      -9.616   6.336  69.892  1.00  0.00    -0.156 A  
HETATM   27  N   UNL     1      -9.634   6.310  71.214  1.00  0.00    -0.173 NA 
HETATM   28  H   UNL     1      -8.823   6.305  71.833  1.00  0.00     0.000 HD 
HETATM   29  N   UNL     1     -10.954   6.291  71.593  1.00  0.00    -0.251 NA 
HETATM   30  N   UNL     1     -11.749   6.280  70.535  1.00  0.00    -0.305 NA 
HETATM   31  N   UNL     1     -10.921   6.261  69.480  1.00  0.00    -0.342 NA 
ENDBRANCH  22  26
ENDBRANCH  16  20
ENDBRANCH  13  14
ENDBRANCH   9  13
BRANCH   8  32
HETATM   32  C   UNL     1     -10.750  14.601  68.505  1.00  0.00    -0.247 C  
HETATM   33  O   UNL     1      -9.580  14.301  68.335  1.00  0.00    -0.211 OA 
BRANCH  32  34
HETATM   34  O   UNL     1     -11.624  14.891  67.508  1.00  0.00    -0.349 OA 
BRANCH  34  35
HETATM   35  C   UNL     1     -11.289  14.236  66.276  1.00  0.00    -0.346 C  
HETATM   36  C   UNL     1     -12.618  14.013  65.553  1.00  0.00    -0.543 C  
BRANCH  35  37
HETATM   37  O   UNL     1     -10.524  15.061  65.397  1.00  0.00    -0.324 OA 
BRANCH  37  38
HETATM   38  C   UNL     1     -11.121  16.201  64.985  1.00  0.00    -0.294 C  
HETATM   39  O   UNL     1     -11.689  16.377  63.921  1.00  0.00    -1.085 OA 
BRANCH  38  40
HETATM   40  O   UNL     1     -10.989  17.089  65.988  1.00  0.00    -0.051 OA 
BRANCH  40  41
HETATM   41  C   UNL     1      -9.821  17.917  66.194  1.00  0.00    -0.249 C  
HETATM   42  C   UNL     1      -9.797  19.511  68.707  1.00  0.00    -0.532 C  
HETATM   43  C   UNL     1     -10.312  19.365  66.260  1.00  0.00    -0.584 C  
HETATM   44  C   UNL     1     -10.864  19.709  67.640  1.00  0.00    -0.413 C  
HETATM   45  C   UNL     1      -9.239  18.091  68.715  1.00  0.00    -0.229 C  
HETATM   46  C   UNL     1      -8.848  17.574  67.327  1.00  0.00    -0.235 C  
ENDBRANCH  40  41
ENDBRANCH  38  40
ENDBRANCH  37  38
ENDBRANCH  35  37
ENDBRANCH  34  35
ENDBRANCH  32  34
ENDBRANCH   8  32
ENDBRANCH   3   4
ENDBRANCH   2   3
TORSDOF 13
ENDMDL
MODEL        9
REMARK 921   NORMALIZED FREE ENERGY PREDICTED BY IDOCK:   -7.62 KCAL/MOL
REMARK 922        TOTAL FREE ENERGY PREDICTED BY IDOCK:  -15.86 KCAL/MOL
REMARK 923 INTER-LIGAND FREE ENERGY PREDICTED BY IDOCK:  -12.24 KCAL/MOL
REMARK 924 INTRA-LIGAND FREE ENERGY PREDICTED BY IDOCK:   -3.62 KCAL/MOL
REMARK 927      BINDING AFFINITY PREDICTED BY RF-SCORE:    0.00 PKD
ROOT
HETATM    1  C   UNL     1     -14.023   7.687  71.241  1.00  0.00    -0.365 C  
HETATM    2  C   UNL     1     -13.729   9.075  71.782  1.00  0.00    -0.419 C  
ENDROOT
BRANCH   2   3
HETATM    3  O   UNL     1     -12.934   9.763  70.810  1.00  0.00    -0.262 OA 
BRANCH   3   4
HETATM    4  C   UNL     1     -12.829  11.076  71.004  1.00  0.00    -0.346 A  
HETATM    5  N   UNL     1     -13.210  11.701  72.094  1.00  0.00    -0.409 NA 
HETATM    6  C   UNL     1     -12.927  13.015  71.861  1.00  0.00    -0.312 A  
HETATM    7  C   UNL     1     -12.287  13.210  70.621  1.00  0.00    -0.326 A  
HETATM    8  C   UNL     1     -11.814  14.499  70.272  1.00  0.00    -0.373 A  
HETATM    9  N   UNL     1     -12.347  11.945  70.049  1.00  0.00    -0.180 NA 
HETATM   10  C   UNL     1     -12.810  15.376  72.343  1.00  0.00    -0.475 A  
HETATM   11  C   UNL     1     -13.217  14.099  72.706  1.00  0.00    -0.604 A  
HETATM   12  C   UNL     1     -12.096  15.559  71.165  1.00  0.00    -0.433 A  
BRANCH   9  13
HETATM   13  C   UNL     1     -12.158  11.531  68.659  1.00  0.00    -0.129 C  
BRANCH  13  14
HETATM   14  C   UNL     1     -10.861  10.796  68.429  1.00  0.00    -0.276 A  
HETATM   15  C   UNL     1      -8.578  10.280  69.041  1.00  0.00    -0.162 A  
HETATM   16  C   UNL     1      -8.696   8.995  68.483  1.00  0.00    -0.133 A  
HETATM   17  C   UNL     1     -10.852   9.685  67.584  1.00  0.00    -0.276 A  
HETATM   18  C   UNL     1      -9.675  11.150  69.070  1.00  0.00    -0.113 A  
HETATM   19  C   UNL     1      -9.789   8.783  67.628  1.00  0.00    -0.228 A  
BRANCH  16  20
HETATM   20  C   UNL     1      -7.814   7.860  68.886  1.00  0.00    -0.117 A  
HETATM   21  C   UNL     1      -6.846   7.379  67.972  1.00  0.00    -0.070 A  
HETATM   22  C   UNL     1      -7.953   7.145  70.114  1.00  0.00    -0.113 A  
HETATM   23  C   UNL     1      -6.042   6.268  68.247  1.00  0.00    -0.027 A  
HETATM   24  C   UNL     1      -7.085   6.066  70.394  1.00  0.00    -0.070 A  
HETATM   25  C   UNL     1      -6.146   5.623  69.468  1.00  0.00    -0.025 A  
BRANCH  22  26
HETATM   26  C   UNL     1      -8.983   7.388  71.134  1.00  0.00    -0.143 A  
HETATM   27  N   UNL     1     -10.125   6.737  71.279  1.00  0.00    -0.187 NA 
HETATM   28  H   UNL     1     -10.458   5.960  70.710  1.00  0.00     0.000 HD 
HETATM   29  N   UNL     1     -10.774   7.310  72.345  1.00  0.00    -0.232 NA 
HETATM   30  N   UNL     1     -10.070   8.313  72.844  1.00  0.00    -0.273 NA 
HETATM   31  N   UNL     1      -8.982   8.393  72.066  1.00  0.00    -0.202 NA 
ENDBRANCH  22  26
ENDBRANCH  16  20
ENDBRANCH  13  14
ENDBRANCH   9  13
BRANCH   8  32
HETATM   32  C   UNL     1     -11.181  14.852  68.979  1.00  0.00    -0.264 C  
HETATM   33  O   UNL     1     -11.641  15.683  68.214  1.00  0.00    -0.362 OA 
BRANCH  32  34
HETATM   34  O   UNL     1      -9.940  14.312  68.874  1.00  0.00    -0.221 OA 
BRANCH  34  35
HETATM   35  C   UNL     1      -8.996  15.217  68.281  1.00  0.00    -0.175 C  
HETATM   36  C   UNL     1      -7.678  14.978  69.019  1.00  0.00    -0.170 C  
BRANCH  35  37
HETATM   37  O   UNL     1      -8.714  14.911  66.915  1.00  0.00    -0.225 OA 
BRANCH  37  38
HETATM   38  C   UNL     1      -9.410  15.615  65.994  1.00  0.00    -0.349 C  
HETATM   39  O   UNL     1      -9.505  16.828  65.931  1.00  0.00    -0.466 OA 
BRANCH  38  40
HETATM   40  O   UNL     1      -9.952  14.715  65.152  1.00  0.00    -0.358 OA 
BRANCH  40  41
HETATM   41  C   UNL     1     -10.514  13.448  65.564  1.00  0.00    -0.291 C  
HETATM   42  C   UNL     1     -12.090  12.002  63.495  1.00  0.00    -0.628 C  
HETATM   43  C   UNL     1     -12.034  13.578  65.441  1.00  0.00    -0.406 C  
HETATM   44  C   UNL     1     -12.501  13.377  64.003  1.00  0.00    -0.310 C  
HETATM   45  C   UNL     1     -10.584  11.776  63.584  1.00  0.00    -0.496 C  
HETATM   46  C   UNL     1      -9.983  12.153  64.941  1.00  0.00    -0.235 C  
ENDBRANCH  40  41
ENDBRANCH  38  40
ENDBRANCH  37  38
ENDBRANCH  35  37
ENDBRANCH  34  35
ENDBRANCH  32  34
ENDBRANCH   8  32
ENDBRANCH   3   4
ENDBRANCH   2   3
TORSDOF 13
ENDMDL
MODEL       10
REMARK 921   NORMALIZED FREE ENERGY PREDICTED BY IDOCK:   -7.59 KCAL/MOL
REMARK 922        TOTAL FREE ENERGY PREDICTED BY IDOCK:  -15.81 KCAL/MOL
REMARK 923 INTER-LIGAND FREE ENERGY PREDICTED BY IDOCK:  -13.40 KCAL/MOL
REMARK 924 INTRA-LIGAND FREE ENERGY PREDICTED BY IDOCK:   -2.42 KCAL/MOL
REMARK 927      BINDING AFFINITY PREDICTED BY RF-SCORE:    0.00 PKD
ROOT
HETATM    1  C   UNL     1     -14.376  14.781  71.833  1.00  0.00    -0.657 C  
HETATM    2  C   UNL     1     -13.174  15.469  71.212  1.00  0.00    -0.515 C  
ENDROOT
BRANCH   2   3
HETATM    3  O   UNL     1     -12.055  14.584  71.327  1.00  0.00    -0.331 OA 
BRANCH   3   4
HETATM    4  C   UNL     1     -11.109  14.757  70.407  1.00  0.00    -0.118 A  
HETATM    5  N   UNL     1     -10.188  15.691  70.454  1.00  0.00    -0.142 NA 
HETATM    6  C   UNL     1      -9.445  15.507  69.324  1.00  0.00    -0.263 A  
HETATM    7  C   UNL     1      -9.869  14.385  68.585  1.00  0.00    -0.231 A  
HETATM    8  C   UNL     1      -9.132  13.977  67.446  1.00  0.00    -0.209 A  
HETATM    9  N   UNL     1     -11.019  13.997  69.261  1.00  0.00    -0.237 NA 
HETATM   10  C   UNL     1      -7.687  15.947  67.732  1.00  0.00    -0.156 A  
HETATM   11  C   UNL     1      -8.377  16.306  68.882  1.00  0.00    -0.231 A  
HETATM   12  C   UNL     1      -8.042  14.788  67.052  1.00  0.00    -0.177 A  
BRANCH   9  13
HETATM   13  C   UNL     1     -12.107  13.114  68.838  1.00  0.00    -0.194 C  
BRANCH  13  14
HETATM   14  C   UNL     1     -11.986  11.716  69.391  1.00  0.00    -0.381 A  
HETATM   15  C   UNL     1     -10.950   9.530  69.425  1.00  0.00    -0.192 A  
HETATM   16  C   UNL     1     -11.243   9.388  70.792  1.00  0.00    -0.367 A  
HETATM   17  C   UNL     1     -12.574  11.421  70.623  1.00  0.00    -0.360 A  
HETATM   18  C   UNL     1     -11.263  10.714  68.746  1.00  0.00    -0.337 A  
HETATM   19  C   UNL     1     -12.188  10.279  71.324  1.00  0.00    -0.496 A  
BRANCH  16  20
HETATM   20  C   UNL     1     -10.488   8.457  71.683  1.00  0.00    -0.321 A  
HETATM   21  C   UNL     1     -11.163   7.834  72.761  1.00  0.00    -0.456 A  
HETATM   22  C   UNL     1      -9.082   8.229  71.583  1.00  0.00    -0.242 A  
HETATM   23  C   UNL     1     -10.504   7.017  73.685  1.00  0.00    -0.414 A  
HETATM   24  C   UNL     1      -8.454   7.348  72.491  1.00  0.00    -0.131 A  
HETATM   25  C   UNL     1      -9.152   6.755  73.538  1.00  0.00    -0.158 A  
BRANCH  22  26
HETATM   26  C   UNL     1      -8.174   8.885  70.632  1.00  0.00    -0.162 A  
HETATM   27  N   UNL     1      -7.753  10.137  70.672  1.00  0.00    -0.400 NA 
HETATM   28  H   UNL     1      -7.988  10.836  71.376  1.00  0.00     0.000 HD 
HETATM   29  N   UNL     1      -6.938  10.316  69.581  1.00  0.00    -0.097 NA 
HETATM   30  N   UNL     1      -6.867   9.210  68.858  1.00  0.00    -0.056 NA 
HETATM   31  N   UNL     1      -7.669   8.336  69.482  1.00  0.00    -0.099 NA 
ENDBRANCH  22  26
ENDBRANCH  16  20
ENDBRANCH  13  14
ENDBRANCH   9  13
BRANCH   8  32
HETATM   32  C   UNL     1      -9.502  12.855  66.550  1.00  0.00    -0.251 C  
HETATM   33  O   UNL     1      -8.843  11.834  66.451  1.00  0.00    -0.194 OA 
BRANCH  32  34
HETATM   34  O   UNL     1     -10.753  13.018  66.049  1.00  0.00    -0.270 OA 
BRANCH  34  35
HETATM   35  C   UNL     1     -10.843  14.133  65.149  1.00  0.00    -0.372 C  
HETATM   36  C   UNL     1     -11.910  13.749  64.123  1.00  0.00    -0.439 C  
BRANCH  35  37
HETATM   37  O   UNL     1     -11.343  15.314  65.777  1.00  0.00    -0.293 OA 
BRANCH  37  38
HETATM   38  C   UNL     1     -11.080  16.479  65.143  1.00  0.00    -0.129 C  
HETATM   39  O   UNL     1     -11.500  16.819  64.051  1.00  0.00    -1.198 OA 
BRANCH  38  40
HETATM   40  O   UNL     1     -10.290  17.194  65.965  1.00  0.00    -0.347 OA 
BRANCH  40  41
HETATM   41  C   UNL     1     -10.247  18.639  65.999  1.00  0.00    -0.353 C  
HETATM   42  C   UNL     1      -8.935  19.834  68.388  1.00  0.00    -0.319 C  
HETATM   43  C   UNL     1     -11.028  19.076  67.241  1.00  0.00    -0.365 C  
HETATM   44  C   UNL     1     -10.181  18.968  68.504  1.00  0.00    -0.422 C  
HETATM   45  C   UNL     1      -8.090  19.477  67.170  1.00  0.00    -0.301 C  
HETATM   46  C   UNL     1      -8.897  19.353  65.874  1.00  0.00    -0.016 C  
ENDBRANCH  40  41
ENDBRANCH  38  40
ENDBRANCH  37  38
ENDBRANCH  35  37
ENDBRANCH  34  35
ENDBRANCH  32  34
ENDBRANCH   8  32
ENDBRANCH   3   4
ENDBRANCH   2   3
TORSDOF 13
ENDMDL
MODEL       11
REMARK 921   NORMALIZED FREE ENERGY PREDICTED BY IDOCK:   -7.59 KCAL/MOL
REMARK 922        TOTAL FREE ENERGY PREDICTED BY IDOCK:  -15.81 KCAL/MOL
REMARK 923 INTER-LIGAND FREE ENERGY PREDICTED BY IDOCK:  -13.03 KCAL/MOL
REMARK 924 INTRA-LIGAND FREE ENERGY PREDICTED BY IDOCK:   -2.78 KCAL/MOL
REMARK 927      BINDING AFFINITY PREDICTED BY RF-SCORE:    0.00 PKD
ROOT
HETATM    1  C   UNL     1      -7.142   6.186  68.409  1.00  0.00    -0.082 C  
HETATM    2  C   UNL     1      -6.245   7.303  67.906  1.00  0.00    -0.046 C  
ENDROOT
BRANCH   2   3
HETATM    3  O   UNL     1      -6.888   7.904  66.776  1.00  0.00    -0.068 OA 
BRANCH   3   4
HETATM    4  C   UNL     1      -7.171   9.196  66.918  1.00  0.00    -0.086 A  
HETATM    5  N   UNL     1      -6.405  10.063  67.538  1.00  0.00    -0.059 NA 
HETATM    6  C   UNL     1      -7.074  11.249  67.451  1.00  0.00    -0.109 A  
HETATM    7  C   UNL     1      -8.258  11.137  66.695  1.00  0.00    -0.158 A  
HETATM    8  C   UNL     1      -9.015  12.298  66.402  1.00  0.00    -0.117 A  
HETATM    9  N   UNL     1      -8.341   9.769  66.467  1.00  0.00    -0.123 NA 
HETATM   10  C   UNL     1      -7.464  13.605  67.794  1.00  0.00    -0.172 A  
HETATM   11  C   UNL     1      -6.694  12.473  68.027  1.00  0.00    -0.090 A  
HETATM   12  C   UNL     1      -8.581  13.517  66.972  1.00  0.00    -0.169 A  
BRANCH   9  13
HETATM   13  C   UNL     1      -9.475   8.954  66.030  1.00  0.00    -0.252 C  
BRANCH  13  14
HETATM   14  C   UNL     1     -10.170   8.245  67.165  1.00  0.00    -0.365 A  
HETATM   15  C   UNL     1     -11.030   6.236  68.202  1.00  0.00    -0.412 A  
HETATM   16  C   UNL     1     -10.816   6.778  69.481  1.00  0.00    -0.315 A  
HETATM   17  C   UNL     1     -10.295   8.895  68.394  1.00  0.00    -0.237 A  
HETATM   18  C   UNL     1     -10.649   6.941  67.053  1.00  0.00    -0.403 A  
HETATM   19  C   UNL     1     -10.594   8.163  69.543  1.00  0.00    -0.215 A  
BRANCH  16  20
HETATM   20  C   UNL     1     -10.671   5.929  70.700  1.00  0.00    -0.353 A  
HETATM   21  C   UNL     1      -9.845   4.779  70.646  1.00  0.00    -0.292 A  
HETATM   22  C   UNL     1     -11.402   6.142  71.907  1.00  0.00    -0.350 A  
HETATM   23  C   UNL     1      -9.726   3.891  71.720  1.00  0.00    -0.243 A  
HETATM   24  C   UNL     1     -11.213   5.266  72.999  1.00  0.00    -0.387 A  
HETATM   25  C   UNL     1     -10.394   4.146  72.906  1.00  0.00    -0.241 A  
BRANCH  22  26
HETATM   26  C   UNL     1     -12.413   7.187  72.122  1.00  0.00    -0.158 A  
HETATM   27  N   UNL     1     -12.300   8.252  72.897  1.00  0.00    -0.631 NA 
HETATM   28  H   UNL     1     -11.488   8.515  73.455  1.00  0.00     0.000 HD 
HETATM   29  N   UNL     1     -13.487   8.937  72.805  1.00  0.00    -0.333 NA 
HETATM   30  N   UNL     1     -14.337   8.304  72.011  1.00  0.00    -0.446 NA 
HETATM   31  N   UNL     1     -13.690   7.196  71.624  1.00  0.00    -0.357 NA 
ENDBRANCH  22  26
ENDBRANCH  16  20
ENDBRANCH  13  14
ENDBRANCH   9  13
BRANCH   8  32
HETATM   32  C   UNL     1     -10.305  12.311  65.672  1.00  0.00    -0.257 C  
HETATM   33  O   UNL     1     -10.418  11.968  64.507  1.00  0.00    -0.270 OA 
BRANCH  32  34
HETATM   34  O   UNL     1     -11.346  12.529  66.515  1.00  0.00    -0.297 OA 
BRANCH  34  35
HETATM   35  C   UNL     1     -11.742  13.908  66.555  1.00  0.00    -0.393 C  
HETATM   36  C   UNL     1     -12.886  14.036  65.548  1.00  0.00    -0.453 C  
BRANCH  35  37
HETATM   37  O   UNL     1     -12.310  14.288  67.809  1.00  0.00    -0.247 OA 
BRANCH  37  38
HETATM   38  C   UNL     1     -11.671  15.275  68.474  1.00  0.00    -0.332 C  
HETATM   39  O   UNL     1     -10.798  15.999  68.030  1.00  0.00    -0.312 OA 
BRANCH  38  40
HETATM   40  O   UNL     1     -12.207  15.318  69.708  1.00  0.00    -0.321 OA 
BRANCH  40  41
HETATM   41  C   UNL     1     -11.788  14.477  70.807  1.00  0.00    -0.304 C  
HETATM   42  C   UNL     1     -12.946  15.155  73.464  1.00  0.00    -0.601 C  
HETATM   43  C   UNL     1     -11.077  15.385  71.813  1.00  0.00    -0.258 C  
HETATM   44  C   UNL     1     -12.070  16.134  72.695  1.00  0.00    -0.652 C  
HETATM   45  C   UNL     1     -13.695  14.198  72.542  1.00  0.00    -0.626 C  
HETATM   46  C   UNL     1     -12.809  13.549  71.474  1.00  0.00    -0.440 C  
ENDBRANCH  40  41
ENDBRANCH  38  40
ENDBRANCH  37  38
ENDBRANCH  35  37
ENDBRANCH  34  35
ENDBRANCH  32  34
ENDBRANCH   8  32
ENDBRANCH   3   4
ENDBRANCH   2   3
TORSDOF 13
ENDMDL
MODEL       12
REMARK 921   NORMALIZED FREE ENERGY PREDICTED BY IDOCK:   -7.47 KCAL/MOL
REMARK 922        TOTAL FREE ENERGY PREDICTED BY IDOCK:  -15.61 KCAL/MOL
REMARK 923 INTER-LIGAND FREE ENERGY PREDICTED BY IDOCK:  -12.22 KCAL/MOL
REMARK 924 INTRA-LIGAND FREE ENERGY PREDICTED BY IDOCK:   -3.39 KCAL/MOL
REMARK 927      BINDING AFFINITY PREDICTED BY RF-SCORE:    0.00 PKD
ROOT
HETATM    1  C   UNL     1      -6.395   9.379  63.212  1.00  0.00    -0.093 C  
HETATM    2  C   UNL     1      -7.710   9.894  62.654  1.00  0.00    -0.126 C  
ENDROOT
BRANCH   2   3
HETATM    3  O   UNL     1      -8.768   9.336  63.440  1.00  0.00    -0.217 OA 
BRANCH   3   4
HETATM    4  C   UNL     1      -9.577  10.230  64.002  1.00  0.00    -0.304 A  
HETATM    5  N   UNL     1     -10.350  11.057  63.336  1.00  0.00    -0.351 NA 
HETATM    6  C   UNL     1     -10.991  11.786  64.295  1.00  0.00    -0.359 A  
HETATM    7  C   UNL     1     -10.663  11.359  65.597  1.00  0.00    -0.242 A  
HETATM    8  C   UNL     1     -11.330  11.928  66.710  1.00  0.00    -0.393 A  
HETATM    9  N   UNL     1      -9.659  10.428  65.364  1.00  0.00    -0.225 NA 
HETATM   10  C   UNL     1     -12.491  13.459  65.174  1.00  0.00    -0.509 A  
HETATM   11  C   UNL     1     -11.878  12.855  64.084  1.00  0.00    -0.479 A  
HETATM   12  C   UNL     1     -12.241  12.979  66.454  1.00  0.00    -0.350 A  
BRANCH   9  13
HETATM   13  C   UNL     1      -8.676   9.853  66.283  1.00  0.00    -0.139 C  
BRANCH  13  14
HETATM   14  C   UNL     1      -9.211   8.686  67.072  1.00  0.00    -0.186 A  
HETATM   15  C   UNL     1     -10.604   6.717  67.267  1.00  0.00    -0.387 A  
HETATM   16  C   UNL     1      -9.718   6.156  68.203  1.00  0.00    -0.125 A  
HETATM   17  C   UNL     1      -8.547   8.291  68.235  1.00  0.00    -0.133 A  
HETATM   18  C   UNL     1     -10.318   7.946  66.659  1.00  0.00    -0.270 A  
HETATM   19  C   UNL     1      -8.784   7.030  68.781  1.00  0.00    -0.127 A  
BRANCH  16  20
HETATM   20  C   UNL     1      -9.650   4.688  68.464  1.00  0.00    -0.220 A  
HETATM   21  C   UNL     1      -9.780   4.216  69.794  1.00  0.00    -0.278 A  
HETATM   22  C   UNL     1      -9.353   3.717  67.461  1.00  0.00    -0.244 A  
HETATM   23  C   UNL     1      -9.644   2.865  70.126  1.00  0.00    -0.138 A  
HETATM   24  C   UNL     1      -9.285   2.350  67.814  1.00  0.00    -0.235 A  
HETATM   25  C   UNL     1      -9.418   1.927  69.133  1.00  0.00    -0.147 A  
BRANCH  22  26
HETATM   26  C   UNL     1      -9.042   4.006  66.055  1.00  0.00    -0.144 A  
HETATM   27  N   UNL     1      -7.892   4.440  65.569  1.00  0.00    -0.093 NA 
HETATM   28  H   UNL     1      -7.041   4.630  66.099  1.00  0.00     0.000 HD 
HETATM   29  N   UNL     1      -8.063   4.586  64.214  1.00  0.00    -0.096 NA 
HETATM   30  N   UNL     1      -9.299   4.275  63.858  1.00  0.00    -0.152 NA 
HETATM   31  N   UNL     1      -9.920   3.960  65.003  1.00  0.00    -0.195 NA 
ENDBRANCH  22  26
ENDBRANCH  16  20
ENDBRANCH  13  14
ENDBRANCH   9  13
BRANCH   8  32
HETATM   32  C   UNL     1     -11.038  11.613  68.129  1.00  0.00    -0.242 C  
HETATM   33  O   UNL     1      -9.945  11.786  68.641  1.00  0.00    -0.212 OA 
BRANCH  32  34
HETATM   34  O   UNL     1     -12.176  11.336  68.816  1.00  0.00    -0.532 OA 
BRANCH  34  35
HETATM   35  C   UNL     1     -12.044  11.596  70.222  1.00  0.00    -0.358 C  
HETATM   36  C   UNL     1     -12.080  13.118  70.364  1.00  0.00    -0.392 C  
BRANCH  35  37
HETATM   37  O   UNL     1     -13.161  11.128  70.980  1.00  0.00    -0.292 OA 
BRANCH  37  38
HETATM   38  C   UNL     1     -12.949  10.020  71.725  1.00  0.00    -0.458 C  
HETATM   39  O   UNL     1     -13.803   9.331  72.255  1.00  0.00    -0.453 OA 
BRANCH  38  40
HETATM   40  O   UNL     1     -11.619   9.815  71.741  1.00  0.00    -0.349 OA 
BRANCH  40  41
HETATM   41  C   UNL     1     -10.965   8.663  71.160  1.00  0.00    -0.260 C  
HETATM   42  C   UNL     1     -10.762   6.272  72.919  1.00  0.00    -0.274 C  
HETATM   43  C   UNL     1      -9.734   8.372  72.021  1.00  0.00    -0.353 C  
HETATM   44  C   UNL     1     -10.101   7.595  73.281  1.00  0.00    -0.393 C  
HETATM   45  C   UNL     1     -12.002   6.460  72.051  1.00  0.00    -0.375 C  
HETATM   46  C   UNL     1     -11.787   7.404  70.864  1.00  0.00    -0.320 C  
ENDBRANCH  40  41
ENDBRANCH  38  40
ENDBRANCH  37  38
ENDBRANCH  35  37
ENDBRANCH  34  35
ENDBRANCH  32  34
ENDBRANCH   8  32
ENDBRANCH   3   4
ENDBRANCH   2   3
TORSDOF 13
ENDMDL
MODEL       13
REMARK 921   NORMALIZED FREE ENERGY PREDICTED BY IDOCK:   -7.46 KCAL/MOL
REMARK 922        TOTAL FREE ENERGY PREDICTED BY IDOCK:  -15.57 KCAL/MOL
REMARK 923 INTER-LIGAND FREE ENERGY PREDICTED BY IDOCK:  -12.41 KCAL/MOL
REMARK 924 INTRA-LIGAND FREE ENERGY PREDICTED BY IDOCK:   -3.16 KCAL/MOL
REMARK 927      BINDING AFFINITY PREDICTED BY RF-SCORE:    0.00 PKD
ROOT
HETATM    1  C   UNL     1     -13.713  13.259  72.380  1.00  0.00    -0.678 C  
HETATM    2  C   UNL     1     -12.659  14.001  71.578  1.00  0.00    -0.349 C  
ENDROOT
BRANCH   2   3
HETATM    3  O   UNL     1     -12.642  13.446  70.259  1.00  0.00    -0.229 OA 
BRANCH   3   4
HETATM    4  C   UNL     1     -11.539  13.700  69.560  1.00  0.00    -0.301 A  
HETATM    5  N   UNL     1     -11.060  14.902  69.335  1.00  0.00    -0.268 NA 
HETATM    6  C   UNL     1      -9.939  14.698  68.584  1.00  0.00    -0.234 A  
HETATM    7  C   UNL     1      -9.670  13.328  68.392  1.00  0.00    -0.198 A  
HETATM    8  C   UNL     1      -8.477  12.934  67.736  1.00  0.00    -0.185 A  
HETATM    9  N   UNL     1     -10.792  12.720  68.942  1.00  0.00    -0.226 NA 
HETATM   10  C   UNL     1      -7.969  15.306  67.331  1.00  0.00    -0.211 A  
HETATM   11  C   UNL     1      -9.109  15.685  68.028  1.00  0.00    -0.183 A  
HETATM   12  C   UNL     1      -7.650  13.958  67.220  1.00  0.00    -0.079 A  
BRANCH   9  13
HETATM   13  C   UNL     1     -11.294  11.355  68.787  1.00  0.00    -0.271 C  
BRANCH  13  14
HETATM   14  C   UNL     1     -11.086  10.502  70.013  1.00  0.00    -0.376 A  
HETATM   15  C   UNL     1     -11.939   9.106  71.795  1.00  0.00    -0.449 A  
HETATM   16  C   UNL     1     -10.730   8.391  71.842  1.00  0.00    -0.373 A  
HETATM   17  C   UNL     1      -9.803  10.038  70.306  1.00  0.00    -0.144 A  
HETATM   18  C   UNL     1     -12.137  10.113  70.842  1.00  0.00    -0.453 A  
HETATM   19  C   UNL     1      -9.631   8.978  71.196  1.00  0.00    -0.356 A  
BRANCH  16  20
HETATM   20  C   UNL     1     -10.634   7.010  72.403  1.00  0.00    -0.252 A  
HETATM   21  C   UNL     1     -10.469   6.842  73.800  1.00  0.00    -0.390 A  
HETATM   22  C   UNL     1     -10.593   5.830  71.602  1.00  0.00    -0.302 A  
HETATM   23  C   UNL     1     -10.288   5.586  74.387  1.00  0.00    -0.282 A  
HETATM   24  C   UNL     1     -10.474   4.568  72.227  1.00  0.00    -0.215 A  
HETATM   25  C   UNL     1     -10.313   4.445  73.603  1.00  0.00    -0.244 A  
BRANCH  22  26
HETATM   26  C   UNL     1     -10.604   5.791  70.133  1.00  0.00    -0.307 A  
HETATM   27  N   UNL     1     -11.474   6.380  69.331  1.00  0.00    -0.607 NA 
HETATM   28  H   UNL     1     -12.265   6.960  69.612  1.00  0.00     0.000 HD 
HETATM   29  N   UNL     1     -11.108   6.061  68.046  1.00  0.00    -0.252 NA 
HETATM   30  N   UNL     1     -10.047   5.269  68.040  1.00  0.00    -0.162 NA 
HETATM   31  N   UNL     1      -9.762   5.064  69.333  1.00  0.00    -0.166 NA 
ENDBRANCH  22  26
ENDBRANCH  16  20
ENDBRANCH  13  14
ENDBRANCH   9  13
BRANCH   8  32
HETATM   32  C   UNL     1      -8.104  11.535  67.417  1.00  0.00    -0.146 C  
HETATM   33  O   UNL     1      -7.202  10.939  67.981  1.00  0.00    -0.083 OA 
BRANCH  32  34
HETATM   34  O   UNL     1      -9.022  10.954  66.604  1.00  0.00    -0.156 OA 
BRANCH  34  35
HETATM   35  C   UNL     1      -8.586   9.679  66.108  1.00  0.00    -0.127 C  
HETATM   36  C   UNL     1      -9.179   8.641  67.063  1.00  0.00    -0.186 C  
BRANCH  35  37
HETATM   37  O   UNL     1      -9.137   9.361  64.830  1.00  0.00    -0.227 OA 
BRANCH  37  38
HETATM   38  C   UNL     1      -9.155  10.365  63.925  1.00  0.00    -0.245 C  
HETATM   39  O   UNL     1      -8.245  10.683  63.179  1.00  0.00    -0.148 OA 
BRANCH  38  40
HETATM   40  O   UNL     1     -10.379  10.923  63.993  1.00  0.00    -0.347 OA 
BRANCH  40  41
HETATM   41  C   UNL     1     -10.695  12.252  63.520  1.00  0.00    -0.451 C  
HETATM   42  C   UNL     1     -12.609  13.796  65.196  1.00  0.00    -0.471 C  
HETATM   43  C   UNL     1     -12.201  12.277  63.247  1.00  0.00    -0.528 C  
HETATM   44  C   UNL     1     -13.001  12.486  64.529  1.00  0.00    -0.215 C  
HETATM   45  C   UNL     1     -11.116  13.868  65.504  1.00  0.00    -0.304 C  
HETATM   46  C   UNL     1     -10.224  13.467  64.325  1.00  0.00    -0.036 C  
ENDBRANCH  40  41
ENDBRANCH  38  40
ENDBRANCH  37  38
ENDBRANCH  35  37
ENDBRANCH  34  35
ENDBRANCH  32  34
ENDBRANCH   8  32
ENDBRANCH   3   4
ENDBRANCH   2   3
TORSDOF 13
ENDMDL
MODEL       14
REMARK 921   NORMALIZED FREE ENERGY PREDICTED BY IDOCK:   -7.42 KCAL/MOL
REMARK 922        TOTAL FREE ENERGY PREDICTED BY IDOCK:  -15.51 KCAL/MOL
REMARK 923 INTER-LIGAND FREE ENERGY PREDICTED BY IDOCK:  -12.95 KCAL/MOL
REMARK 924 INTRA-LIGAND FREE ENERGY PREDICTED BY IDOCK:   -2.55 KCAL/MOL
REMARK 927      BINDING AFFINITY PREDICTED BY RF-SCORE:    0.00 PKD
ROOT
HETATM    1  C   UNL     1     -12.670  11.898  63.483  1.00  0.00    -0.530 C  
HETATM    2  C   UNL     1     -11.198  11.875  63.857  1.00  0.00    -0.420 C  
ENDROOT
BRANCH   2   3
HETATM    3  O   UNL     1     -11.107  11.964  65.282  1.00  0.00    -0.301 OA 
BRANCH   3   4
HETATM    4  C   UNL     1     -10.629  10.877  65.881  1.00  0.00    -0.178 A  
HETATM    5  N   UNL     1     -10.107   9.849  65.252  1.00  0.00    -0.263 NA 
HETATM    6  C   UNL     1      -9.759   8.974  66.239  1.00  0.00    -0.275 A  
HETATM    7  C   UNL     1     -10.006   9.495  67.524  1.00  0.00    -0.186 A  
HETATM    8  C   UNL     1      -9.593   8.767  68.667  1.00  0.00    -0.159 A  
HETATM    9  N   UNL     1     -10.675  10.681  67.244  1.00  0.00    -0.270 NA 
HETATM   10  C   UNL     1      -8.870   6.941  67.186  1.00  0.00    -0.120 A  
HETATM   11  C   UNL     1      -9.223   7.686  66.069  1.00  0.00    -0.118 A  
HETATM   12  C   UNL     1      -9.026   7.489  68.454  1.00  0.00    -0.128 A  
BRANCH   9  13
HETATM   13  C   UNL     1     -11.485  11.533  68.115  1.00  0.00    -0.315 C  
BRANCH  13  14
HETATM   14  C   UNL     1     -10.803  12.827  68.481  1.00  0.00    -0.279 A  
HETATM   15  C   UNL     1      -8.863  14.274  68.493  1.00  0.00    -0.176 A  
HETATM   16  C   UNL     1      -9.686  15.413  68.507  1.00  0.00    -0.204 A  
HETATM   17  C   UNL     1     -11.584  13.925  68.849  1.00  0.00    -0.353 A  
HETATM   18  C   UNL     1      -9.420  12.990  68.416  1.00  0.00    -0.165 A  
HETATM   19  C   UNL     1     -11.034  15.206  68.840  1.00  0.00    -0.256 A  
BRANCH  16  20
HETATM   20  C   UNL     1      -9.213  16.751  68.043  1.00  0.00    -0.228 A  
HETATM   21  C   UNL     1      -8.522  17.592  68.950  1.00  0.00    -0.139 A  
HETATM   22  C   UNL     1      -9.507  17.293  66.756  1.00  0.00    -0.274 A  
HETATM   23  C   UNL     1      -8.123  18.889  68.613  1.00  0.00    -0.382 A  
HETATM   24  C   UNL     1      -9.036  18.582  66.419  1.00  0.00    -0.276 A  
HETATM   25  C   UNL     1      -8.360  19.378  67.339  1.00  0.00    -0.325 A  
BRANCH  22  26
HETATM   26  C   UNL     1     -10.329  16.648  65.723  1.00  0.00    -0.321 A  
HETATM   27  N   UNL     1     -10.407  15.354  65.464  1.00  0.00    -0.356 NA 
HETATM   28  H   UNL     1      -9.914  14.606  65.951  1.00  0.00     0.000 HD 
HETATM   29  N   UNL     1     -11.279  15.212  64.413  1.00  0.00    -0.239 NA 
HETATM   30  N   UNL     1     -11.721  16.390  64.003  1.00  0.00    -1.045 NA 
HETATM   31  N   UNL     1     -11.098  17.284  64.783  1.00  0.00    -0.920 NA 
ENDBRANCH  22  26
ENDBRANCH  16  20
ENDBRANCH  13  14
ENDBRANCH   9  13
BRANCH   8  32
HETATM   32  C   UNL     1      -9.845   9.171  70.071  1.00  0.00    -0.193 C  
HETATM   33  O   UNL     1      -9.182  10.013  70.653  1.00  0.00     0.053 OA 
BRANCH  32  34
HETATM   34  O   UNL     1     -11.019   8.664  70.527  1.00  0.00    -0.231 OA 
BRANCH  34  35
HETATM   35  C   UNL     1     -11.337   9.123  71.849  1.00  0.00    -0.346 C  
HETATM   36  C   UNL     1     -12.770   9.652  71.767  1.00  0.00    -0.510 C  
BRANCH  35  37
HETATM   37  O   UNL     1     -11.389   8.065  72.807  1.00  0.00    -0.394 OA 
BRANCH  37  38
HETATM   38  C   UNL     1     -10.198   7.622  73.266  1.00  0.00    -0.339 C  
HETATM   39  O   UNL     1      -9.171   8.271  73.358  1.00  0.00    -0.241 OA 
BRANCH  38  40
HETATM   40  O   UNL     1     -10.377   6.337  73.626  1.00  0.00    -0.228 OA 
BRANCH  40  41
HETATM   41  C   UNL     1     -11.157   5.382  72.871  1.00  0.00    -0.305 C  
HETATM   42  C   UNL     1      -9.850   2.754  72.376  1.00  0.00    -0.227 C  
HETATM   43  C   UNL     1     -10.368   5.076  71.595  1.00  0.00    -0.262 C  
HETATM   44  C   UNL     1      -9.264   4.055  71.848  1.00  0.00    -0.179 C  
HETATM   45  C   UNL     1     -10.664   2.958  73.651  1.00  0.00    -0.293 C  
HETATM   46  C   UNL     1     -11.666   4.113  73.564  1.00  0.00    -0.058 C  
ENDBRANCH  40  41
ENDBRANCH  38  40
ENDBRANCH  37  38
ENDBRANCH  35  37
ENDBRANCH  34  35
ENDBRANCH  32  34
ENDBRANCH   8  32
ENDBRANCH   3   4
ENDBRANCH   2   3
TORSDOF 13
ENDMDL
MODEL       15
REMARK 921   NORMALIZED FREE ENERGY PREDICTED BY IDOCK:   -7.41 KCAL/MOL
REMARK 922        TOTAL FREE ENERGY PREDICTED BY IDOCK:  -15.49 KCAL/MOL
REMARK 923 INTER-LIGAND FREE ENERGY PREDICTED BY IDOCK:  -12.55 KCAL/MOL
REMARK 924 INTRA-LIGAND FREE ENERGY PREDICTED BY IDOCK:   -2.94 KCAL/MOL
REMARK 927      BINDING AFFINITY PREDICTED BY RF-SCORE:    0.00 PKD
ROOT
HETATM    1  C   UNL     1      -8.296   8.804  62.966  1.00  0.00    -0.175 C  
HETATM    2  C   UNL     1      -7.196   9.520  63.730  1.00  0.00    -0.107 C  
ENDROOT
BRANCH   2   3
HETATM    3  O   UNL     1      -7.370   9.230  65.120  1.00  0.00    -0.095 OA 
BRANCH   3   4
HETATM    4  C   UNL     1      -7.757  10.263  65.863  1.00  0.00    -0.137 A  
HETATM    5  N   UNL     1      -6.949  11.180  66.343  1.00  0.00    -0.123 NA 
HETATM    6  C   UNL     1      -7.758  12.031  67.038  1.00  0.00    -0.129 A  
HETATM    7  C   UNL     1      -9.118  11.678  66.933  1.00  0.00    -0.188 A  
HETATM    8  C   UNL     1     -10.106  12.523  67.495  1.00  0.00    -0.207 A  
HETATM    9  N   UNL     1      -9.062  10.464  66.260  1.00  0.00    -0.155 NA 
HETATM   10  C   UNL     1      -8.314  13.942  68.402  1.00  0.00    -0.157 A  
HETATM   11  C   UNL     1      -7.353  13.142  67.797  1.00  0.00    -0.143 A  
HETATM   12  C   UNL     1      -9.661  13.650  68.223  1.00  0.00    -0.215 A  
BRANCH   9  13
HETATM   13  C   UNL     1     -10.077   9.419  66.116  1.00  0.00    -0.254 C  
BRANCH  13  14
HETATM   14  C   UNL     1      -9.915   8.293  67.106  1.00  0.00    -0.307 A  
HETATM   15  C   UNL     1      -8.906   7.339  69.087  1.00  0.00    -0.136 A  
HETATM   16  C   UNL     1     -10.058   6.570  69.329  1.00  0.00    -0.192 A  
HETATM   17  C   UNL     1     -10.881   7.287  67.152  1.00  0.00    -0.378 A  
HETATM   18  C   UNL     1      -8.862   8.242  68.017  1.00  0.00    -0.135 A  
HETATM   19  C   UNL     1     -10.964   6.449  68.263  1.00  0.00    -0.396 A  
BRANCH  16  20
HETATM   20  C   UNL     1     -10.397   6.036  70.681  1.00  0.00    -0.280 A  
HETATM   21  C   UNL     1     -10.016   4.714  71.017  1.00  0.00    -0.270 A  
HETATM   22  C   UNL     1     -11.186   6.743  71.638  1.00  0.00    -0.293 A  
HETATM   23  C   UNL     1     -10.371   4.118  72.231  1.00  0.00    -0.197 A  
HETATM   24  C   UNL     1     -11.476   6.141  72.883  1.00  0.00    -0.148 A  
HETATM   25  C   UNL     1     -11.083   4.838  73.175  1.00  0.00    -0.388 A  
BRANCH  22  26
HETATM   26  C   UNL     1     -11.801   8.062  71.433  1.00  0.00    -0.295 A  
HETATM   27  N   UNL     1     -13.043   8.308  71.055  1.00  0.00    -0.507 NA 
HETATM   28  H   UNL     1     -13.767   7.618  70.858  1.00  0.00     0.000 HD 
HETATM   29  N   UNL     1     -13.171   9.673  70.980  1.00  0.00    -0.287 NA 
HETATM   30  N   UNL     1     -12.030  10.272  71.279  1.00  0.00    -0.373 NA 
HETATM   31  N   UNL     1     -11.167   9.274  71.515  1.00  0.00    -0.364 NA 
ENDBRANCH  22  26
ENDBRANCH  16  20
ENDBRANCH  13  14
ENDBRANCH   9  13
BRANCH   8  32
HETATM   32  C   UNL     1     -11.561  12.238  67.508  1.00  0.00    -0.353 C  
HETATM   33  O   UNL     1     -12.050  11.286  68.091  1.00  0.00    -0.635 OA 
BRANCH  32  34
HETATM   34  O   UNL     1     -12.271  13.276  66.996  1.00  0.00    -0.353 OA 
BRANCH  34  35
HETATM   35  C   UNL     1     -11.806  13.670  65.696  1.00  0.00    -0.364 C  
HETATM   36  C   UNL     1     -12.315  12.596  64.734  1.00  0.00    -0.556 C  
BRANCH  35  37
HETATM   37  O   UNL     1     -12.400  14.886  65.239  1.00  0.00    -0.176 OA 
BRANCH  37  38
HETATM   38  C   UNL     1     -11.543  15.841  64.814  1.00  0.00    -0.173 C  
HETATM   39  O   UNL     1     -11.546  16.382  63.722  1.00  0.00    -1.055 OA 
BRANCH  38  40
HETATM   40  O   UNL     1     -10.709  16.094  65.840  1.00  0.00    -0.314 OA 
BRANCH  40  41
HETATM   41  C   UNL     1     -10.058  17.365  66.067  1.00  0.00    -0.262 C  
HETATM   42  C   UNL     1      -8.385  17.538  68.522  1.00  0.00    -0.274 C  
HETATM   43  C   UNL     1     -10.591  17.905  67.395  1.00  0.00    -0.370 C  
HETATM   44  C   UNL     1      -9.882  17.269  68.586  1.00  0.00    -0.313 C  
HETATM   45  C   UNL     1      -7.760  17.038  67.223  1.00  0.00    -0.196 C  
HETATM   46  C   UNL     1      -8.531  17.454  65.967  1.00  0.00    -0.127 C  
ENDBRANCH  40  41
ENDBRANCH  38  40
ENDBRANCH  37  38
ENDBRANCH  35  37
ENDBRANCH  34  35
ENDBRANCH  32  34
ENDBRANCH   8  32
ENDBRANCH   3   4
ENDBRANCH   2   3
TORSDOF 13
ENDMDL
MODEL       16
REMARK 921   NORMALIZED FREE ENERGY PREDICTED BY IDOCK:   -7.40 KCAL/MOL
REMARK 922        TOTAL FREE ENERGY PREDICTED BY IDOCK:  -15.48 KCAL/MOL
REMARK 923 INTER-LIGAND FREE ENERGY PREDICTED BY IDOCK:  -12.67 KCAL/MOL
REMARK 924 INTRA-LIGAND FREE ENERGY PREDICTED BY IDOCK:   -2.81 KCAL/MOL
REMARK 927      BINDING AFFINITY PREDICTED BY RF-SCORE:    0.00 PKD
ROOT
HETATM    1  C   UNL     1      -6.701  10.050  62.722  1.00  0.00    -0.124 C  
HETATM    2  C   UNL     1      -8.155   9.799  62.363  1.00  0.00    -0.127 C  
ENDROOT
BRANCH   2   3
HETATM    3  O   UNL     1      -8.891   9.672  63.585  1.00  0.00    -0.217 OA 
BRANCH   3   4
HETATM    4  C   UNL     1      -9.689  10.699  63.864  1.00  0.00    -0.321 A  
HETATM    5  N   UNL     1     -10.576  11.201  63.036  1.00  0.00    -0.119 NA 
HETATM    6  C   UNL     1     -11.155  12.227  63.723  1.00  0.00    -0.442 A  
HETATM    7  C   UNL     1     -10.669  12.328  65.041  1.00  0.00    -0.298 A  
HETATM    8  C   UNL     1     -11.249  13.264  65.933  1.00  0.00    -0.309 A  
HETATM    9  N   UNL     1      -9.640  11.393  65.054  1.00  0.00    -0.232 NA 
HETATM   10  C   UNL     1     -12.652  14.084  64.087  1.00  0.00    -0.127 A  
HETATM   11  C   UNL     1     -12.122  13.124  63.236  1.00  0.00    -0.460 A  
HETATM   12  C   UNL     1     -12.242  14.126  65.414  1.00  0.00    -0.441 A  
BRANCH   9  13
HETATM   13  C   UNL     1      -8.534  11.224  65.997  1.00  0.00    -0.102 C  
BRANCH  13  14
HETATM   14  C   UNL     1      -8.890  10.361  67.181  1.00  0.00    -0.141 A  
HETATM   15  C   UNL     1      -9.026   9.986  69.568  1.00  0.00    -0.220 A  
HETATM   16  C   UNL     1     -10.132   9.137  69.393  1.00  0.00    -0.198 A  
HETATM   17  C   UNL     1      -9.735   9.266  66.993  1.00  0.00    -0.241 A  
HETATM   18  C   UNL     1      -8.450  10.644  68.473  1.00  0.00    -0.136 A  
HETATM   19  C   UNL     1     -10.366   8.676  68.087  1.00  0.00    -0.267 A  
BRANCH  16  20
HETATM   20  C   UNL     1     -11.110   8.856  70.485  1.00  0.00    -0.288 A  
HETATM   21  C   UNL     1     -11.996   9.880  70.900  1.00  0.00    -0.434 A  
HETATM   22  C   UNL     1     -11.143   7.636  71.226  1.00  0.00    -0.268 A  
HETATM   23  C   UNL     1     -12.880   9.718  71.971  1.00  0.00    -0.491 A  
HETATM   24  C   UNL     1     -12.091   7.475  72.262  1.00  0.00    -0.269 A  
HETATM   25  C   UNL     1     -12.944   8.507  72.639  1.00  0.00    -0.214 A  
BRANCH  22  26
HETATM   26  C   UNL     1     -10.220   6.505  71.054  1.00  0.00    -0.189 A  
HETATM   27  N   UNL     1     -10.434   5.407  70.351  1.00  0.00    -0.280 NA 
HETATM   28  H   UNL     1     -11.269   5.183  69.811  1.00  0.00     0.000 HD 
HETATM   29  N   UNL     1      -9.313   4.625  70.486  1.00  0.00    -0.142 NA 
HETATM   30  N   UNL     1      -8.424   5.206  71.277  1.00  0.00    -0.121 NA 
HETATM   31  N   UNL     1      -9.004   6.350  71.667  1.00  0.00    -0.144 NA 
ENDBRANCH  22  26
ENDBRANCH  16  20
ENDBRANCH  13  14
ENDBRANCH   9  13
BRANCH   8  32
HETATM   32  C   UNL     1     -10.792  13.512  67.321  1.00  0.00    -0.276 C  
HETATM   33  O   UNL     1     -11.418  13.153  68.304  1.00  0.00    -0.272 OA 
BRANCH  32  34
HETATM   34  O   UNL     1      -9.515  13.972  67.345  1.00  0.00    -0.213 OA 
BRANCH  34  35
HETATM   35  C   UNL     1      -9.448  15.398  67.495  1.00  0.00    -0.205 C  
HETATM   36  C   UNL     1      -8.169  15.669  68.287  1.00  0.00    -0.142 C  
BRANCH  35  37
HETATM   37  O   UNL     1      -9.264  16.079  66.253  1.00  0.00    -0.275 OA 
BRANCH  37  38
HETATM   38  C   UNL     1     -10.257  16.918  65.884  1.00  0.00    -0.314 C  
HETATM   39  O   UNL     1     -10.760  17.003  64.777  1.00  0.00    -0.760 OA 
BRANCH  38  40
HETATM   40  O   UNL     1     -10.597  17.618  66.983  1.00  0.00    -0.328 OA 
BRANCH  40  41
HETATM   41  C   UNL     1     -10.551  19.061  67.076  1.00  0.00    -0.461 C  
HETATM   42  C   UNL     1      -7.863  20.235  67.582  1.00  0.00    -0.320 C  
HETATM   43  C   UNL     1     -10.046  19.398  68.481  1.00  0.00    -0.527 C  
HETATM   44  C   UNL     1      -8.528  19.290  68.574  1.00  0.00    -0.401 C  
HETATM   45  C   UNL     1      -8.311  19.980  66.147  1.00  0.00    -0.304 C  
HETATM   46  C   UNL     1      -9.829  19.860  65.986  1.00  0.00    -0.515 C  
ENDBRANCH  40  41
ENDBRANCH  38  40
ENDBRANCH  37  38
ENDBRANCH  35  37
ENDBRANCH  34  35
ENDBRANCH  32  34
ENDBRANCH   8  32
ENDBRANCH   3   4
ENDBRANCH   2   3
TORSDOF 13
ENDMDL
MODEL       17
REMARK 921   NORMALIZED FREE ENERGY PREDICTED BY IDOCK:   -7.37 KCAL/MOL
REMARK 922        TOTAL FREE ENERGY PREDICTED BY IDOCK:  -15.42 KCAL/MOL
REMARK 923 INTER-LIGAND FREE ENERGY PREDICTED BY IDOCK:  -12.09 KCAL/MOL
REMARK 924 INTRA-LIGAND FREE ENERGY PREDICTED BY IDOCK:   -3.33 KCAL/MOL
REMARK 927      BINDING AFFINITY PREDICTED BY RF-SCORE:    0.00 PKD
ROOT
HETATM    1  C   UNL     1     -12.418  12.118  63.369  1.00  0.00    -0.625 C  
HETATM    2  C   UNL     1     -10.946  11.743  63.393  1.00  0.00    -0.380 C  
ENDROOT
BRANCH   2   3
HETATM    3  O   UNL     1     -10.621  11.336  64.726  1.00  0.00    -0.303 OA 
BRANCH   3   4
HETATM    4  C   UNL     1      -9.809  10.285  64.806  1.00  0.00    -0.334 A  
HETATM    5  N   UNL     1      -9.064   9.843  63.820  1.00  0.00    -0.250 NA 
HETATM    6  C   UNL     1      -8.408   8.762  64.333  1.00  0.00    -0.157 A  
HETATM    7  C   UNL     1      -8.697   8.562  65.697  1.00  0.00    -0.181 A  
HETATM    8  C   UNL     1      -8.010   7.556  66.420  1.00  0.00    -0.107 A  
HETATM    9  N   UNL     1      -9.695   9.500  65.933  1.00  0.00    -0.265 NA 
HETATM   10  C   UNL     1      -6.909   6.872  64.330  1.00  0.00    -0.046 A  
HETATM   11  C   UNL     1      -7.541   7.899  63.642  1.00  0.00    -0.130 A  
HETATM   12  C   UNL     1      -7.119   6.730  65.696  1.00  0.00    -0.072 A  
BRANCH   9  13
HETATM   13  C   UNL     1     -10.647   9.604  67.040  1.00  0.00    -0.197 C  
BRANCH  13  14
HETATM   14  C   UNL     1     -10.618  10.947  67.725  1.00  0.00    -0.255 A  
HETATM   15  C   UNL     1      -9.422  12.877  68.559  1.00  0.00    -0.098 A  
HETATM   16  C   UNL     1     -10.548  13.692  68.351  1.00  0.00    -0.260 A  
HETATM   17  C   UNL     1     -11.807  11.666  67.857  1.00  0.00    -0.273 A  
HETATM   18  C   UNL     1      -9.438  11.526  68.188  1.00  0.00    -0.184 A  
HETATM   19  C   UNL     1     -11.769  13.030  68.145  1.00  0.00    -0.391 A  
BRANCH  16  20
HETATM   20  C   UNL     1     -10.450  15.173  68.194  1.00  0.00    -0.245 A  
HETATM   21  C   UNL     1      -9.743  15.705  67.087  1.00  0.00    -0.226 A  
HETATM   22  C   UNL     1     -10.939  16.107  69.156  1.00  0.00    -0.309 A  
HETATM   23  C   UNL     1      -9.538  17.078  66.919  1.00  0.00    -0.263 A  
HETATM   24  C   UNL     1     -10.774  17.492  68.929  1.00  0.00    -0.072 A  
HETATM   25  C   UNL     1     -10.073  17.975  67.829  1.00  0.00    -0.359 A  
BRANCH  22  26
HETATM   26  C   UNL     1     -11.571  15.764  70.438  1.00  0.00    -0.360 A  
HETATM   27  N   UNL     1     -10.962  15.363  71.541  1.00  0.00    -0.429 NA 
HETATM   28  H   UNL     1      -9.958  15.242  71.671  1.00  0.00     0.000 HD 
HETATM   29  N   UNL     1     -11.942  15.143  72.477  1.00  0.00    -0.391 NA 
HETATM   30  N   UNL     1     -13.142  15.374  71.968  1.00  0.00    -0.381 NA 
HETATM   31  N   UNL     1     -12.917  15.714  70.692  1.00  0.00    -0.459 NA 
ENDBRANCH  22  26
ENDBRANCH  16  20
ENDBRANCH  13  14
ENDBRANCH   9  13
BRANCH   8  32
HETATM   32  C   UNL     1      -8.261   7.204  67.837  1.00  0.00    -0.119 C  
HETATM   33  O   UNL     1      -8.136   7.997  68.756  1.00  0.00    -0.121 OA 
BRANCH  32  34
HETATM   34  O   UNL     1      -8.854   5.988  67.945  1.00  0.00    -0.112 OA 
BRANCH  34  35
HETATM   35  C   UNL     1     -10.287   6.071  67.917  1.00  0.00    -0.206 C  
HETATM   36  C   UNL     1     -10.712   5.406  66.607  1.00  0.00    -0.309 C  
BRANCH  35  37
HETATM   37  O   UNL     1     -10.910   5.298  68.943  1.00  0.00    -0.081 OA 
BRANCH  37  38
HETATM   38  C   UNL     1     -10.759   5.756  70.205  1.00  0.00    -0.309 C  
HETATM   39  O   UNL     1     -10.015   5.300  71.056  1.00  0.00    -0.180 OA 
BRANCH  38  40
HETATM   40  O   UNL     1     -11.568   6.825  70.326  1.00  0.00    -0.353 OA 
BRANCH  40  41
HETATM   41  C   UNL     1     -11.976   7.399  71.589  1.00  0.00    -0.307 C  
HETATM   42  C   UNL     1     -12.813  10.253  71.499  1.00  0.00    -0.557 C  
HETATM   43  C   UNL     1     -11.015   8.552  71.883  1.00  0.00    -0.394 C  
HETATM   44  C   UNL     1     -11.404   9.816  71.122  1.00  0.00    -0.459 C  
HETATM   45  C   UNL     1     -13.847   9.161  71.247  1.00  0.00    -0.213 C  
HETATM   46  C   UNL     1     -13.443   7.790  71.797  1.00  0.00    -0.373 C  
ENDBRANCH  40  41
ENDBRANCH  38  40
ENDBRANCH  37  38
ENDBRANCH  35  37
ENDBRANCH  34  35
ENDBRANCH  32  34
ENDBRANCH   8  32
ENDBRANCH   3   4
ENDBRANCH   2   3
TORSDOF 13
ENDMDL
MODEL       18
REMARK 921   NORMALIZED FREE ENERGY PREDICTED BY IDOCK:   -7.33 KCAL/MOL
REMARK 922        TOTAL FREE ENERGY PREDICTED BY IDOCK:  -15.36 KCAL/MOL
REMARK 923 INTER-LIGAND FREE ENERGY PREDICTED BY IDOCK:  -11.82 KCAL/MOL
REMARK 924 INTRA-LIGAND FREE ENERGY PREDICTED BY IDOCK:   -3.54 KCAL/MOL
REMARK 927      BINDING AFFINITY PREDICTED BY RF-SCORE:    0.00 PKD
ROOT
HETATM    1  C   UNL     1      -6.828   7.094  66.850  1.00  0.00    -0.072 C  
HETATM    2  C   UNL     1      -6.872   6.178  68.060  1.00  0.00    -0.067 C  
ENDROOT
BRANCH   2   3
HETATM    3  O   UNL     1      -8.112   5.465  68.024  1.00  0.00    -0.095 OA 
BRANCH   3   4
HETATM    4  C   UNL     1      -8.711   5.326  69.204  1.00  0.00    -0.100 A  
HETATM    5  N   UNL     1      -8.275   4.556  70.174  1.00  0.00    -0.066 NA 
HETATM    6  C   UNL     1      -9.184   4.711  71.180  1.00  0.00    -0.139 A  
HETATM    7  C   UNL     1     -10.179   5.655  70.857  1.00  0.00    -0.223 A  
HETATM    8  C   UNL     1     -11.134   6.028  71.835  1.00  0.00    -0.331 A  
HETATM    9  N   UNL     1      -9.900   5.943  69.527  1.00  0.00    -0.161 NA 
HETATM   10  C   UNL     1     -10.167   4.352  73.354  1.00  0.00    -0.221 A  
HETATM   11  C   UNL     1      -9.196   4.036  72.412  1.00  0.00    -0.153 A  
HETATM   12  C   UNL     1     -11.093   5.350  73.075  1.00  0.00    -0.368 A  
BRANCH   9  13
HETATM   13  C   UNL     1     -10.729   6.591  68.510  1.00  0.00    -0.273 C  
BRANCH  13  14
HETATM   14  C   UNL     1     -10.232   7.960  68.122  1.00  0.00    -0.248 A  
HETATM   15  C   UNL     1      -9.896   9.710  66.485  1.00  0.00    -0.298 A  
HETATM   16  C   UNL     1      -9.971  10.692  67.487  1.00  0.00    -0.201 A  
HETATM   17  C   UNL     1      -9.952   8.890  69.125  1.00  0.00    -0.192 A  
HETATM   18  C   UNL     1     -10.090   8.357  66.793  1.00  0.00    -0.373 A  
HETATM   19  C   UNL     1      -9.845  10.244  68.812  1.00  0.00    -0.184 A  
BRANCH  16  20
HETATM   20  C   UNL     1     -10.323  12.113  67.195  1.00  0.00    -0.233 A  
HETATM   21  C   UNL     1     -11.621  12.419  66.718  1.00  0.00    -0.444 A  
HETATM   22  C   UNL     1      -9.391  13.192  67.265  1.00  0.00    -0.225 A  
HETATM   23  C   UNL     1     -11.996  13.713  66.344  1.00  0.00    -0.466 A  
HETATM   24  C   UNL     1      -9.815  14.501  66.943  1.00  0.00    -0.265 A  
HETATM   25  C   UNL     1     -11.100  14.760  66.477  1.00  0.00    -0.334 A  
BRANCH  22  26
HETATM   26  C   UNL     1      -7.964  13.070  67.596  1.00  0.00    -0.169 A  
HETATM   27  N   UNL     1      -6.971  12.842  66.754  1.00  0.00    -0.344 NA 
HETATM   28  H   UNL     1      -7.045  12.726  65.744  1.00  0.00     0.000 HD 
HETATM   29  N   UNL     1      -5.821  12.792  67.503  1.00  0.00    -0.202 NA 
HETATM   30  N   UNL     1      -6.086  12.959  68.789  1.00  0.00    -0.070 NA 
HETATM   31  N   UNL     1      -7.418  13.085  68.854  1.00  0.00    -0.043 NA 
ENDBRANCH  22  26
ENDBRANCH  16  20
ENDBRANCH  13  14
ENDBRANCH   9  13
BRANCH   8  32
HETATM   32  C   UNL     1     -12.265   6.959  71.608  1.00  0.00    -0.361 C  
HETATM   33  O   UNL     1     -13.334   6.611  71.137  1.00  0.00    -0.063 OA 
BRANCH  32  34
HETATM   34  O   UNL     1     -12.035   8.164  72.191  1.00  0.00    -0.317 OA 
BRANCH  34  35
HETATM   35  C   UNL     1     -12.852   9.206  71.638  1.00  0.00    -0.363 C  
HETATM   36  C   UNL     1     -14.139   9.205  72.464  1.00  0.00    -0.387 C  
BRANCH  35  37
HETATM   37  O   UNL     1     -12.295  10.508  71.825  1.00  0.00    -0.331 OA 
BRANCH  37  38
HETATM   38  C   UNL     1     -12.650  11.441  70.914  1.00  0.00    -0.356 C  
HETATM   39  O   UNL     1     -12.865  11.252  69.730  1.00  0.00    -0.010 OA 
BRANCH  38  40
HETATM   40  O   UNL     1     -12.745  12.609  71.577  1.00  0.00    -0.318 OA 
BRANCH  40  41
HETATM   41  C   UNL     1     -13.140  13.860  70.970  1.00  0.00    -0.243 C  
HETATM   42  C   UNL     1     -11.940  16.308  72.164  1.00  0.00    -0.575 C  
HETATM   43  C   UNL     1     -13.840  14.679  72.057  1.00  0.00    -0.557 C  
HETATM   44  C   UNL     1     -12.836  15.377  72.969  1.00  0.00    -0.572 C  
HETATM   45  C   UNL     1     -11.201  15.581  71.046  1.00  0.00    -0.419 C  
HETATM   46  C   UNL     1     -12.101  14.679  70.196  1.00  0.00    -0.385 C  
ENDBRANCH  40  41
ENDBRANCH  38  40
ENDBRANCH  37  38
ENDBRANCH  35  37
ENDBRANCH  34  35
ENDBRANCH  32  34
ENDBRANCH   8  32
ENDBRANCH   3   4
ENDBRANCH   2   3
TORSDOF 13
ENDMDL
MODEL       19
REMARK 921   NORMALIZED FREE ENERGY PREDICTED BY IDOCK:   -7.31 KCAL/MOL
REMARK 922        TOTAL FREE ENERGY PREDICTED BY IDOCK:  -15.32 KCAL/MOL
REMARK 923 INTER-LIGAND FREE ENERGY PREDICTED BY IDOCK:  -11.94 KCAL/MOL
REMARK 924 INTRA-LIGAND FREE ENERGY PREDICTED BY IDOCK:   -3.38 KCAL/MOL
REMARK 927      BINDING AFFINITY PREDICTED BY RF-SCORE:    0.00 PKD
ROOT
HETATM    1  C   UNL     1     -13.230  11.914  71.860  1.00  0.00    -0.467 C  
HETATM    2  C   UNL     1     -13.366  10.409  72.009  1.00  0.00    -0.335 C  
ENDROOT
BRANCH   2   3
HETATM    3  O   UNL     1     -12.786   9.800  70.851  1.00  0.00    -0.304 OA 
BRANCH   3   4
HETATM    4  C   UNL     1     -11.524   9.405  71.001  1.00  0.00    -0.334 A  
HETATM    5  N   UNL     1     -10.978   9.076  72.149  1.00  0.00    -0.295 NA 
HETATM    6  C   UNL     1      -9.690   8.748  71.843  1.00  0.00    -0.316 A  
HETATM    7  C   UNL     1      -9.441   8.805  70.457  1.00  0.00    -0.186 A  
HETATM    8  C   UNL     1      -8.187   8.378  69.952  1.00  0.00    -0.122 A  
HETATM    9  N   UNL     1     -10.621   9.345  69.962  1.00  0.00    -0.220 NA 
HETATM   10  C   UNL     1      -7.425   8.031  72.265  1.00  0.00    -0.117 A  
HETATM   11  C   UNL     1      -8.675   8.393  72.748  1.00  0.00    -0.256 A  
HETATM   12  C   UNL     1      -7.203   7.997  70.893  1.00  0.00    -0.053 A  
BRANCH   9  13
HETATM   13  C   UNL     1     -10.904   9.957  68.663  1.00  0.00    -0.209 C  
BRANCH  13  14
HETATM   14  C   UNL     1     -10.663  11.446  68.642  1.00  0.00    -0.241 A  
HETATM   15  C   UNL     1      -9.281  13.364  68.128  1.00  0.00    -0.215 A  
HETATM   16  C   UNL     1     -10.422  14.164  67.944  1.00  0.00    -0.237 A  
HETATM   17  C   UNL     1     -11.746  12.310  68.807  1.00  0.00    -0.390 A  
HETATM   18  C   UNL     1      -9.404  11.998  68.413  1.00  0.00    -0.175 A  
HETATM   19  C   UNL     1     -11.631  13.651  68.440  1.00  0.00    -0.377 A  
BRANCH  16  20
HETATM   20  C   UNL     1     -10.403  15.416  67.131  1.00  0.00    -0.271 A  
HETATM   21  C   UNL     1     -10.208  16.659  67.781  1.00  0.00    -0.292 A  
HETATM   22  C   UNL     1     -10.678  15.456  65.730  1.00  0.00    -0.360 A  
HETATM   23  C   UNL     1     -10.261  17.878  67.098  1.00  0.00    -0.355 A  
HETATM   24  C   UNL     1     -10.662  16.696  65.053  1.00  0.00    -0.171 A  
HETATM   25  C   UNL     1     -10.466  17.896  65.728  1.00  0.00    -0.196 A  
BRANCH  22  26
HETATM   26  C   UNL     1     -11.046  14.303  64.897  1.00  0.00    -0.390 A  
HETATM   27  N   UNL     1     -10.226  13.537  64.197  1.00  0.00    -0.758 NA 
HETATM   28  H   UNL     1      -9.212  13.624  64.139  1.00  0.00     0.000 HD 
HETATM   29  N   UNL     1     -11.005  12.599  63.564  1.00  0.00    -0.424 NA 
HETATM   30  N   UNL     1     -12.286  12.786  63.838  1.00  0.00    -0.601 NA 
HETATM   31  N   UNL     1     -12.317  13.869  64.626  1.00  0.00    -0.567 NA 
ENDBRANCH  22  26
ENDBRANCH  16  20
ENDBRANCH  13  14
ENDBRANCH   9  13
BRANCH   8  32
HETATM   32  C   UNL     1      -7.776   8.444  68.530  1.00  0.00    -0.104 C  
HETATM   33  O   UNL     1      -7.336   9.454  68.007  1.00  0.00    -0.078 OA 
BRANCH  32  34
HETATM   34  O   UNL     1      -7.739   7.208  67.970  1.00  0.00    -0.108 OA 
BRANCH  34  35
HETATM   35  C   UNL     1      -9.050   6.666  67.749  1.00  0.00    -0.113 C  
HETATM   36  C   UNL     1      -9.104   6.314  66.262  1.00  0.00    -0.166 C  
BRANCH  35  37
HETATM   37  O   UNL     1      -9.262   5.428  68.429  1.00  0.00    -0.108 OA 
BRANCH  37  38
HETATM   38  C   UNL     1     -10.364   5.360  69.208  1.00  0.00    -0.251 C  
HETATM   39  O   UNL     1     -11.287   6.156  69.226  1.00  0.00    -0.416 OA 
BRANCH  38  40
HETATM   40  O   UNL     1     -10.254   4.233  69.934  1.00  0.00    -0.103 OA 
BRANCH  40  41
HETATM   41  C   UNL     1      -9.440   4.106  71.123  1.00  0.00    -0.163 C  
HETATM   42  C   UNL     1     -10.854   3.143  73.558  1.00  0.00    -0.316 C  
HETATM   43  C   UNL     1     -10.031   5.056  72.167  1.00  0.00    -0.236 C  
HETATM   44  C   UNL     1     -11.240   4.442  72.865  1.00  0.00    -0.159 C  
HETATM   45  C   UNL     1     -10.246   2.129  72.594  1.00  0.00    -0.224 C  
HETATM   46  C   UNL     1      -9.154   2.712  71.692  1.00  0.00    -0.156 C  
ENDBRANCH  40  41
ENDBRANCH  38  40
ENDBRANCH  37  38
ENDBRANCH  35  37
ENDBRANCH  34  35
ENDBRANCH  32  34
ENDBRANCH   8  32
ENDBRANCH   3   4
ENDBRANCH   2   3
TORSDOF 13
ENDMDL
MODEL       20
REMARK 921   NORMALIZED FREE ENERGY PREDICTED BY IDOCK:   -7.27 KCAL/MOL
REMARK 922        TOTAL FREE ENERGY PREDICTED BY IDOCK:  -15.24 KCAL/MOL
REMARK 923 INTER-LIGAND FREE ENERGY PREDICTED BY IDOCK:  -12.14 KCAL/MOL
REMARK 924 INTRA-LIGAND FREE ENERGY PREDICTED BY IDOCK:   -3.10 KCAL/MOL
REMARK 927      BINDING AFFINITY PREDICTED BY RF-SCORE:    0.00 PKD
ROOT
HETATM    1  C   UNL     1      -8.784   9.332  63.826  1.00  0.00    -0.190 C  
HETATM    2  C   UNL     1      -9.788  10.357  63.329  1.00  0.00    -0.171 C  
ENDROOT
BRANCH   2   3
HETATM    3  O   UNL     1     -10.638  10.704  64.427  1.00  0.00    -0.308 OA 
BRANCH   3   4
HETATM    4  C   UNL     1     -10.617  11.992  64.764  1.00  0.00    -0.297 A  
HETATM    5  N   UNL     1     -11.238  12.943  64.107  1.00  0.00    -0.366 NA 
HETATM    6  C   UNL     1     -10.944  14.089  64.787  1.00  0.00    -0.402 A  
HETATM    7  C   UNL     1     -10.174  13.840  65.941  1.00  0.00    -0.313 A  
HETATM    8  C   UNL     1      -9.880  14.903  66.829  1.00  0.00    -0.254 A  
HETATM    9  N   UNL     1      -9.889  12.485  65.825  1.00  0.00    -0.256 NA 
HETATM   10  C   UNL     1     -10.983  16.452  65.270  1.00  0.00    -0.203 A  
HETATM   11  C   UNL     1     -11.321  15.396  64.434  1.00  0.00    -0.246 A  
HETATM   12  C   UNL     1     -10.305  16.199  66.456  1.00  0.00    -0.311 A  
BRANCH   9  13
HETATM   13  C   UNL     1      -8.878  11.675  66.505  1.00  0.00    -0.188 C  
BRANCH  13  14
HETATM   14  C   UNL     1      -9.456  10.768  67.562  1.00  0.00    -0.168 A  
HETATM   15  C   UNL     1      -9.571   8.632  68.694  1.00  0.00    -0.159 A  
HETATM   16  C   UNL     1      -9.966   9.261  69.886  1.00  0.00    -0.226 A  
HETATM   17  C   UNL     1     -10.177  11.329  68.617  1.00  0.00    -0.214 A  
HETATM   18  C   UNL     1      -9.256   9.388  67.557  1.00  0.00    -0.139 A  
HETATM   19  C   UNL     1     -10.409  10.589  69.776  1.00  0.00    -0.211 A  
BRANCH  16  20
HETATM   20  C   UNL     1      -9.785   8.629  71.227  1.00  0.00    -0.305 A  
HETATM   21  C   UNL     1      -8.474   8.362  71.693  1.00  0.00    -0.213 A  
HETATM   22  C   UNL     1     -10.865   8.171  72.040  1.00  0.00    -0.349 A  
HETATM   23  C   UNL     1      -8.229   7.698  72.899  1.00  0.00    -0.159 A  
HETATM   24  C   UNL     1     -10.589   7.560  73.285  1.00  0.00    -0.438 A  
HETATM   25  C   UNL     1      -9.286   7.315  73.707  1.00  0.00    -0.296 A  
BRANCH  22  26
HETATM   26  C   UNL     1     -12.288   8.219  71.680  1.00  0.00    -0.315 A  
HETATM   27  N   UNL     1     -12.961   7.320  70.984  1.00  0.00    -0.592 NA 
HETATM   28  H   UNL     1     -12.595   6.449  70.599  1.00  0.00     0.000 HD 
HETATM   29  N   UNL     1     -14.250   7.783  70.877  1.00  0.00     0.007 NA 
HETATM   30  N   UNL     1     -14.379   8.959  71.471  1.00  0.00    -0.271 NA 
HETATM   31  N   UNL     1     -13.154   9.252  71.929  1.00  0.00    -0.382 NA 
ENDBRANCH  22  26
ENDBRANCH  16  20
ENDBRANCH  13  14
ENDBRANCH   9  13
BRANCH   8  32
HETATM   32  C   UNL     1      -9.033  14.790  68.041  1.00  0.00    -0.174 C  
HETATM   33  O   UNL     1      -9.486  14.601  69.157  1.00  0.00    -0.166 OA 
BRANCH  32  34
HETATM   34  O   UNL     1      -7.719  14.696  67.717  1.00  0.00    -0.127 OA 
BRANCH  34  35
HETATM   35  C   UNL     1      -6.863  15.245  68.730  1.00  0.00    -0.109 C  
HETATM   36  C   UNL     1      -5.703  14.258  68.869  1.00  0.00    -0.086 C  
BRANCH  35  37
HETATM   37  O   UNL     1      -6.254  16.476  68.337  1.00  0.00    -0.123 OA 
BRANCH  37  38
HETATM   38  C   UNL     1      -6.688  17.584  68.979  1.00  0.00    -0.247 C  
HETATM   39  O   UNL     1      -6.138  18.140  69.914  1.00  0.00    -0.229 OA 
BRANCH  38  40
HETATM   40  O   UNL     1      -7.825  17.963  68.368  1.00  0.00    -0.267 OA 
BRANCH  40  41
HETATM   41  C   UNL     1      -8.437  19.264  68.520  1.00  0.00    -0.366 C  
HETATM   42  C   UNL     1     -10.367  20.039  66.391  1.00  0.00    -0.573 C  
HETATM   43  C   UNL     1      -8.032  20.089  67.296  1.00  0.00    -0.348 C  
HETATM   44  C   UNL     1      -8.902  19.763  66.086  1.00  0.00    -0.378 C  
HETATM   45  C   UNL     1     -10.864  19.261  67.606  1.00  0.00    -0.484 C  
HETATM   46  C   UNL     1      -9.937  19.358  68.821  1.00  0.00    -0.522 C  
ENDBRANCH  40  41
ENDBRANCH  38  40
ENDBRANCH  37  38
ENDBRANCH  35  37
ENDBRANCH  34  35
ENDBRANCH  32  34
ENDBRANCH   8  32
ENDBRANCH   3   4
ENDBRANCH   2   3
TORSDOF 13
ENDMDL
MODEL       21
REMARK 921   NORMALIZED FREE ENERGY PREDICTED BY IDOCK:   -7.24 KCAL/MOL
REMARK 922        TOTAL FREE ENERGY PREDICTED BY IDOCK:  -15.20 KCAL/MOL
REMARK 923 INTER-LIGAND FREE ENERGY PREDICTED BY IDOCK:  -11.59 KCAL/MOL
REMARK 924 INTRA-LIGAND FREE ENERGY PREDICTED BY IDOCK:   -3.61 KCAL/MOL
REMARK 927      BINDING AFFINITY PREDICTED BY RF-SCORE:    0.00 PKD
ROOT
HETATM    1  C   UNL     1     -12.263   7.714  72.134  1.00  0.00    -0.301 C  
HETATM    2  C   UNL     1     -12.143   9.205  72.397  1.00  0.00    -0.154 C  
ENDROOT
BRANCH   2   3
HETATM    3  O   UNL     1     -13.235   9.855  71.738  1.00  0.00    -0.386 OA 
BRANCH   3   4
HETATM    4  C   UNL     1     -13.037  11.142  71.467  1.00  0.00    -0.385 A  
HETATM    5  N   UNL     1     -13.344  12.130  72.276  1.00  0.00    -0.396 NA 
HETATM    6  C   UNL     1     -12.981  13.260  71.603  1.00  0.00    -0.349 A  
HETATM    7  C   UNL     1     -12.367  12.970  70.368  1.00  0.00    -0.277 A  
HETATM    8  C   UNL     1     -11.821  14.023  69.594  1.00  0.00    -0.386 A  
HETATM    9  N   UNL     1     -12.528  11.594  70.268  1.00  0.00    -0.223 NA 
HETATM   10  C   UNL     1     -12.694  15.628  71.241  1.00  0.00    -0.537 A  
HETATM   11  C   UNL     1     -13.174  14.586  72.024  1.00  0.00    -0.446 A  
HETATM   12  C   UNL     1     -12.005  15.343  70.068  1.00  0.00    -0.383 A  
BRANCH   9  13
HETATM   13  C   UNL     1     -12.408  10.714  69.105  1.00  0.00     0.182 C  
BRANCH  13  14
HETATM   14  C   UNL     1     -10.981  10.356  68.776  1.00  0.00    -0.287 A  
HETATM   15  C   UNL     1      -8.730   9.774  69.447  1.00  0.00    -0.178 A  
HETATM   16  C   UNL     1      -8.544   9.039  68.264  1.00  0.00    -0.130 A  
HETATM   17  C   UNL     1     -10.668   9.938  67.481  1.00  0.00    -0.333 A  
HETATM   18  C   UNL     1      -9.964  10.375  69.729  1.00  0.00    -0.167 A  
HETATM   19  C   UNL     1      -9.471   9.266  67.234  1.00  0.00    -0.181 A  
BRANCH  16  20
HETATM   20  C   UNL     1      -7.524   7.956  68.143  1.00  0.00    -0.107 A  
HETATM   21  C   UNL     1      -7.668   6.780  68.919  1.00  0.00    -0.110 A  
HETATM   22  C   UNL     1      -6.334   8.071  67.362  1.00  0.00    -0.056 A  
HETATM   23  C   UNL     1      -6.711   5.761  68.921  1.00  0.00    -0.060 A  
HETATM   24  C   UNL     1      -5.414   6.999  67.332  1.00  0.00    -0.020 A  
HETATM   25  C   UNL     1      -5.592   5.860  68.111  1.00  0.00    -0.008 A  
BRANCH  22  26
HETATM   26  C   UNL     1      -5.922   9.258  66.600  1.00  0.00    -0.060 A  
HETATM   27  N   UNL     1      -5.539  10.423  67.092  1.00  0.00    -0.041 NA 
HETATM   28  H   UNL     1      -5.461  10.671  68.078  1.00  0.00     0.000 HD 
HETATM   29  N   UNL     1      -5.264  11.236  66.019  1.00  0.00    -0.243 NA 
HETATM   30  N   UNL     1      -5.494  10.605  64.878  1.00  0.00    -0.145 NA 
HETATM   31  N   UNL     1      -5.946   9.396  65.236  1.00  0.00    -0.062 NA 
ENDBRANCH  22  26
ENDBRANCH  16  20
ENDBRANCH  13  14
ENDBRANCH   9  13
BRANCH   8  32
HETATM   32  C   UNL     1     -11.205  13.864  68.255  1.00  0.00    -0.272 C  
HETATM   33  O   UNL     1     -10.012  13.672  68.087  1.00  0.00    -0.232 OA 
BRANCH  32  34
HETATM   34  O   UNL     1     -12.150  13.732  67.290  1.00  0.00    -0.389 OA 
BRANCH  34  35
HETATM   35  C   UNL     1     -11.599  13.811  65.967  1.00  0.00    -0.346 C  
HETATM   36  C   UNL     1     -12.061  12.541  65.251  1.00  0.00    -0.500 C  
BRANCH  35  37
HETATM   37  O   UNL     1     -12.145  14.886  65.201  1.00  0.00    -0.279 OA 
BRANCH  37  38
HETATM   38  C   UNL     1     -11.263  15.816  64.772  1.00  0.00    -0.366 C  
HETATM   39  O   UNL     1     -11.455  16.648  63.903  1.00  0.00    -1.186 OA 
BRANCH  38  40
HETATM   40  O   UNL     1     -10.147  15.658  65.508  1.00  0.00    -0.343 OA 
BRANCH  40  41
HETATM   41  C   UNL     1      -9.210  16.718  65.804  1.00  0.00     0.034 C  
HETATM   42  C   UNL     1      -8.980  17.474  68.673  1.00  0.00    -0.260 C  
HETATM   43  C   UNL     1     -10.015  17.861  66.426  1.00  0.00    -0.358 C  
HETATM   44  C   UNL     1     -10.287  17.616  67.906  1.00  0.00    -0.371 C  
HETATM   45  C   UNL     1      -8.100  16.357  68.120  1.00  0.00    -0.165 C  
HETATM   46  C   UNL     1      -7.939  16.396  66.598  1.00  0.00    -0.323 C  
ENDBRANCH  40  41
ENDBRANCH  38  40
ENDBRANCH  37  38
ENDBRANCH  35  37
ENDBRANCH  34  35
ENDBRANCH  32  34
ENDBRANCH   8  32
ENDBRANCH   3   4
ENDBRANCH   2   3
TORSDOF 13
ENDMDL
MODEL       22
REMARK 921   NORMALIZED FREE ENERGY PREDICTED BY IDOCK:   -7.22 KCAL/MOL
REMARK 922        TOTAL FREE ENERGY PREDICTED BY IDOCK:  -15.16 KCAL/MOL
REMARK 923 INTER-LIGAND FREE ENERGY PREDICTED BY IDOCK:  -12.65 KCAL/MOL
REMARK 924 INTRA-LIGAND FREE ENERGY PREDICTED BY IDOCK:   -2.51 KCAL/MOL
REMARK 927      BINDING AFFINITY PREDICTED BY RF-SCORE:    0.00 PKD
ROOT
HETATM    1  C   UNL     1     -12.710  11.844  63.332  1.00  0.00    -0.496 C  
HETATM    2  C   UNL     1     -11.232  11.669  63.636  1.00  0.00    -0.411 C  
ENDROOT
BRANCH   2   3
HETATM    3  O   UNL     1     -11.037  11.934  65.029  1.00  0.00    -0.304 OA 
BRANCH   3   4
HETATM    4  C   UNL     1     -10.220  11.088  65.649  1.00  0.00    -0.260 A  
HETATM    5  N   UNL     1      -9.386  10.277  65.041  1.00  0.00    -0.214 NA 
HETATM    6  C   UNL     1      -8.761   9.598  66.046  1.00  0.00    -0.138 A  
HETATM    7  C   UNL     1      -9.163  10.045  67.320  1.00  0.00    -0.141 A  
HETATM    8  C   UNL     1      -8.525   9.531  68.477  1.00  0.00    -0.119 A  
HETATM    9  N   UNL     1     -10.192  10.929  67.018  1.00  0.00    -0.205 NA 
HETATM   10  C   UNL     1      -7.238   8.009  67.036  1.00  0.00    -0.087 A  
HETATM   11  C   UNL     1      -7.824   8.560  65.904  1.00  0.00    -0.099 A  
HETATM   12  C   UNL     1      -7.564   8.512  68.290  1.00  0.00    -0.097 A  
BRANCH   9  13
HETATM   13  C   UNL     1     -11.237  11.486  67.877  1.00  0.00    -0.279 C  
BRANCH  13  14
HETATM   14  C   UNL     1     -10.938  12.889  68.342  1.00  0.00    -0.285 A  
HETATM   15  C   UNL     1      -9.425  14.757  68.613  1.00  0.00    -0.213 A  
HETATM   16  C   UNL     1     -10.497  15.664  68.542  1.00  0.00    -0.236 A  
HETATM   17  C   UNL     1     -12.000  13.750  68.627  1.00  0.00    -0.401 A  
HETATM   18  C   UNL     1      -9.639  13.383  68.449  1.00  0.00    -0.188 A  
HETATM   19  C   UNL     1     -11.783  15.125  68.704  1.00  0.00    -0.364 A  
BRANCH  16  20
HETATM   20  C   UNL     1     -10.314  17.095  68.159  1.00  0.00    -0.350 A  
HETATM   21  C   UNL     1     -10.117  18.062  69.175  1.00  0.00    -0.204 A  
HETATM   22  C   UNL     1     -10.430  17.579  66.821  1.00  0.00    -0.270 A  
HETATM   23  C   UNL     1     -10.023  19.430  68.898  1.00  0.00    -0.519 A  
HETATM   24  C   UNL     1     -10.266  18.959  66.562  1.00  0.00    -0.470 A  
HETATM   25  C   UNL     1     -10.075  19.878  67.589  1.00  0.00    -0.564 A  
BRANCH  22  26
HETATM   26  C   UNL     1     -10.773  16.768  65.644  1.00  0.00    -0.192 A  
HETATM   27  N   UNL     1     -11.307  17.197  64.514  1.00  0.00    -0.926 NA 
HETATM   28  H   UNL     1     -11.553  18.160  64.284  1.00  0.00     0.000 HD 
HETATM   29  N   UNL     1     -11.466  16.096  63.708  1.00  0.00    -0.731 NA 
HETATM   30  N   UNL     1     -11.065  14.997  64.326  1.00  0.00    -0.065 NA 
HETATM   31  N   UNL     1     -10.678  15.405  65.542  1.00  0.00    -0.359 NA 
ENDBRANCH  22  26
ENDBRANCH  16  20
ENDBRANCH  13  14
ENDBRANCH   9  13
BRANCH   8  32
HETATM   32  C   UNL     1      -8.892   9.870  69.872  1.00  0.00    -0.195 C  
HETATM   33  O   UNL     1     -10.042  10.052  70.235  1.00  0.00    -0.260 OA 
BRANCH  32  34
HETATM   34  O   UNL     1      -7.834   9.725  70.710  1.00  0.00    -0.304 OA 
BRANCH  34  35
HETATM   35  C   UNL     1      -7.944   8.556  71.535  1.00  0.00    -0.133 C  
HETATM   36  C   UNL     1      -6.522   8.253  72.012  1.00  0.00    -0.067 C  
BRANCH  35  37
HETATM   37  O   UNL     1      -8.692   8.786  72.730  1.00  0.00    -0.398 OA 
BRANCH  37  38
HETATM   38  C   UNL     1      -9.460   7.759  73.156  1.00  0.00    -0.264 C  
HETATM   39  O   UNL     1      -9.421   7.234  74.255  1.00  0.00    -0.240 OA 
BRANCH  38  40
HETATM   40  O   UNL     1     -10.289   7.452  72.141  1.00  0.00    -0.192 OA 
BRANCH  40  41
HETATM   41  C   UNL     1     -10.602   6.103  71.725  1.00  0.00    -0.223 C  
HETATM   42  C   UNL     1      -9.574   5.307  69.048  1.00  0.00    -0.199 C  
HETATM   43  C   UNL     1     -11.440   6.216  70.449  1.00  0.00    -0.342 C  
HETATM   44  C   UNL     1     -10.566   6.449  69.221  1.00  0.00    -0.311 C  
HETATM   45  C   UNL     1      -8.693   5.111  70.277  1.00  0.00    -0.132 C  
HETATM   46  C   UNL     1      -9.472   5.076  71.595  1.00  0.00    -0.198 C  
ENDBRANCH  40  41
ENDBRANCH  38  40
ENDBRANCH  37  38
ENDBRANCH  35  37
ENDBRANCH  34  35
ENDBRANCH  32  34
ENDBRANCH   8  32
ENDBRANCH   3   4
ENDBRANCH   2   3
TORSDOF 13
ENDMDL
MODEL       23
REMARK 921   NORMALIZED FREE ENERGY PREDICTED BY IDOCK:   -7.22 KCAL/MOL
REMARK 922        TOTAL FREE ENERGY PREDICTED BY IDOCK:  -15.15 KCAL/MOL
REMARK 923 INTER-LIGAND FREE ENERGY PREDICTED BY IDOCK:  -11.99 KCAL/MOL
REMARK 924 INTRA-LIGAND FREE ENERGY PREDICTED BY IDOCK:   -3.16 KCAL/MOL
REMARK 927      BINDING AFFINITY PREDICTED BY RF-SCORE:    0.00 PKD
ROOT
HETATM    1  C   UNL     1     -14.230  15.485  72.105  1.00  0.00    -0.617 C  
HETATM    2  C   UNL     1     -12.736  15.594  71.857  1.00  0.00    -0.442 C  
ENDROOT
BRANCH   2   3
HETATM    3  O   UNL     1     -12.521  15.518  70.444  1.00  0.00    -0.400 OA 
BRANCH   3   4
HETATM    4  C   UNL     1     -12.224  14.303  69.990  1.00  0.00    -0.359 A  
HETATM    5  N   UNL     1     -12.108  13.234  70.742  1.00  0.00    -0.304 NA 
HETATM    6  C   UNL     1     -11.793  12.228  69.876  1.00  0.00    -0.311 A  
HETATM    7  C   UNL     1     -11.780  12.664  68.536  1.00  0.00    -0.330 A  
HETATM    8  C   UNL     1     -11.590  11.722  67.495  1.00  0.00    -0.361 A  
HETATM    9  N   UNL     1     -11.951  14.037  68.665  1.00  0.00    -0.362 NA 
HETATM   10  C   UNL     1     -11.249   9.978  69.196  1.00  0.00    -0.197 A  
HETATM   11  C   UNL     1     -11.497  10.895  70.208  1.00  0.00    -0.391 A  
HETATM   12  C   UNL     1     -11.328  10.384  67.869  1.00  0.00    -0.248 A  
BRANCH   9  13
HETATM   13  C   UNL     1     -11.711  15.110  67.700  1.00  0.00    -0.216 C  
BRANCH  13  14
HETATM   14  C   UNL     1     -10.313  15.670  67.769  1.00  0.00    -0.266 A  
HETATM   15  C   UNL     1      -8.134  16.064  66.793  1.00  0.00    -0.302 A  
HETATM   16  C   UNL     1      -7.986  17.241  67.545  1.00  0.00    -0.194 A  
HETATM   17  C   UNL     1     -10.009  16.617  68.749  1.00  0.00    -0.265 A  
HETATM   18  C   UNL     1      -9.318  15.318  66.858  1.00  0.00    -0.255 A  
HETATM   19  C   UNL     1      -8.868  17.409  68.625  1.00  0.00    -0.258 A  
BRANCH  16  20
HETATM   20  C   UNL     1      -7.058  18.340  67.144  1.00  0.00    -0.211 A  
HETATM   21  C   UNL     1      -7.151  18.880  65.838  1.00  0.00    -0.294 A  
HETATM   22  C   UNL     1      -5.995  18.820  67.967  1.00  0.00    -0.201 A  
HETATM   23  C   UNL     1      -6.263  19.851  65.364  1.00  0.00    -0.265 A  
HETATM   24  C   UNL     1      -5.152  19.848  67.486  1.00  0.00    -0.175 A  
HETATM   25  C   UNL     1      -5.275  20.352  66.195  1.00  0.00    -0.191 A  
BRANCH  22  26
HETATM   26  C   UNL     1      -5.636  18.299  69.292  1.00  0.00    -0.210 A  
HETATM   27  N   UNL     1      -5.467  17.031  69.627  1.00  0.00    -0.168 NA 
HETATM   28  H   UNL     1      -5.551  16.222  69.010  1.00  0.00     0.000 HD 
HETATM   29  N   UNL     1      -5.156  17.011  70.964  1.00  0.00    -0.326 NA 
HETATM   30  N   UNL     1      -5.154  18.236  71.467  1.00  0.00    -0.548 NA 
HETATM   31  N   UNL     1      -5.496  19.030  70.443  1.00  0.00    -0.226 NA 
ENDBRANCH  22  26
ENDBRANCH  16  20
ENDBRANCH  13  14
ENDBRANCH   9  13
BRANCH   8  32
HETATM   32  C   UNL     1     -11.495  12.055  66.054  1.00  0.00    -0.338 C  
HETATM   33  O   UNL     1     -12.368  12.650  65.446  1.00  0.00    -0.528 OA 
BRANCH  32  34
HETATM   34  O   UNL     1     -10.246  11.821  65.575  1.00  0.00    -0.233 OA 
BRANCH  34  35
HETATM   35  C   UNL     1     -10.245  10.904  64.471  1.00  0.00    -0.356 C  
HETATM   36  C   UNL     1     -10.208  11.774  63.213  1.00  0.00    -0.452 C  
BRANCH  35  37
HETATM   37  O   UNL     1      -9.058  10.112  64.406  1.00  0.00    -0.203 OA 
BRANCH  37  38
HETATM   38  C   UNL     1      -8.608   9.621  65.582  1.00  0.00    -0.136 C  
HETATM   39  O   UNL     1      -8.952   8.577  66.109  1.00  0.00    -0.157 OA 
BRANCH  38  40
HETATM   40  O   UNL     1      -7.692  10.494  66.039  1.00  0.00    -0.137 OA 
BRANCH  40  41
HETATM   41  C   UNL     1      -7.214  10.534  67.404  1.00  0.00    -0.092 C  
HETATM   42  C   UNL     1      -6.457  13.224  68.427  1.00  0.00    -0.091 C  
HETATM   43  C   UNL     1      -5.779  11.065  67.355  1.00  0.00    -0.048 C  
HETATM   44  C   UNL     1      -5.746  12.585  67.242  1.00  0.00    -0.084 C  
HETATM   45  C   UNL     1      -7.900  12.750  68.563  1.00  0.00    -0.099 C  
HETATM   46  C   UNL     1      -8.061  11.229  68.475  1.00  0.00    -0.148 C  
ENDBRANCH  40  41
ENDBRANCH  38  40
ENDBRANCH  37  38
ENDBRANCH  35  37
ENDBRANCH  34  35
ENDBRANCH  32  34
ENDBRANCH   8  32
ENDBRANCH   3   4
ENDBRANCH   2   3
TORSDOF 13
ENDMDL
MODEL       24
REMARK 921   NORMALIZED FREE ENERGY PREDICTED BY IDOCK:   -7.18 KCAL/MOL
REMARK 922        TOTAL FREE ENERGY PREDICTED BY IDOCK:  -15.10 KCAL/MOL
REMARK 923 INTER-LIGAND FREE ENERGY PREDICTED BY IDOCK:  -12.97 KCAL/MOL
REMARK 924 INTRA-LIGAND FREE ENERGY PREDICTED BY IDOCK:   -2.13 KCAL/MOL
REMARK 927      BINDING AFFINITY PREDICTED BY RF-SCORE:    0.00 PKD
ROOT
HETATM    1  C   UNL     1     -12.938  11.955  63.660  1.00  0.00    -0.317 C  
HETATM    2  C   UNL     1     -11.677  12.674  63.216  1.00  0.00    -0.393 C  
ENDROOT
BRANCH   2   3
HETATM    3  O   UNL     1     -10.857  12.874  64.371  1.00  0.00    -0.335 OA 
BRANCH   3   4
HETATM    4  C   UNL     1     -10.541  11.762  65.031  1.00  0.00    -0.288 A  
HETATM    5  N   UNL     1     -10.017  10.692  64.480  1.00  0.00    -0.322 NA 
HETATM    6  C   UNL     1      -9.867   9.806  65.506  1.00  0.00    -0.308 A  
HETATM    7  C   UNL     1     -10.241  10.361  66.746  1.00  0.00    -0.226 A  
HETATM    8  C   UNL     1     -10.036   9.619  67.936  1.00  0.00    -0.201 A  
HETATM    9  N   UNL     1     -10.780  11.587  66.377  1.00  0.00    -0.264 NA 
HETATM   10  C   UNL     1      -9.260   7.727  66.569  1.00  0.00    -0.229 A  
HETATM   11  C   UNL     1      -9.408   8.482  65.413  1.00  0.00     0.056 A  
HETATM   12  C   UNL     1      -9.540   8.301  67.803  1.00  0.00    -0.178 A  
BRANCH   9  13
HETATM   13  C   UNL     1     -11.632  12.507  67.131  1.00  0.00    -0.368 C  
BRANCH  13  14
HETATM   14  C   UNL     1     -10.912  13.753  67.579  1.00  0.00    -0.285 A  
HETATM   15  C   UNL     1      -9.092  15.336  67.388  1.00  0.00    -0.201 A  
HETATM   16  C   UNL     1      -9.909  16.367  67.883  1.00  0.00    -0.238 A  
HETATM   17  C   UNL     1     -11.585  14.673  68.385  1.00  0.00    -0.351 A  
HETATM   18  C   UNL     1      -9.611  14.052  67.178  1.00  0.00    -0.245 A  
HETATM   19  C   UNL     1     -11.098  15.973  68.516  1.00  0.00    -0.347 A  
BRANCH  16  20
HETATM   20  C   UNL     1      -9.628  17.810  67.623  1.00  0.00    -0.266 A  
HETATM   21  C   UNL     1     -10.626  18.610  67.015  1.00  0.00    -0.448 A  
HETATM   22  C   UNL     1      -8.360  18.425  67.853  1.00  0.00    -0.274 A  
HETATM   23  C   UNL     1     -10.406  19.946  66.666  1.00  0.00    -0.608 A  
HETATM   24  C   UNL     1      -8.185  19.794  67.549  1.00  0.00    -0.347 A  
HETATM   25  C   UNL     1      -9.191  20.546  66.952  1.00  0.00    -0.400 A  
BRANCH  22  26
HETATM   26  C   UNL     1      -7.153  17.743  68.339  1.00  0.00    -0.239 A  
HETATM   27  N   UNL     1      -6.164  17.261  67.606  1.00  0.00    -0.145 NA 
HETATM   28  H   UNL     1      -6.086  17.299  66.590  1.00  0.00     0.000 HD 
HETATM   29  N   UNL     1      -5.263  16.698  68.476  1.00  0.00    -0.112 NA 
HETATM   30  N   UNL     1      -5.686  16.801  69.726  1.00  0.00    -0.195 NA 
HETATM   31  N   UNL     1      -6.879  17.406  69.639  1.00  0.00    -0.073 NA 
ENDBRANCH  22  26
ENDBRANCH  16  20
ENDBRANCH  13  14
ENDBRANCH   9  13
BRANCH   8  32
HETATM   32  C   UNL     1     -10.439  10.059  69.293  1.00  0.00    -0.225 C  
HETATM   33  O   UNL     1      -9.652  10.188  70.215  1.00  0.00    -0.118 OA 
BRANCH  32  34
HETATM   34  O   UNL     1     -11.721  10.505  69.306  1.00  0.00    -0.260 OA 
BRANCH  34  35
HETATM   35  C   UNL     1     -12.178  10.823  70.629  1.00  0.00    -0.379 C  
HETATM   36  C   UNL     1     -12.524  12.312  70.599  1.00  0.00    -0.323 C  
BRANCH  35  37
HETATM   37  O   UNL     1     -13.402  10.167  70.966  1.00  0.00    -0.387 OA 
BRANCH  37  38
HETATM   38  C   UNL     1     -13.379   9.409  72.085  1.00  0.00    -0.468 C  
HETATM   39  O   UNL     1     -14.329   9.151  72.803  1.00  0.00    -0.563 OA 
BRANCH  38  40
HETATM   40  O   UNL     1     -12.113   8.975  72.230  1.00  0.00    -0.346 OA 
BRANCH  40  41
HETATM   41  C   UNL     1     -11.750   7.616  72.564  1.00  0.00    -0.301 C  
HETATM   42  C   UNL     1     -10.412   6.070  70.401  1.00  0.00    -0.307 C  
HETATM   43  C   UNL     1     -12.517   6.705  71.601  1.00  0.00    -0.353 C  
HETATM   44  C   UNL     1     -11.826   6.613  70.245  1.00  0.00    -0.378 C  
HETATM   45  C   UNL     1      -9.568   6.913  71.352  1.00  0.00    -0.167 C  
HETATM   46  C   UNL     1     -10.269   7.240  72.674  1.00  0.00    -0.251 C  
ENDBRANCH  40  41
ENDBRANCH  38  40
ENDBRANCH  37  38
ENDBRANCH  35  37
ENDBRANCH  34  35
ENDBRANCH  32  34
ENDBRANCH   8  32
ENDBRANCH   3   4
ENDBRANCH   2   3
TORSDOF 13
ENDMDL
MODEL       25
REMARK 921   NORMALIZED FREE ENERGY PREDICTED BY IDOCK:   -7.17 KCAL/MOL
REMARK 922        TOTAL FREE ENERGY PREDICTED BY IDOCK:  -15.08 KCAL/MOL
REMARK 923 INTER-LIGAND FREE ENERGY PREDICTED BY IDOCK:  -11.70 KCAL/MOL
REMARK 924 INTRA-LIGAND FREE ENERGY PREDICTED BY IDOCK:   -3.37 KCAL/MOL
REMARK 927      BINDING AFFINITY PREDICTED BY RF-SCORE:    0.00 PKD
ROOT
HETATM    1  C   UNL     1      -8.132   8.559  63.739  1.00  0.00    -0.154 C  
HETATM    2  C   UNL     1      -7.625   7.290  64.401  1.00  0.00    -0.111 C  
ENDROOT
BRANCH   2   3
HETATM    3  O   UNL     1      -8.578   6.905  65.397  1.00  0.00    -0.131 OA 
BRANCH   3   4
HETATM    4  C   UNL     1      -8.148   7.010  66.652  1.00  0.00    -0.110 A  
HETATM    5  N   UNL     1      -7.067   6.430  67.119  1.00  0.00    -0.071 NA 
HETATM    6  C   UNL     1      -7.012   6.797  68.432  1.00  0.00    -0.077 A  
HETATM    7  C   UNL     1      -8.048   7.687  68.780  1.00  0.00    -0.127 A  
HETATM    8  C   UNL     1      -8.072   8.263  70.074  1.00  0.00    -0.116 A  
HETATM    9  N   UNL     1      -8.826   7.707  67.629  1.00  0.00    -0.125 NA 
HETATM   10  C   UNL     1      -6.123   6.886  70.674  1.00  0.00    -0.028 A  
HETATM   11  C   UNL     1      -6.071   6.372  69.385  1.00  0.00    -0.029 A  
HETATM   12  C   UNL     1      -7.087   7.835  70.994  1.00  0.00    -0.053 A  
BRANCH   9  13
HETATM   13  C   UNL     1     -10.200   8.168  67.429  1.00  0.00    -0.258 C  
BRANCH  13  14
HETATM   14  C   UNL     1     -10.294   9.642  67.127  1.00  0.00    -0.319 A  
HETATM   15  C   UNL     1     -11.166  11.851  67.589  1.00  0.00    -0.340 A  
HETATM   16  C   UNL     1     -10.001  12.442  67.072  1.00  0.00    -0.218 A  
HETATM   17  C   UNL     1      -9.327  10.230  66.310  1.00  0.00    -0.206 A  
HETATM   18  C   UNL     1     -11.283  10.458  67.674  1.00  0.00    -0.287 A  
HETATM   19  C   UNL     1      -9.169  11.615  66.301  1.00  0.00    -0.225 A  
BRANCH  16  20
HETATM   20  C   UNL     1      -9.570  13.824  67.439  1.00  0.00    -0.229 A  
HETATM   21  C   UNL     1      -8.764  14.014  68.588  1.00  0.00    -0.103 A  
HETATM   22  C   UNL     1     -10.010  14.999  66.758  1.00  0.00    -0.254 A  
HETATM   23  C   UNL     1      -8.391  15.283  69.040  1.00  0.00    -0.215 A  
HETATM   24  C   UNL     1      -9.566  16.267  67.199  1.00  0.00    -0.238 A  
HETATM   25  C   UNL     1      -8.775  16.411  68.333  1.00  0.00    -0.213 A  
BRANCH  22  26
HETATM   26  C   UNL     1     -10.959  15.034  65.637  1.00  0.00    -0.354 A  
HETATM   27  N   UNL     1     -10.986  15.911  64.647  1.00  0.00    -0.811 NA 
HETATM   28  H   UNL     1     -10.343  16.690  64.508  1.00  0.00     0.000 HD 
HETATM   29  N   UNL     1     -12.046  15.569  63.844  1.00  0.00    -0.479 NA 
HETATM   30  N   UNL     1     -12.687  14.517  64.329  1.00  0.00    -0.670 NA 
HETATM   31  N   UNL     1     -12.043  14.213  65.464  1.00  0.00    -0.395 NA 
ENDBRANCH  22  26
ENDBRANCH  16  20
ENDBRANCH  13  14
ENDBRANCH   9  13
BRANCH   8  32
HETATM   32  C   UNL     1      -9.134   9.162  70.586  1.00  0.00    -0.257 C  
HETATM   33  O   UNL     1      -9.275  10.312  70.208  1.00  0.00     0.081 OA 
BRANCH  32  34
HETATM   34  O   UNL     1     -10.038   8.480  71.334  1.00  0.00    -0.198 OA 
BRANCH  34  35
HETATM   35  C   UNL     1     -11.391   8.853  71.033  1.00  0.00    -0.291 C  
HETATM   36  C   UNL     1     -12.248   7.647  71.423  1.00  0.00    -0.351 C  
BRANCH  35  37
HETATM   37  O   UNL     1     -11.868   9.923  71.850  1.00  0.00    -0.300 OA 
BRANCH  37  38
HETATM   38  C   UNL     1     -12.765  10.754  71.275  1.00  0.00    -0.441 C  
HETATM   39  O   UNL     1     -13.618  10.446  70.461  1.00  0.00    -0.021 OA 
BRANCH  38  40
HETATM   40  O   UNL     1     -12.549  11.976  71.797  1.00  0.00    -0.185 OA 
BRANCH  40  41
HETATM   41  C   UNL     1     -13.082  13.203  71.248  1.00  0.00    -0.193 C  
HETATM   42  C   UNL     1     -12.082  15.715  72.492  1.00  0.00    -0.563 C  
HETATM   43  C   UNL     1     -13.819  13.913  72.385  1.00  0.00    -0.668 C  
HETATM   44  C   UNL     1     -12.856  14.674  73.290  1.00  0.00    -0.580 C  
HETATM   45  C   UNL     1     -11.315  15.099  71.326  1.00  0.00    -0.368 C  
HETATM   46  C   UNL     1     -12.153  14.143  70.472  1.00  0.00    -0.420 C  
ENDBRANCH  40  41
ENDBRANCH  38  40
ENDBRANCH  37  38
ENDBRANCH  35  37
ENDBRANCH  34  35
ENDBRANCH  32  34
ENDBRANCH   8  32
ENDBRANCH   3   4
ENDBRANCH   2   3
TORSDOF 13
ENDMDL
MODEL       26
REMARK 921   NORMALIZED FREE ENERGY PREDICTED BY IDOCK:   -7.15 KCAL/MOL
REMARK 922        TOTAL FREE ENERGY PREDICTED BY IDOCK:  -15.04 KCAL/MOL
REMARK 923 INTER-LIGAND FREE ENERGY PREDICTED BY IDOCK:  -10.87 KCAL/MOL
REMARK 924 INTRA-LIGAND FREE ENERGY PREDICTED BY IDOCK:   -4.17 KCAL/MOL
REMARK 927      BINDING AFFINITY PREDICTED BY RF-SCORE:    0.00 PKD
ROOT
HETATM    1  C   UNL     1      -9.731   3.799  62.377  1.00  0.00    -0.114 C  
HETATM    2  C   UNL     1      -9.422   3.571  63.846  1.00  0.00    -0.135 C  
ENDROOT
BRANCH   2   3
HETATM    3  O   UNL     1      -8.996   4.820  64.402  1.00  0.00    -0.152 OA 
BRANCH   3   4
HETATM    4  C   UNL     1      -9.025   4.878  65.731  1.00  0.00    -0.142 A  
HETATM    5  N   UNL     1      -9.643   4.013  66.501  1.00  0.00    -0.201 NA 
HETATM    6  C   UNL     1      -9.420   4.455  67.773  1.00  0.00    -0.163 A  
HETATM    7  C   UNL     1      -8.583   5.588  67.804  1.00  0.00    -0.108 A  
HETATM    8  C   UNL     1      -8.151   6.106  69.050  1.00  0.00    -0.112 A  
HETATM    9  N   UNL     1      -8.444   5.896  66.457  1.00  0.00    -0.111 NA 
HETATM   10  C   UNL     1      -9.567   4.443  70.181  1.00  0.00    -0.263 A  
HETATM   11  C   UNL     1      -9.938   3.903  68.957  1.00  0.00     0.151 A  
HETATM   12  C   UNL     1      -8.667   5.501  70.220  1.00  0.00    -0.134 A  
BRANCH   9  13
HETATM   13  C   UNL     1      -7.976   7.126  65.816  1.00  0.00    -0.123 C  
BRANCH  13  14
HETATM   14  C   UNL     1      -8.967   8.258  65.909  1.00  0.00    -0.208 A  
HETATM   15  C   UNL     1     -11.005   9.228  66.783  1.00  0.00     0.204 A  
HETATM   16  C   UNL     1     -10.465  10.521  66.665  1.00  0.00    -0.290 A  
HETATM   17  C   UNL     1      -8.588   9.529  65.471  1.00  0.00    -0.163 A  
HETATM   18  C   UNL     1     -10.235   8.101  66.466  1.00  0.00    -0.248 A  
HETATM   19  C   UNL     1      -9.319  10.649  65.865  1.00  0.00    -0.224 A  
BRANCH  16  20
HETATM   20  C   UNL     1     -10.969  11.677  67.463  1.00  0.00    -0.312 A  
HETATM   21  C   UNL     1     -10.835  11.655  68.873  1.00  0.00    -0.264 A  
HETATM   22  C   UNL     1     -11.685  12.777  66.900  1.00  0.00    -0.447 A  
HETATM   23  C   UNL     1     -11.357  12.662  69.691  1.00  0.00    -0.174 A  
HETATM   24  C   UNL     1     -12.146  13.813  67.744  1.00  0.00    -0.325 A  
HETATM   25  C   UNL     1     -11.994  13.753  69.126  1.00  0.00    -0.403 A  
BRANCH  22  26
HETATM   26  C   UNL     1     -12.057  12.923  65.487  1.00  0.00    -0.458 A  
HETATM   27  N   UNL     1     -11.684  13.887  64.663  1.00  0.00    -0.378 NA 
HETATM   28  H   UNL     1     -11.070  14.672  64.884  1.00  0.00     0.000 HD 
HETATM   29  N   UNL     1     -12.280  13.629  63.453  1.00  0.00    -0.676 NA 
HETATM   30  N   UNL     1     -13.032  12.541  63.520  1.00  0.00    -0.680 NA 
HETATM   31  N   UNL     1     -12.932  12.129  64.791  1.00  0.00    -0.527 NA 
ENDBRANCH  22  26
ENDBRANCH  16  20
ENDBRANCH  13  14
ENDBRANCH   9  13
BRANCH   8  32
HETATM   32  C   UNL     1      -7.322   7.322  69.225  1.00  0.00    -0.087 C  
HETATM   33  O   UNL     1      -6.103   7.312  69.186  1.00  0.00    -0.029 OA 
BRANCH  32  34
HETATM   34  O   UNL     1      -8.084   8.445  69.202  1.00  0.00    -0.114 OA 
BRANCH  34  35
HETATM   35  C   UNL     1      -7.840   9.297  70.331  1.00  0.00    -0.148 C  
HETATM   36  C   UNL     1      -7.406  10.642  69.746  1.00  0.00    -0.115 C  
BRANCH  35  37
HETATM   37  O   UNL     1      -9.022   9.584  71.078  1.00  0.00    -0.241 OA 
BRANCH  37  38
HETATM   38  C   UNL     1      -9.291   8.750  72.107  1.00  0.00    -0.206 C  
HETATM   39  O   UNL     1      -8.477   8.121  72.760  1.00  0.00    -0.156 OA 
BRANCH  38  40
HETATM   40  O   UNL     1     -10.625   8.772  72.283  1.00  0.00    -0.337 OA 
BRANCH  40  41
HETATM   41  C   UNL     1     -11.589   8.783  71.204  1.00  0.00    -0.289 C  
HETATM   42  C   UNL     1     -14.252   7.618  71.842  1.00  0.00    -0.492 C  
HETATM   43  C   UNL     1     -11.944   7.323  70.914  1.00  0.00    -0.342 C  
HETATM   44  C   UNL     1     -12.977   6.789  71.901  1.00  0.00    -0.229 C  
HETATM   45  C   UNL     1     -13.997   9.097  72.114  1.00  0.00    -0.466 C  
HETATM   46  C   UNL     1     -12.827   9.679  71.314  1.00  0.00    -0.438 C  
ENDBRANCH  40  41
ENDBRANCH  38  40
ENDBRANCH  37  38
ENDBRANCH  35  37
ENDBRANCH  34  35
ENDBRANCH  32  34
ENDBRANCH   8  32
ENDBRANCH   3   4
ENDBRANCH   2   3
TORSDOF 13
ENDMDL
MODEL       27
REMARK 921   NORMALIZED FREE ENERGY PREDICTED BY IDOCK:   -7.13 KCAL/MOL
REMARK 922        TOTAL FREE ENERGY PREDICTED BY IDOCK:  -15.01 KCAL/MOL
REMARK 923 INTER-LIGAND FREE ENERGY PREDICTED BY IDOCK:  -12.04 KCAL/MOL
REMARK 924 INTRA-LIGAND FREE ENERGY PREDICTED BY IDOCK:   -2.97 KCAL/MOL
REMARK 927      BINDING AFFINITY PREDICTED BY RF-SCORE:    0.00 PKD
ROOT
HETATM    1  C   UNL     1     -12.985  12.131  63.453  1.00  0.00    -0.258 C  
HETATM    2  C   UNL     1     -11.536  11.679  63.449  1.00  0.00    -0.260 C  
ENDROOT
BRANCH   2   3
HETATM    3  O   UNL     1     -11.094  11.613  64.808  1.00  0.00    -0.304 OA 
BRANCH   3   4
HETATM    4  C   UNL     1     -10.070  10.791  65.024  1.00  0.00    -0.313 A  
HETATM    5  N   UNL     1      -9.565   9.980  64.124  1.00  0.00    -0.269 NA 
HETATM    6  C   UNL     1      -8.552   9.330  64.767  1.00  0.00    -0.184 A  
HETATM    7  C   UNL     1      -8.373   9.796  66.085  1.00  0.00    -0.120 A  
HETATM    8  C   UNL     1      -7.287   9.314  66.857  1.00  0.00    -0.090 A  
HETATM    9  N   UNL     1      -9.449  10.659  66.247  1.00  0.00    -0.172 NA 
HETATM   10  C   UNL     1      -6.718   7.782  65.018  1.00  0.00    -0.051 A  
HETATM   11  C   UNL     1      -7.748   8.303  64.245  1.00  0.00    -0.134 A  
HETATM   12  C   UNL     1      -6.479   8.305  66.284  1.00  0.00    -0.047 A  
BRANCH   9  13
HETATM   13  C   UNL     1     -10.031  11.219  67.468  1.00  0.00    -0.182 C  
BRANCH  13  14
HETATM   14  C   UNL     1      -9.475  12.574  67.824  1.00  0.00    -0.197 A  
HETATM   15  C   UNL     1      -7.950  14.411  67.432  1.00  0.00    -0.220 A  
HETATM   16  C   UNL     1      -8.868  15.320  67.987  1.00  0.00    -0.169 A  
HETATM   17  C   UNL     1     -10.206  13.405  68.675  1.00  0.00    -0.187 A  
HETATM   18  C   UNL     1      -8.280  13.057  67.294  1.00  0.00    -0.174 A  
HETATM   19  C   UNL     1      -9.918  14.768  68.737  1.00  0.00    -0.234 A  
BRANCH  16  20
HETATM   20  C   UNL     1      -8.839  16.780  67.677  1.00  0.00    -0.207 A  
HETATM   21  C   UNL     1      -8.196  17.665  68.576  1.00  0.00    -0.292 A  
HETATM   22  C   UNL     1      -9.519  17.368  66.568  1.00  0.00    -0.288 A  
HETATM   23  C   UNL     1      -8.201  19.052  68.395  1.00  0.00    -0.382 A  
HETATM   24  C   UNL     1      -9.454  18.767  66.373  1.00  0.00    -0.336 A  
HETATM   25  C   UNL     1      -8.812  19.603  67.281  1.00  0.00    -0.380 A  
BRANCH  22  26
HETATM   26  C   UNL     1     -10.360  16.650  65.600  1.00  0.00    -0.290 A  
HETATM   27  N   UNL     1     -10.422  15.342  65.420  1.00  0.00    -0.372 NA 
HETATM   28  H   UNL     1      -9.902  14.632  65.935  1.00  0.00     0.000 HD 
HETATM   29  N   UNL     1     -11.323  15.124  64.407  1.00  0.00    -0.261 NA 
HETATM   30  N   UNL     1     -11.798  16.268  63.942  1.00  0.00    -0.922 NA 
HETATM   31  N   UNL     1     -11.168  17.217  64.649  1.00  0.00    -0.959 NA 
ENDBRANCH  22  26
ENDBRANCH  16  20
ENDBRANCH  13  14
ENDBRANCH   9  13
BRANCH   8  32
HETATM   32  C   UNL     1      -7.021   9.675  68.270  1.00  0.00    -0.073 C  
HETATM   33  O   UNL     1      -6.176  10.488  68.604  1.00  0.00    -0.046 OA 
BRANCH  32  34
HETATM   34  O   UNL     1      -7.972   9.169  69.095  1.00  0.00    -0.093 OA 
BRANCH  34  35
HETATM   35  C   UNL     1      -8.008   7.734  69.076  1.00  0.00    -0.123 C  
HETATM   36  C   UNL     1      -6.952   7.282  70.085  1.00  0.00    -0.060 C  
BRANCH  35  37
HETATM   37  O   UNL     1      -9.239   7.202  69.567  1.00  0.00    -0.149 OA 
BRANCH  37  38
HETATM   38  C   UNL     1     -10.356   7.583  68.907  1.00  0.00    -0.211 C  
HETATM   39  O   UNL     1     -10.487   7.671  67.699  1.00  0.00    -0.225 OA 
BRANCH  38  40
HETATM   40  O   UNL     1     -11.294   7.819  69.842  1.00  0.00    -0.139 OA 
BRANCH  40  41
HETATM   41  C   UNL     1     -11.062   8.563  71.060  1.00  0.00    -0.260 C  
HETATM   42  C   UNL     1     -13.134  10.584  71.753  1.00  0.00    -0.570 C  
HETATM   43  C   UNL     1     -10.946  10.036  70.664  1.00  0.00    -0.392 C  
HETATM   44  C   UNL     1     -12.317  10.676  70.472  1.00  0.00    -0.448 C  
HETATM   45  C   UNL     1     -13.300   9.145  72.234  1.00  0.00    -0.540 C  
HETATM   46  C   UNL     1     -11.992   8.349  72.260  1.00  0.00    -0.455 C  
ENDBRANCH  40  41
ENDBRANCH  38  40
ENDBRANCH  37  38
ENDBRANCH  35  37
ENDBRANCH  34  35
ENDBRANCH  32  34
ENDBRANCH   8  32
ENDBRANCH   3   4
ENDBRANCH   2   3
TORSDOF 13
ENDMDL
MODEL       28
REMARK 921   NORMALIZED FREE ENERGY PREDICTED BY IDOCK:   -7.12 KCAL/MOL
REMARK 922        TOTAL FREE ENERGY PREDICTED BY IDOCK:  -14.98 KCAL/MOL
REMARK 923 INTER-LIGAND FREE ENERGY PREDICTED BY IDOCK:  -12.66 KCAL/MOL
REMARK 924 INTRA-LIGAND FREE ENERGY PREDICTED BY IDOCK:   -2.32 KCAL/MOL
REMARK 927      BINDING AFFINITY PREDICTED BY RF-SCORE:    0.00 PKD
ROOT
HETATM    1  C   UNL     1      -5.141   9.588  65.823  1.00  0.00    -0.035 C  
HETATM    2  C   UNL     1      -5.790  10.957  65.936  1.00  0.00    -0.130 C  
ENDROOT
BRANCH   2   3
HETATM    3  O   UNL     1      -6.784  10.886  66.963  1.00  0.00    -0.084 OA 
BRANCH   3   4
HETATM    4  C   UNL     1      -7.208  12.064  67.412  1.00  0.00    -0.144 A  
HETATM    5  N   UNL     1      -6.421  13.054  67.764  1.00  0.00    -0.133 NA 
HETATM    6  C   UNL     1      -7.265  14.050  68.161  1.00  0.00    -0.129 A  
HETATM    7  C   UNL     1      -8.619  13.700  67.988  1.00  0.00    -0.175 A  
HETATM    8  C   UNL     1      -9.629  14.662  68.237  1.00  0.00    -0.208 A  
HETATM    9  N   UNL     1      -8.539  12.365  67.610  1.00  0.00    -0.161 NA 
HETATM   10  C   UNL     1      -7.889  16.224  69.000  1.00  0.00    -0.235 A  
HETATM   11  C   UNL     1      -6.901  15.297  68.696  1.00  0.00    -0.109 A  
HETATM   12  C   UNL     1      -9.220  15.917  68.744  1.00  0.00    -0.218 A  
BRANCH   9  13
HETATM   13  C   UNL     1      -9.571  11.329  67.589  1.00  0.00    -0.171 C  
BRANCH  13  14
HETATM   14  C   UNL     1      -9.791  10.682  68.933  1.00  0.00    -0.210 A  
HETATM   15  C   UNL     1     -11.238   9.688  70.598  1.00  0.00    -0.385 A  
HETATM   16  C   UNL     1     -10.182   8.890  71.070  1.00  0.00    -0.322 A  
HETATM   17  C   UNL     1      -8.694  10.166  69.625  1.00  0.00    -0.176 A  
HETATM   18  C   UNL     1     -11.058  10.532  69.495  1.00  0.00    -0.320 A  
HETATM   19  C   UNL     1      -8.889   9.261  70.668  1.00  0.00    -0.287 A  
BRANCH  16  20
HETATM   20  C   UNL     1     -10.409   7.622  71.826  1.00  0.00    -0.233 A  
HETATM   21  C   UNL     1     -10.277   7.625  73.236  1.00  0.00    -0.398 A  
HETATM   22  C   UNL     1     -10.651   6.360  71.203  1.00  0.00    -0.282 A  
HETATM   23  C   UNL     1     -10.393   6.461  74.002  1.00  0.00    -0.340 A  
HETATM   24  C   UNL     1     -10.828   5.210  72.005  1.00  0.00    -0.194 A  
HETATM   25  C   UNL     1     -10.690   5.255  73.388  1.00  0.00    -0.329 A  
BRANCH  22  26
HETATM   26  C   UNL     1     -10.682   6.112  69.755  1.00  0.00    -0.310 A  
HETATM   27  N   UNL     1     -11.475   6.688  68.868  1.00  0.00    -0.602 NA 
HETATM   28  H   UNL     1     -12.180   7.401  69.055  1.00  0.00     0.000 HD 
HETATM   29  N   UNL     1     -11.167   6.142  67.646  1.00  0.00    -0.201 NA 
HETATM   30  N   UNL     1     -10.219   5.226  67.764  1.00  0.00    -0.173 NA 
HETATM   31  N   UNL     1      -9.950   5.173  69.076  1.00  0.00    -0.187 NA 
ENDBRANCH  22  26
ENDBRANCH  16  20
ENDBRANCH  13  14
ENDBRANCH   9  13
BRANCH   8  32
HETATM   32  C   UNL     1     -11.086  14.407  68.153  1.00  0.00    -0.264 C  
HETATM   33  O   UNL     1     -11.737  13.941  69.073  1.00  0.00    -0.290 OA 
BRANCH  32  34
HETATM   34  O   UNL     1     -11.620  14.960  67.034  1.00  0.00    -0.362 OA 
BRANCH  34  35
HETATM   35  C   UNL     1     -11.081  14.393  65.831  1.00  0.00    -0.319 C  
HETATM   36  C   UNL     1     -12.282  14.160  64.912  1.00  0.00    -0.451 C  
BRANCH  35  37
HETATM   37  O   UNL     1     -10.241  15.301  65.116  1.00  0.00    -0.368 OA 
BRANCH  37  38
HETATM   38  C   UNL     1     -10.713  16.559  64.974  1.00  0.00    -0.209 C  
HETATM   39  O   UNL     1     -11.484  16.950  64.115  1.00  0.00    -1.174 OA 
BRANCH  38  40
HETATM   40  O   UNL     1     -10.186  17.283  65.979  1.00  0.00    -0.397 OA 
BRANCH  40  41
HETATM   41  C   UNL     1     -10.047  18.723  65.960  1.00  0.00    -0.317 C  
HETATM   42  C   UNL     1      -8.936  19.945  68.436  1.00  0.00    -0.255 C  
HETATM   43  C   UNL     1     -10.932  19.268  67.082  1.00  0.00    -0.439 C  
HETATM   44  C   UNL     1     -10.245  19.167  68.440  1.00  0.00    -0.473 C  
HETATM   45  C   UNL     1      -7.984  19.474  67.340  1.00  0.00    -0.305 C  
HETATM   46  C   UNL     1      -8.645  19.341  65.965  1.00  0.00    -0.155 C  
ENDBRANCH  40  41
ENDBRANCH  38  40
ENDBRANCH  37  38
ENDBRANCH  35  37
ENDBRANCH  34  35
ENDBRANCH  32  34
ENDBRANCH   8  32
ENDBRANCH   3   4
ENDBRANCH   2   3
TORSDOF 13
ENDMDL
MODEL       29
REMARK 921   NORMALIZED FREE ENERGY PREDICTED BY IDOCK:   -7.11 KCAL/MOL
REMARK 922        TOTAL FREE ENERGY PREDICTED BY IDOCK:  -14.97 KCAL/MOL
REMARK 923 INTER-LIGAND FREE ENERGY PREDICTED BY IDOCK:  -11.02 KCAL/MOL
REMARK 924 INTRA-LIGAND FREE ENERGY PREDICTED BY IDOCK:   -3.95 KCAL/MOL
REMARK 927      BINDING AFFINITY PREDICTED BY RF-SCORE:    0.00 PKD
ROOT
HETATM    1  C   UNL     1     -13.065  14.741  72.965  1.00  0.00    -0.614 C  
HETATM    2  C   UNL     1     -13.686  14.328  71.641  1.00  0.00    -0.386 C  
ENDROOT
BRANCH   2   3
HETATM    3  O   UNL     1     -12.933  13.223  71.131  1.00  0.00    -0.296 OA 
BRANCH   3   4
HETATM    4  C   UNL     1     -12.231  13.485  70.032  1.00  0.00    -0.312 A  
HETATM    5  N   UNL     1     -11.890  14.690  69.636  1.00  0.00    -0.301 NA 
HETATM    6  C   UNL     1     -11.196  14.494  68.477  1.00  0.00    -0.266 A  
HETATM    7  C   UNL     1     -11.039  13.127  68.175  1.00  0.00    -0.255 A  
HETATM    8  C   UNL     1     -10.240  12.740  67.070  1.00  0.00    -0.245 A  
HETATM    9  N   UNL     1     -11.822  12.513  69.145  1.00  0.00    -0.306 NA 
HETATM   10  C   UNL     1      -9.945  15.117  66.511  1.00  0.00    -0.279 A  
HETATM   11  C   UNL     1     -10.678  15.488  67.630  1.00  0.00    -0.302 A  
HETATM   12  C   UNL     1      -9.709  13.771  66.261  1.00  0.00    -0.297 A  
BRANCH   9  13
HETATM   13  C   UNL     1     -12.348  11.149  69.206  1.00  0.00    -0.101 C  
BRANCH  13  14
HETATM   14  C   UNL     1     -11.832  10.365  70.386  1.00  0.00    -0.418 A  
HETATM   15  C   UNL     1     -12.187   8.906  72.283  1.00  0.00    -0.413 A  
HETATM   16  C   UNL     1     -10.895   8.371  72.141  1.00  0.00    -0.407 A  
HETATM   17  C   UNL     1     -10.465  10.094  70.475  1.00  0.00    -0.173 A  
HETATM   18  C   UNL     1     -12.673   9.851  71.370  1.00  0.00    -0.503 A  
HETATM   19  C   UNL     1     -10.006   9.092  71.328  1.00  0.00    -0.373 A  
BRANCH  16  20
HETATM   20  C   UNL     1     -10.516   7.033  72.683  1.00  0.00    -0.254 A  
HETATM   21  C   UNL     1     -11.505   6.025  72.791  1.00  0.00    -0.248 A  
HETATM   22  C   UNL     1      -9.223   6.726  73.207  1.00  0.00    -0.154 A  
HETATM   23  C   UNL     1     -11.244   4.777  73.365  1.00  0.00    -0.425 A  
HETATM   24  C   UNL     1      -8.969   5.435  73.722  1.00  0.00    -0.124 A  
HETATM   25  C   UNL     1      -9.969   4.473  73.812  1.00  0.00    -0.189 A  
BRANCH  22  26
HETATM   26  C   UNL     1      -8.101   7.668  73.322  1.00  0.00    -0.134 A  
HETATM   27  N   UNL     1      -7.049   7.750  72.525  1.00  0.00    -0.076 NA 
HETATM   28  H   UNL     1      -6.864   7.177  71.702  1.00  0.00     0.000 HD 
HETATM   29  N   UNL     1      -6.255   8.756  73.018  1.00  0.00    -0.224 NA 
HETATM   30  N   UNL     1      -6.782   9.278  74.115  1.00  0.00    -0.273 NA 
HETATM   31  N   UNL     1      -7.902   8.574  74.330  1.00  0.00    -0.376 NA 
ENDBRANCH  22  26
ENDBRANCH  16  20
ENDBRANCH  13  14
ENDBRANCH   9  13
BRANCH   8  32
HETATM   32  C   UNL     1     -10.044  11.346  66.609  1.00  0.00    -0.212 C  
HETATM   33  O   UNL     1     -10.535  10.905  65.584  1.00  0.00    -0.249 OA 
BRANCH  32  34
HETATM   34  O   UNL     1      -9.086  10.716  67.336  1.00  0.00    -0.139 OA 
BRANCH  34  35
HETATM   35  C   UNL     1      -8.038  10.178  66.516  1.00  0.00    -0.121 C  
HETATM   36  C   UNL     1      -6.922  11.223  66.535  1.00  0.00    -0.100 C  
BRANCH  35  37
HETATM   37  O   UNL     1      -7.450   9.000  67.067  1.00  0.00    -0.086 OA 
BRANCH  37  38
HETATM   38  C   UNL     1      -7.534   8.866  68.409  1.00  0.00    -0.086 C  
HETATM   39  O   UNL     1      -6.795   9.373  69.234  1.00  0.00    -0.048 OA 
BRANCH  38  40
HETATM   40  O   UNL     1      -8.607   8.089  68.652  1.00  0.00    -0.127 OA 
BRANCH  40  41
HETATM   41  C   UNL     1      -8.819   6.787  68.061  1.00  0.00    -0.119 C  
HETATM   42  C   UNL     1      -9.550   4.614  69.959  1.00  0.00    -0.259 C  
HETATM   43  C   UNL     1      -7.783   5.846  68.681  1.00  0.00    -0.094 C  
HETATM   44  C   UNL     1      -8.223   5.353  70.056  1.00  0.00    -0.095 C  
HETATM   45  C   UNL     1     -10.651   5.473  69.344  1.00  0.00    -0.349 C  
HETATM   46  C   UNL     1     -10.229   6.186  68.056  1.00  0.00    -0.210 C  
ENDBRANCH  40  41
ENDBRANCH  38  40
ENDBRANCH  37  38
ENDBRANCH  35  37
ENDBRANCH  34  35
ENDBRANCH  32  34
ENDBRANCH   8  32
ENDBRANCH   3   4
ENDBRANCH   2   3
TORSDOF 13
ENDMDL
MODEL       30
REMARK 921   NORMALIZED FREE ENERGY PREDICTED BY IDOCK:   -7.09 KCAL/MOL
REMARK 922        TOTAL FREE ENERGY PREDICTED BY IDOCK:  -14.92 KCAL/MOL
REMARK 923 INTER-LIGAND FREE ENERGY PREDICTED BY IDOCK:  -11.93 KCAL/MOL
REMARK 924 INTRA-LIGAND FREE ENERGY PREDICTED BY IDOCK:   -2.99 KCAL/MOL
REMARK 927      BINDING AFFINITY PREDICTED BY RF-SCORE:    0.00 PKD
ROOT
HETATM    1  C   UNL     1     -12.140  13.636  64.641  1.00  0.00    -0.449 C  
HETATM    2  C   UNL     1     -11.839  12.776  63.426  1.00  0.00    -0.518 C  
ENDROOT
BRANCH   2   3
HETATM    3  O   UNL     1     -11.640  11.433  63.878  1.00  0.00    -0.299 OA 
BRANCH   3   4
HETATM    4  C   UNL     1     -10.366  11.067  63.998  1.00  0.00    -0.371 A  
HETATM    5  N   UNL     1      -9.467  11.176  63.047  1.00  0.00    -0.341 NA 
HETATM    6  C   UNL     1      -8.318  10.683  63.594  1.00  0.00    -0.043 A  
HETATM    7  C   UNL     1      -8.483  10.321  64.945  1.00  0.00    -0.177 A  
HETATM    8  C   UNL     1      -7.360   9.904  65.701  1.00  0.00    -0.116 A  
HETATM    9  N   UNL     1      -9.851  10.478  65.133  1.00  0.00    -0.273 NA 
HETATM   10  C   UNL     1      -5.990  10.052  63.664  1.00  0.00    -0.130 A  
HETATM   11  C   UNL     1      -7.083  10.519  62.945  1.00  0.00    -0.050 A  
HETATM   12  C   UNL     1      -6.127   9.783  65.020  1.00  0.00    -0.092 A  
BRANCH   9  13
HETATM   13  C   UNL     1     -10.720   9.972  66.197  1.00  0.00     0.093 C  
BRANCH  13  14
HETATM   14  C   UNL     1     -10.710  10.836  67.433  1.00  0.00    -0.317 A  
HETATM   15  C   UNL     1     -10.681  13.004  68.506  1.00  0.00    -0.275 A  
HETATM   16  C   UNL     1     -11.374  12.488  69.615  1.00  0.00    -0.182 A  
HETATM   17  C   UNL     1     -11.067  10.270  68.658  1.00  0.00    -0.290 A  
HETATM   18  C   UNL     1     -10.408  12.196  67.395  1.00  0.00    -0.220 A  
HETATM   19  C   UNL     1     -11.416  11.090  69.730  1.00  0.00    -0.387 A  
BRANCH  16  20
HETATM   20  C   UNL     1     -12.163  13.352  70.542  1.00  0.00    -0.425 A  
HETATM   21  C   UNL     1     -13.052  12.746  71.463  1.00  0.00    -0.380 A  
HETATM   22  C   UNL     1     -12.160  14.779  70.492  1.00  0.00    -0.378 A  
HETATM   23  C   UNL     1     -13.884  13.493  72.304  1.00  0.00    -0.680 A  
HETATM   24  C   UNL     1     -12.962  15.510  71.397  1.00  0.00    -0.553 A  
HETATM   25  C   UNL     1     -13.824  14.876  72.287  1.00  0.00    -0.588 A  
BRANCH  22  26
HETATM   26  C   UNL     1     -11.423  15.600  69.521  1.00  0.00    -0.344 A  
HETATM   27  N   UNL     1     -11.803  15.911  68.294  1.00  0.00    -0.344 NA 
HETATM   28  H   UNL     1     -12.674  15.635  67.839  1.00  0.00     0.000 HD 
HETATM   29  N   UNL     1     -10.802  16.677  67.750  1.00  0.00    -0.325 NA 
HETATM   30  N   UNL     1      -9.802  16.824  68.605  1.00  0.00    -0.249 NA 
HETATM   31  N   UNL     1     -10.165  16.119  69.686  1.00  0.00    -0.260 NA 
ENDBRANCH  22  26
ENDBRANCH  16  20
ENDBRANCH  13  14
ENDBRANCH   9  13
BRANCH   8  32
HETATM   32  C   UNL     1      -7.407   9.439  67.108  1.00  0.00    -0.087 C  
HETATM   33  O   UNL     1      -7.195   8.285  67.438  1.00  0.00    -0.081 OA 
BRANCH  32  34
HETATM   34  O   UNL     1      -7.484  10.485  67.970  1.00  0.00    -0.088 OA 
BRANCH  34  35
HETATM   35  C   UNL     1      -7.014  10.149  69.284  1.00  0.00    -0.068 C  
HETATM   36  C   UNL     1      -6.285  11.394  69.791  1.00  0.00    -0.135 C  
BRANCH  35  37
HETATM   37  O   UNL     1      -8.075   9.938  70.217  1.00  0.00    -0.181 OA 
BRANCH  37  38
HETATM   38  C   UNL     1      -8.084   8.740  70.843  1.00  0.00    -0.150 C  
HETATM   39  O   UNL     1      -7.188   8.273  71.524  1.00  0.00    -0.070 OA 
BRANCH  38  40
HETATM   40  O   UNL     1      -9.283   8.182  70.589  1.00  0.00    -0.150 OA 
BRANCH  40  41
HETATM   41  C   UNL     1      -9.983   7.305  71.501  1.00  0.00    -0.182 C  
HETATM   42  C   UNL     1     -12.911   7.775  71.751  1.00  0.00    -0.352 C  
HETATM   43  C   UNL     1     -10.588   8.192  72.591  1.00  0.00    -0.414 C  
HETATM   44  C   UNL     1     -11.890   8.839  72.130  1.00  0.00    -0.436 C  
HETATM   45  C   UNL     1     -12.393   6.833  70.669  1.00  0.00    -0.231 C  
HETATM   46  C   UNL     1     -10.987   6.290  70.944  1.00  0.00    -0.344 C  
ENDBRANCH  40  41
ENDBRANCH  38  40
ENDBRANCH  37  38
ENDBRANCH  35  37
ENDBRANCH  34  35
ENDBRANCH  32  34
ENDBRANCH   8  32
ENDBRANCH   3   4
ENDBRANCH   2   3
TORSDOF 13
ENDMDL
MODEL       31
REMARK 921   NORMALIZED FREE ENERGY PREDICTED BY IDOCK:   -7.08 KCAL/MOL
REMARK 922        TOTAL FREE ENERGY PREDICTED BY IDOCK:  -14.91 KCAL/MOL
REMARK 923 INTER-LIGAND FREE ENERGY PREDICTED BY IDOCK:  -12.00 KCAL/MOL
REMARK 924 INTRA-LIGAND FREE ENERGY PREDICTED BY IDOCK:   -2.92 KCAL/MOL
REMARK 927      BINDING AFFINITY PREDICTED BY RF-SCORE:    0.00 PKD
ROOT
HETATM    1  C   UNL     1     -12.188  13.181  63.529  1.00  0.00    -0.552 C  
HETATM    2  C   UNL     1     -12.433  12.635  64.925  1.00  0.00    -0.494 C  
ENDROOT
BRANCH   2   3
HETATM    3  O   UNL     1     -11.342  13.050  65.754  1.00  0.00    -0.289 OA 
BRANCH   3   4
HETATM    4  C   UNL     1     -11.195  12.348  66.875  1.00  0.00    -0.305 A  
HETATM    5  N   UNL     1     -12.176  12.024  67.685  1.00  0.00    -0.374 NA 
HETATM    6  C   UNL     1     -11.581  11.324  68.694  1.00  0.00    -0.318 A  
HETATM    7  C   UNL     1     -10.201  11.144  68.475  1.00  0.00    -0.198 A  
HETATM    8  C   UNL     1      -9.450  10.336  69.364  1.00  0.00    -0.225 A  
HETATM    9  N   UNL     1      -9.972  11.921  67.346  1.00  0.00    -0.189 NA 
HETATM   10  C   UNL     1     -11.461  10.076  70.755  1.00  0.00    -0.438 A  
HETATM   11  C   UNL     1     -12.205  10.818  69.847  1.00  0.00    -0.384 A  
HETATM   12  C   UNL     1     -10.121   9.817  70.495  1.00  0.00    -0.289 A  
BRANCH   9  13
HETATM   13  C   UNL     1      -8.716  12.426  66.789  1.00  0.00    -0.160 C  
BRANCH  13  14
HETATM   14  C   UNL     1      -8.060  13.471  67.655  1.00  0.00    -0.180 A  
HETATM   15  C   UNL     1      -6.218  14.956  68.161  1.00  0.00    -0.144 A  
HETATM   16  C   UNL     1      -7.090  15.858  68.794  1.00  0.00    -0.138 A  
HETATM   17  C   UNL     1      -8.839  14.177  68.574  1.00  0.00    -0.173 A  
HETATM   18  C   UNL     1      -6.711  13.801  67.540  1.00  0.00    -0.131 A  
HETATM   19  C   UNL     1      -8.366  15.369  69.120  1.00  0.00    -0.242 A  
BRANCH  16  20
HETATM   20  C   UNL     1      -6.759  17.302  68.976  1.00  0.00    -0.238 A  
HETATM   21  C   UNL     1      -5.764  17.670  69.914  1.00  0.00    -0.247 A  
HETATM   22  C   UNL     1      -7.463  18.364  68.332  1.00  0.00    -0.300 A  
HETATM   23  C   UNL     1      -5.459  19.005  70.198  1.00  0.00    -0.239 A  
HETATM   24  C   UNL     1      -7.091  19.703  68.590  1.00  0.00    -0.369 A  
HETATM   25  C   UNL     1      -6.107  20.023  69.520  1.00  0.00    -0.368 A  
BRANCH  22  26
HETATM   26  C   UNL     1      -8.618  18.207  67.437  1.00  0.00    -0.244 A  
HETATM   27  N   UNL     1      -8.590  17.890  66.154  1.00  0.00    -0.488 NA 
HETATM   28  H   UNL     1      -7.760  17.696  65.594  1.00  0.00     0.000 HD 
HETATM   29  N   UNL     1      -9.893  17.871  65.722  1.00  0.00    -0.532 NA 
HETATM   30  N   UNL     1     -10.721  18.194  66.703  1.00  0.00    -0.253 NA 
HETATM   31  N   UNL     1      -9.930  18.447  67.754  1.00  0.00    -0.330 NA 
ENDBRANCH  22  26
ENDBRANCH  16  20
ENDBRANCH  13  14
ENDBRANCH   9  13
BRANCH   8  32
HETATM   32  C   UNL     1      -7.986  10.116  69.283  1.00  0.00    -0.138 C  
HETATM   33  O   UNL     1      -7.167  10.890  69.749  1.00  0.00    -0.136 OA 
BRANCH  32  34
HETATM   34  O   UNL     1      -7.699   8.865  68.841  1.00  0.00    -0.091 OA 
BRANCH  34  35
HETATM   35  C   UNL     1      -8.204   8.621  67.519  1.00  0.00    -0.110 C  
HETATM   36  C   UNL     1      -6.987   8.686  66.595  1.00  0.00    -0.079 C  
BRANCH  35  37
HETATM   37  O   UNL     1      -8.720   7.299  67.357  1.00  0.00    -0.120 OA 
BRANCH  37  38
HETATM   38  C   UNL     1     -10.022   7.127  67.678  1.00  0.00    -0.158 C  
HETATM   39  O   UNL     1     -10.971   7.201  66.918  1.00  0.00    -0.363 OA 
BRANCH  38  40
HETATM   40  O   UNL     1     -10.058   6.834  68.992  1.00  0.00    -0.155 OA 
BRANCH  40  41
HETATM   41  C   UNL     1     -11.026   5.950  69.602  1.00  0.00    -0.377 C  
HETATM   42  C   UNL     1     -10.661   5.452  72.514  1.00  0.00    -0.288 C  
HETATM   43  C   UNL     1     -10.248   4.749  70.145  1.00  0.00    -0.259 C  
HETATM   44  C   UNL     1      -9.603   5.060  71.492  1.00  0.00    -0.213 C  
HETATM   45  C   UNL     1     -11.497   6.643  72.056  1.00  0.00    -0.329 C  
HETATM   46  C   UNL     1     -12.020   6.516  70.622  1.00  0.00    -0.345 C  
ENDBRANCH  40  41
ENDBRANCH  38  40
ENDBRANCH  37  38
ENDBRANCH  35  37
ENDBRANCH  34  35
ENDBRANCH  32  34
ENDBRANCH   8  32
ENDBRANCH   3   4
ENDBRANCH   2   3
TORSDOF 13
ENDMDL
MODEL       32
REMARK 921   NORMALIZED FREE ENERGY PREDICTED BY IDOCK:   -7.05 KCAL/MOL
REMARK 922        TOTAL FREE ENERGY PREDICTED BY IDOCK:  -14.86 KCAL/MOL
REMARK 923 INTER-LIGAND FREE ENERGY PREDICTED BY IDOCK:  -12.32 KCAL/MOL
REMARK 924 INTRA-LIGAND FREE ENERGY PREDICTED BY IDOCK:   -2.54 KCAL/MOL
REMARK 927      BINDING AFFINITY PREDICTED BY RF-SCORE:    0.00 PKD
ROOT
HETATM    1  C   UNL     1     -12.363   7.470  71.862  1.00  0.00    -0.342 C  
HETATM    2  C   UNL     1     -12.448   8.984  71.929  1.00  0.00    -0.384 C  
ENDROOT
BRANCH   2   3
HETATM    3  O   UNL     1     -12.748   9.464  70.614  1.00  0.00    -0.087 OA 
BRANCH   3   4
HETATM    4  C   UNL     1     -12.467  10.749  70.412  1.00  0.00    -0.347 A  
HETATM    5  N   UNL     1     -12.903  11.734  71.162  1.00  0.00    -0.323 NA 
HETATM    6  C   UNL     1     -12.386  12.862  70.596  1.00  0.00    -0.302 A  
HETATM    7  C   UNL     1     -11.547  12.572  69.502  1.00  0.00    -0.281 A  
HETATM    8  C   UNL     1     -10.831  13.619  68.870  1.00  0.00    -0.264 A  
HETATM    9  N   UNL     1     -11.719  11.202  69.346  1.00  0.00    -0.302 NA 
HETATM   10  C   UNL     1     -11.973  15.225  70.342  1.00  0.00    -0.374 A  
HETATM   11  C   UNL     1     -12.625  14.188  70.995  1.00  0.00    -0.439 A  
HETATM   12  C   UNL     1     -11.072  14.936  69.323  1.00  0.00    -0.284 A  
BRANCH   9  13
HETATM   13  C   UNL     1     -11.394  10.334  68.214  1.00  0.00    -0.177 C  
BRANCH  13  14
HETATM   14  C   UNL     1     -10.523   9.163  68.593  1.00  0.00    -0.235 A  
HETATM   15  C   UNL     1      -8.915   8.101  70.056  1.00  0.00    -0.143 A  
HETATM   16  C   UNL     1      -9.425   6.832  69.731  1.00  0.00    -0.144 A  
HETATM   17  C   UNL     1     -10.775   7.916  68.018  1.00  0.00    -0.119 A  
HETATM   18  C   UNL     1      -9.504   9.262  69.539  1.00  0.00    -0.178 A  
HETATM   19  C   UNL     1     -10.248   6.762  68.596  1.00  0.00    -0.184 A  
BRANCH  16  20
HETATM   20  C   UNL     1      -9.245   5.643  70.615  1.00  0.00    -0.176 A  
HETATM   21  C   UNL     1      -9.692   4.376  70.169  1.00  0.00    -0.288 A  
HETATM   22  C   UNL     1      -8.739   5.716  71.948  1.00  0.00    -0.135 A  
HETATM   23  C   UNL     1      -9.633   3.234  70.974  1.00  0.00    -0.234 A  
HETATM   24  C   UNL     1      -8.631   4.535  72.718  1.00  0.00    -0.113 A  
HETATM   25  C   UNL     1      -9.082   3.308  72.242  1.00  0.00    -0.145 A  
BRANCH  22  26
HETATM   26  C   UNL     1      -8.356   6.947  72.652  1.00  0.00    -0.109 A  
HETATM   27  N   UNL     1      -9.146   7.734  73.362  1.00  0.00    -0.248 NA 
HETATM   28  H   UNL     1     -10.142   7.598  73.537  1.00  0.00     0.000 HD 
HETATM   29  N   UNL     1      -8.368   8.769  73.820  1.00  0.00    -0.249 NA 
HETATM   30  N   UNL     1      -7.123   8.651  73.388  1.00  0.00    -0.339 NA 
HETATM   31  N   UNL     1      -7.124   7.548  72.626  1.00  0.00    -0.068 NA 
ENDBRANCH  22  26
ENDBRANCH  16  20
ENDBRANCH  13  14
ENDBRANCH   9  13
BRANCH   8  32
HETATM   32  C   UNL     1      -9.966  13.459  67.677  1.00  0.00    -0.229 C  
HETATM   33  O   UNL     1      -8.750  13.533  67.719  1.00  0.00    -0.165 OA 
BRANCH  32  34
HETATM   34  O   UNL     1     -10.674  13.004  66.612  1.00  0.00    -0.270 OA 
BRANCH  34  35
HETATM   35  C   UNL     1     -10.530  13.845  65.458  1.00  0.00    -0.323 C  
HETATM   36  C   UNL     1     -10.536  12.899  64.256  1.00  0.00    -0.430 C  
BRANCH  35  37
HETATM   37  O   UNL     1     -11.650  14.707  65.254  1.00  0.00    -0.345 OA 
BRANCH  37  38
HETATM   38  C   UNL     1     -11.361  16.003  64.997  1.00  0.00    -0.156 C  
HETATM   39  O   UNL     1     -11.612  16.610  63.971  1.00  0.00    -1.197 OA 
BRANCH  38  40
HETATM   40  O   UNL     1     -10.770  16.492  66.103  1.00  0.00    -0.264 OA 
BRANCH  40  41
HETATM   41  C   UNL     1      -9.676  17.437  66.091  1.00  0.00    -0.217 C  
HETATM   42  C   UNL     1      -8.991  18.651  68.721  1.00  0.00    -0.291 C  
HETATM   43  C   UNL     1     -10.245  18.780  66.557  1.00  0.00    -0.458 C  
HETATM   44  C   UNL     1     -10.356  18.846  68.076  1.00  0.00    -0.457 C  
HETATM   45  C   UNL     1      -8.337  17.335  68.309  1.00  0.00    -0.242 C  
HETATM   46  C   UNL     1      -8.366  17.078  66.800  1.00  0.00    -0.267 C  
ENDBRANCH  40  41
ENDBRANCH  38  40
ENDBRANCH  37  38
ENDBRANCH  35  37
ENDBRANCH  34  35
ENDBRANCH  32  34
ENDBRANCH   8  32
ENDBRANCH   3   4
ENDBRANCH   2   3
TORSDOF 13
ENDMDL
MODEL       33
REMARK 921   NORMALIZED FREE ENERGY PREDICTED BY IDOCK:   -7.04 KCAL/MOL
REMARK 922        TOTAL FREE ENERGY PREDICTED BY IDOCK:  -14.85 KCAL/MOL
REMARK 923 INTER-LIGAND FREE ENERGY PREDICTED BY IDOCK:  -11.59 KCAL/MOL
REMARK 924 INTRA-LIGAND FREE ENERGY PREDICTED BY IDOCK:   -3.26 KCAL/MOL
REMARK 927      BINDING AFFINITY PREDICTED BY RF-SCORE:    0.00 PKD
ROOT
HETATM    1  C   UNL     1     -11.591   8.179  72.400  1.00  0.00    -0.463 C  
HETATM    2  C   UNL     1     -12.861   9.010  72.412  1.00  0.00    -0.385 C  
ENDROOT
BRANCH   2   3
HETATM    3  O   UNL     1     -12.959   9.677  71.149  1.00  0.00    -0.336 OA 
BRANCH   3   4
HETATM    4  C   UNL     1     -12.930  11.005  71.216  1.00  0.00    -0.372 A  
HETATM    5  N   UNL     1     -13.452  11.714  72.189  1.00  0.00    -0.320 NA 
HETATM    6  C   UNL     1     -13.201  13.012  71.852  1.00  0.00    -0.430 A  
HETATM    7  C   UNL     1     -12.440  13.117  70.671  1.00  0.00    -0.286 A  
HETATM    8  C   UNL     1     -11.986  14.388  70.241  1.00  0.00    -0.388 A  
HETATM    9  N   UNL     1     -12.385  11.801  70.230  1.00  0.00    -0.273 NA 
HETATM   10  C   UNL     1     -13.234  15.412  72.097  1.00  0.00    -0.517 A  
HETATM   11  C   UNL     1     -13.625  14.157  72.547  1.00  0.00    -0.644 A  
HETATM   12  C   UNL     1     -12.406  15.515  70.986  1.00  0.00    -0.471 A  
BRANCH   9  13
HETATM   13  C   UNL     1     -12.031  11.261  68.917  1.00  0.00    -0.310 C  
BRANCH  13  14
HETATM   14  C   UNL     1     -10.867  10.304  68.963  1.00  0.00    -0.265 A  
HETATM   15  C   UNL     1      -8.837   9.478  69.989  1.00  0.00    -0.246 A  
HETATM   16  C   UNL     1      -9.095   8.183  69.507  1.00  0.00    -0.151 A  
HETATM   17  C   UNL     1     -10.924   9.130  68.208  1.00  0.00    -0.010 A  
HETATM   18  C   UNL     1      -9.752  10.517  69.771  1.00  0.00    -0.010 A  
HETATM   19  C   UNL     1     -10.061   8.074  68.494  1.00  0.00    -0.218 A  
BRANCH  16  20
HETATM   20  C   UNL     1      -8.505   6.962  70.131  1.00  0.00    -0.140 A  
HETATM   21  C   UNL     1      -8.399   6.889  71.542  1.00  0.00    -0.114 A  
HETATM   22  C   UNL     1      -7.934   5.887  69.385  1.00  0.00    -0.102 A  
HETATM   23  C   UNL     1      -7.783   5.815  72.192  1.00  0.00    -0.102 A  
HETATM   24  C   UNL     1      -7.375   4.784  70.069  1.00  0.00    -0.054 A  
HETATM   25  C   UNL     1      -7.290   4.750  71.457  1.00  0.00    -0.069 A  
BRANCH  22  26
HETATM   26  C   UNL     1      -7.810   5.832  67.922  1.00  0.00    -0.097 A  
HETATM   27  N   UNL     1      -7.202   6.710  67.143  1.00  0.00    -0.079 NA 
HETATM   28  H   UNL     1      -6.717   7.556  67.443  1.00  0.00     0.000 HD 
HETATM   29  N   UNL     1      -7.349   6.265  65.853  1.00  0.00    -0.078 NA 
HETATM   30  N   UNL     1      -8.055   5.145  65.817  1.00  0.00    -0.108 NA 
HETATM   31  N   UNL     1      -8.380   4.900  67.093  1.00  0.00    -0.106 NA 
ENDBRANCH  22  26
ENDBRANCH  16  20
ENDBRANCH  13  14
ENDBRANCH   9  13
BRANCH   8  32
HETATM   32  C   UNL     1     -11.233  14.645  68.990  1.00  0.00    -0.269 C  
HETATM   33  O   UNL     1     -11.644  15.369  68.099  1.00  0.00    -0.347 OA 
BRANCH  32  34
HETATM   34  O   UNL     1      -9.965  14.166  69.071  1.00  0.00    -0.175 OA 
BRANCH  34  35
HETATM   35  C   UNL     1      -9.160  14.555  67.948  1.00  0.00    -0.191 C  
HETATM   36  C   UNL     1      -8.379  15.786  68.408  1.00  0.00    -0.164 C  
BRANCH  35  37
HETATM   37  O   UNL     1      -8.162  13.588  67.618  1.00  0.00    -0.151 OA 
BRANCH  37  38
HETATM   38  C   UNL     1      -8.572  12.548  66.859  1.00  0.00    -0.158 C  
HETATM   39  O   UNL     1      -8.033  11.458  66.772  1.00  0.00    -0.153 OA 
BRANCH  38  40
HETATM   40  O   UNL     1      -9.702  12.943  66.243  1.00  0.00    -0.267 OA 
BRANCH  40  41
HETATM   41  C   UNL     1     -10.757  12.047  65.823  1.00  0.00    -0.279 C  
HETATM   42  C   UNL     1     -12.061  12.714  63.233  1.00  0.00    -0.524 C  
HETATM   43  C   UNL     1     -12.036  12.881  65.732  1.00  0.00    -0.513 C  
HETATM   44  C   UNL     1     -12.106  13.662  64.423  1.00  0.00    -0.470 C  
HETATM   45  C   UNL     1     -10.817  11.831  63.240  1.00  0.00    -0.400 C  
HETATM   46  C   UNL     1     -10.543  11.162  64.590  1.00  0.00    -0.386 C  
ENDBRANCH  40  41
ENDBRANCH  38  40
ENDBRANCH  37  38
ENDBRANCH  35  37
ENDBRANCH  34  35
ENDBRANCH  32  34
ENDBRANCH   8  32
ENDBRANCH   3   4
ENDBRANCH   2   3
TORSDOF 13
ENDMDL
MODEL       34
REMARK 921   NORMALIZED FREE ENERGY PREDICTED BY IDOCK:   -7.02 KCAL/MOL
REMARK 922        TOTAL FREE ENERGY PREDICTED BY IDOCK:  -14.80 KCAL/MOL
REMARK 923 INTER-LIGAND FREE ENERGY PREDICTED BY IDOCK:  -10.79 KCAL/MOL
REMARK 924 INTRA-LIGAND FREE ENERGY PREDICTED BY IDOCK:   -4.01 KCAL/MOL
REMARK 927      BINDING AFFINITY PREDICTED BY RF-SCORE:    0.00 PKD
ROOT
HETATM    1  C   UNL     1      -6.796   8.041  73.791  1.00  0.00    -0.139 C  
HETATM    2  C   UNL     1      -7.572   7.234  72.764  1.00  0.00    -0.083 C  
ENDROOT
BRANCH   2   3
HETATM    3  O   UNL     1      -7.905   8.109  71.681  1.00  0.00    -0.093 OA 
BRANCH   3   4
HETATM    4  C   UNL     1      -9.183   8.476  71.632  1.00  0.00    -0.236 A  
HETATM    5  N   UNL     1     -10.138   7.944  72.358  1.00  0.00    -0.225 NA 
HETATM    6  C   UNL     1     -11.271   8.607  71.986  1.00  0.00    -0.364 A  
HETATM    7  C   UNL     1     -11.008   9.629  71.053  1.00  0.00    -0.361 A  
HETATM    8  C   UNL     1     -12.053  10.497  70.649  1.00  0.00    -0.452 A  
HETATM    9  N   UNL     1      -9.662   9.434  70.765  1.00  0.00    -0.273 NA 
HETATM   10  C   UNL     1     -13.620   9.160  71.993  1.00  0.00    -0.520 A  
HETATM   11  C   UNL     1     -12.579   8.351  72.431  1.00  0.00    -0.372 A  
HETATM   12  C   UNL     1     -13.349  10.227  71.145  1.00  0.00    -0.339 A  
BRANCH   9  13
HETATM   13  C   UNL     1      -8.855   9.936  69.653  1.00  0.00    -0.208 C  
BRANCH  13  14
HETATM   14  C   UNL     1      -8.861   9.022  68.454  1.00  0.00    -0.134 A  
HETATM   15  C   UNL     1      -7.762   7.451  66.978  1.00  0.00    -0.111 A  
HETATM   16  C   UNL     1      -8.988   6.825  66.696  1.00  0.00    -0.154 A  
HETATM   17  C   UNL     1     -10.084   8.634  67.904  1.00  0.00    -0.254 A  
HETATM   18  C   UNL     1      -7.692   8.503  67.901  1.00  0.00    -0.103 A  
HETATM   19  C   UNL     1     -10.147   7.533  67.051  1.00  0.00    -0.332 A  
BRANCH  16  20
HETATM   20  C   UNL     1      -9.076   5.421  66.195  1.00  0.00    -0.154 A  
HETATM   21  C   UNL     1      -9.244   5.192  64.807  1.00  0.00     0.051 A  
HETATM   22  C   UNL     1      -9.108   4.276  67.047  1.00  0.00    -0.147 A  
HETATM   23  C   UNL     1      -9.418   3.911  64.275  1.00  0.00    -0.161 A  
HETATM   24  C   UNL     1      -9.220   2.987  66.477  1.00  0.00    -0.142 A  
HETATM   25  C   UNL     1      -9.384   2.804  65.108  1.00  0.00    -0.111 A  
BRANCH  22  26
HETATM   26  C   UNL     1      -9.092   4.301  68.515  1.00  0.00    -0.128 A  
HETATM   27  N   UNL     1      -8.074   4.000  69.303  1.00  0.00    -0.059 NA 
HETATM   28  H   UNL     1      -7.140   3.715  69.008  1.00  0.00     0.000 HD 
HETATM   29  N   UNL     1      -8.515   4.146  70.595  1.00  0.00    -0.070 NA 
HETATM   30  N   UNL     1      -9.789   4.506  70.621  1.00  0.00    -0.214 NA 
HETATM   31  N   UNL     1     -10.160   4.558  69.335  1.00  0.00    -0.146 NA 
ENDBRANCH  22  26
ENDBRANCH  16  20
ENDBRANCH  13  14
ENDBRANCH   9  13
BRANCH   8  32
HETATM   32  C   UNL     1     -11.925  11.568  69.633  1.00  0.00    -0.339 C  
HETATM   33  O   UNL     1     -12.391  11.483  68.510  1.00  0.00    -0.459 OA 
BRANCH  32  34
HETATM   34  O   UNL     1     -11.437  12.711  70.181  1.00  0.00    -0.125 OA 
BRANCH  34  35
HETATM   35  C   UNL     1     -12.071  13.886  69.654  1.00  0.00    -0.349 C  
HETATM   36  C   UNL     1     -12.972  14.406  70.775  1.00  0.00    -0.388 C  
BRANCH  35  37
HETATM   37  O   UNL     1     -11.151  14.948  69.398  1.00  0.00    -0.256 OA 
BRANCH  37  38
HETATM   38  C   UNL     1     -11.324  15.615  68.236  1.00  0.00    -0.356 C  
HETATM   39  O   UNL     1     -11.148  16.807  68.053  1.00  0.00    -0.336 OA 
BRANCH  38  40
HETATM   40  O   UNL     1     -11.701  14.703  67.320  1.00  0.00    -0.381 OA 
BRANCH  40  41
HETATM   41  C   UNL     1     -10.965  14.411  66.111  1.00  0.00    -0.320 C  
HETATM   42  C   UNL     1      -9.931  11.631  65.870  1.00  0.00    -0.264 C  
HETATM   43  C   UNL     1      -9.550  14.014  66.539  1.00  0.00    -0.307 C  
HETATM   44  C   UNL     1      -9.487  12.560  66.992  1.00  0.00    -0.217 C  
HETATM   45  C   UNL     1     -11.335  11.954  65.370  1.00  0.00    -0.334 C  
HETATM   46  C   UNL     1     -11.562  13.441  65.085  1.00  0.00    -0.329 C  
ENDBRANCH  40  41
ENDBRANCH  38  40
ENDBRANCH  37  38
ENDBRANCH  35  37
ENDBRANCH  34  35
ENDBRANCH  32  34
ENDBRANCH   8  32
ENDBRANCH   3   4
ENDBRANCH   2   3
TORSDOF 13
ENDMDL
MODEL       35
REMARK 921   NORMALIZED FREE ENERGY PREDICTED BY IDOCK:   -6.99 KCAL/MOL
REMARK 922        TOTAL FREE ENERGY PREDICTED BY IDOCK:  -14.76 KCAL/MOL
REMARK 923 INTER-LIGAND FREE ENERGY PREDICTED BY IDOCK:  -10.93 KCAL/MOL
REMARK 924 INTRA-LIGAND FREE ENERGY PREDICTED BY IDOCK:   -3.83 KCAL/MOL
REMARK 927      BINDING AFFINITY PREDICTED BY RF-SCORE:    0.00 PKD
ROOT
HETATM    1  C   UNL     1      -6.442   9.499  62.712  1.00  0.00    -0.099 C  
HETATM    2  C   UNL     1      -7.723  10.305  62.587  1.00  0.00    -0.145 C  
ENDROOT
BRANCH   2   3
HETATM    3  O   UNL     1      -8.713   9.684  63.415  1.00  0.00    -0.197 OA 
BRANCH   3   4
HETATM    4  C   UNL     1      -9.553  10.528  64.008  1.00  0.00    -0.311 A  
HETATM    5  N   UNL     1     -10.408  11.296  63.373  1.00  0.00    -0.387 NA 
HETATM    6  C   UNL     1     -11.052  11.990  64.356  1.00  0.00    -0.342 A  
HETATM    7  C   UNL     1     -10.639  11.596  65.644  1.00  0.00    -0.275 A  
HETATM    8  C   UNL     1     -11.292  12.128  66.783  1.00  0.00    -0.398 A  
HETATM    9  N   UNL     1      -9.587  10.730  65.371  1.00  0.00    -0.208 NA 
HETATM   10  C   UNL     1     -12.618  13.568  65.293  1.00  0.00    -0.517 A  
HETATM   11  C   UNL     1     -12.016  12.997  64.180  1.00  0.00    -0.494 A  
HETATM   12  C   UNL     1     -12.281  13.115  66.563  1.00  0.00    -0.358 A  
BRANCH   9  13
HETATM   13  C   UNL     1      -8.528  10.229  66.247  1.00  0.00    -0.135 C  
BRANCH  13  14
HETATM   14  C   UNL     1      -8.854   8.895  66.870  1.00  0.00    -0.141 A  
HETATM   15  C   UNL     1     -10.258   6.935  67.072  1.00  0.00    -0.317 A  
HETATM   16  C   UNL     1      -9.153   6.158  67.461  1.00  0.00    -0.109 A  
HETATM   17  C   UNL     1      -7.863   8.220  67.584  1.00  0.00    -0.106 A  
HETATM   18  C   UNL     1     -10.096   8.280  66.718  1.00  0.00    -0.373 A  
HETATM   19  C   UNL     1      -8.003   6.859  67.856  1.00  0.00    -0.114 A  
BRANCH  16  20
HETATM   20  C   UNL     1      -9.126   4.672  67.318  1.00  0.00    -0.132 A  
HETATM   21  C   UNL     1      -9.240   4.100  66.027  1.00  0.00    -0.149 A  
HETATM   22  C   UNL     1      -9.098   3.769  68.424  1.00  0.00    -0.194 A  
HETATM   23  C   UNL     1      -9.306   2.718  65.823  1.00  0.00    -0.037 A  
HETATM   24  C   UNL     1      -9.101   2.376  68.185  1.00  0.00    -0.225 A  
HETATM   25  C   UNL     1      -9.214   1.853  66.901  1.00  0.00    -0.034 A  
BRANCH  22  26
HETATM   26  C   UNL     1      -9.123   4.152  69.842  1.00  0.00    -0.113 A  
HETATM   27  N   UNL     1      -8.084   4.273  70.650  1.00  0.00    -0.062 NA 
HETATM   28  H   UNL     1      -7.104   4.129  70.406  1.00  0.00     0.000 HD 
HETATM   29  N   UNL     1      -8.578   4.631  71.880  1.00  0.00    -0.120 NA 
HETATM   30  N   UNL     1      -9.899   4.709  71.855  1.00  0.00    -0.172 NA 
HETATM   31  N   UNL     1     -10.242   4.367  70.605  1.00  0.00    -0.120 NA 
ENDBRANCH  22  26
ENDBRANCH  16  20
ENDBRANCH  13  14
ENDBRANCH   9  13
BRANCH   8  32
HETATM   32  C   UNL     1     -10.918  11.845  68.189  1.00  0.00    -0.227 C  
HETATM   33  O   UNL     1      -9.822  12.110  68.655  1.00  0.00    -0.188 OA 
BRANCH  32  34
HETATM   34  O   UNL     1     -11.999  11.477  68.923  1.00  0.00    -0.333 OA 
BRANCH  34  35
HETATM   35  C   UNL     1     -11.969  12.017  70.252  1.00  0.00    -0.314 C  
HETATM   36  C   UNL     1     -12.268  13.509  70.098  1.00  0.00    -0.400 C  
BRANCH  35  37
HETATM   37  O   UNL     1     -13.019  11.515  71.080  1.00  0.00    -0.340 OA 
BRANCH  37  38
HETATM   38  C   UNL     1     -13.039  10.176  71.265  1.00  0.00    -0.396 C  
HETATM   39  O   UNL     1     -13.979   9.430  71.051  1.00  0.00    -0.172 OA 
BRANCH  38  40
HETATM   40  O   UNL     1     -11.815   9.829  71.703  1.00  0.00    -0.389 OA 
BRANCH  40  41
HETATM   41  C   UNL     1     -11.266   8.494  71.615  1.00  0.00    -0.292 C  
HETATM   42  C   UNL     1      -8.322   8.281  71.991  1.00  0.00    -0.219 C  
HETATM   43  C   UNL     1     -10.280   8.496  70.445  1.00  0.00    -0.215 C  
HETATM   44  C   UNL     1      -8.931   9.081  70.848  1.00  0.00    -0.300 C  
HETATM   45  C   UNL     1      -9.239   8.216  73.208  1.00  0.00    -0.316 C  
HETATM   46  C   UNL     1     -10.685   7.837  72.872  1.00  0.00    -0.446 C  
ENDBRANCH  40  41
ENDBRANCH  38  40
ENDBRANCH  37  38
ENDBRANCH  35  37
ENDBRANCH  34  35
ENDBRANCH  32  34
ENDBRANCH   8  32
ENDBRANCH   3   4
ENDBRANCH   2   3
TORSDOF 13
ENDMDL
MODEL       36
REMARK 921   NORMALIZED FREE ENERGY PREDICTED BY IDOCK:   -6.98 KCAL/MOL
REMARK 922        TOTAL FREE ENERGY PREDICTED BY IDOCK:  -14.74 KCAL/MOL
REMARK 923 INTER-LIGAND FREE ENERGY PREDICTED BY IDOCK:  -12.19 KCAL/MOL
REMARK 924 INTRA-LIGAND FREE ENERGY PREDICTED BY IDOCK:   -2.55 KCAL/MOL
REMARK 927      BINDING AFFINITY PREDICTED BY RF-SCORE:    0.00 PKD
ROOT
HETATM    1  C   UNL     1     -10.606  11.824  63.902  1.00  0.00    -0.445 C  
HETATM    2  C   UNL     1     -11.441  11.354  65.080  1.00  0.00     0.076 C  
ENDROOT
BRANCH   2   3
HETATM    3  O   UNL     1     -11.139  12.199  66.195  1.00  0.00    -0.285 OA 
BRANCH   3   4
HETATM    4  C   UNL     1     -10.968  11.560  67.350  1.00  0.00    -0.265 A  
HETATM    5  N   UNL     1     -11.944  11.165  68.134  1.00  0.00    -0.632 NA 
HETATM    6  C   UNL     1     -11.323  10.570  69.193  1.00  0.00    -0.257 A  
HETATM    7  C   UNL     1      -9.923  10.528  69.036  1.00  0.00    -0.211 A  
HETATM    8  C   UNL     1      -9.131   9.838  69.986  1.00  0.00    -0.258 A  
HETATM    9  N   UNL     1      -9.728  11.282  67.884  1.00  0.00    -0.173 NA 
HETATM   10  C   UNL     1     -11.162   9.420  71.309  1.00  0.00    -0.437 A  
HETATM   11  C   UNL     1     -11.939  10.046  70.342  1.00  0.00    -0.318 A  
HETATM   12  C   UNL     1      -9.792   9.295  71.112  1.00  0.00    -0.342 A  
BRANCH   9  13
HETATM   13  C   UNL     1      -8.509  11.894  67.356  1.00  0.00    -0.166 C  
BRANCH  13  14
HETATM   14  C   UNL     1      -8.378  13.355  67.707  1.00  0.00    -0.178 A  
HETATM   15  C   UNL     1      -7.516  15.573  67.270  1.00  0.00    -0.258 A  
HETATM   16  C   UNL     1      -8.636  16.154  67.889  1.00  0.00    -0.169 A  
HETATM   17  C   UNL     1      -9.280  13.919  68.611  1.00  0.00    -0.094 A  
HETATM   18  C   UNL     1      -7.420  14.183  67.124  1.00  0.00     0.080 A  
HETATM   19  C   UNL     1      -9.422  15.304  68.684  1.00  0.00    -0.204 A  
BRANCH  16  20
HETATM   20  C   UNL     1      -9.075  17.552  67.605  1.00  0.00    -0.243 A  
HETATM   21  C   UNL     1      -8.718  18.585  68.505  1.00  0.00    -0.352 A  
HETATM   22  C   UNL     1      -9.936  17.908  66.523  1.00  0.00    -0.357 A  
HETATM   23  C   UNL     1      -9.162  19.902  68.350  1.00  0.00    -0.310 A  
HETATM   24  C   UNL     1     -10.317  19.258  66.352  1.00  0.00    -0.558 A  
HETATM   25  C   UNL     1      -9.945  20.244  67.260  1.00  0.00    -0.580 A  
BRANCH  22  26
HETATM   26  C   UNL     1     -10.535  16.973  65.562  1.00  0.00    -0.166 A  
HETATM   27  N   UNL     1     -11.192  17.282  64.457  1.00  0.00    -0.924 NA 
HETATM   28  H   UNL     1     -11.373  18.220  64.099  1.00  0.00     0.000 HD 
HETATM   29  N   UNL     1     -11.584  16.098  63.883  1.00  0.00    -0.881 NA 
HETATM   30  N   UNL     1     -11.205  15.067  64.622  1.00  0.00    -0.361 NA 
HETATM   31  N   UNL     1     -10.596  15.609  65.686  1.00  0.00    -0.356 NA 
ENDBRANCH  22  26
ENDBRANCH  16  20
ENDBRANCH  13  14
ENDBRANCH   9  13
BRANCH   8  32
HETATM   32  C   UNL     1      -7.650   9.770  69.971  1.00  0.00    -0.163 C  
HETATM   33  O   UNL     1      -6.937  10.623  70.472  1.00  0.00    -0.280 OA 
BRANCH  32  34
HETATM   34  O   UNL     1      -7.216   8.557  69.543  1.00  0.00    -0.058 OA 
BRANCH  34  35
HETATM   35  C   UNL     1      -7.070   8.498  68.117  1.00  0.00    -0.085 C  
HETATM   36  C   UNL     1      -5.577   8.688  67.847  1.00  0.00    -0.035 C  
BRANCH  35  37
HETATM   37  O   UNL     1      -7.382   7.213  67.578  1.00  0.00    -0.087 OA 
BRANCH  37  38
HETATM   38  C   UNL     1      -8.565   7.111  66.932  1.00  0.00    -0.124 C  
HETATM   39  O   UNL     1      -8.724   6.952  65.735  1.00  0.00    -0.152 OA 
BRANCH  38  40
HETATM   40  O   UNL     1      -9.525   7.193  67.872  1.00  0.00    -0.130 OA 
BRANCH  40  41
HETATM   41  C   UNL     1     -10.522   6.172  68.109  1.00  0.00    -0.230 C  
HETATM   42  C   UNL     1     -10.184   4.595  70.610  1.00  0.00    -0.211 C  
HETATM   43  C   UNL     1      -9.783   4.833  68.149  1.00  0.00    -0.201 C  
HETATM   44  C   UNL     1      -9.134   4.589  69.508  1.00  0.00    -0.167 C  
HETATM   45  C   UNL     1     -10.981   5.895  70.646  1.00  0.00    -0.357 C  
HETATM   46  C   UNL     1     -11.502   6.337  69.275  1.00  0.00    -0.288 C  
ENDBRANCH  40  41
ENDBRANCH  38  40
ENDBRANCH  37  38
ENDBRANCH  35  37
ENDBRANCH  34  35
ENDBRANCH  32  34
ENDBRANCH   8  32
ENDBRANCH   3   4
ENDBRANCH   2   3
TORSDOF 13
ENDMDL
MODEL       37
REMARK 921   NORMALIZED FREE ENERGY PREDICTED BY IDOCK:   -6.98 KCAL/MOL
REMARK 922        TOTAL FREE ENERGY PREDICTED BY IDOCK:  -14.74 KCAL/MOL
REMARK 923 INTER-LIGAND FREE ENERGY PREDICTED BY IDOCK:  -12.97 KCAL/MOL
REMARK 924 INTRA-LIGAND FREE ENERGY PREDICTED BY IDOCK:   -1.77 KCAL/MOL
REMARK 927      BINDING AFFINITY PREDICTED BY RF-SCORE:    0.00 PKD
ROOT
HETATM    1  C   UNL     1     -13.443  15.581  72.802  1.00  0.00    -0.650 C  
HETATM    2  C   UNL     1     -12.486  15.641  71.624  1.00  0.00    -0.438 C  
ENDROOT
BRANCH   2   3
HETATM    3  O   UNL     1     -13.124  15.007  70.510  1.00  0.00    -0.336 OA 
BRANCH   3   4
HETATM    4  C   UNL     1     -12.654  13.798  70.212  1.00  0.00    -0.222 A  
HETATM    5  N   UNL     1     -12.570  12.802  71.062  1.00  0.00    -0.335 NA 
HETATM    6  C   UNL     1     -12.034  11.773  70.343  1.00  0.00    -0.332 A  
HETATM    7  C   UNL     1     -11.843  12.112  68.989  1.00  0.00    -0.306 A  
HETATM    8  C   UNL     1     -11.408  11.122  68.073  1.00  0.00    -0.380 A  
HETATM    9  N   UNL     1     -12.150  13.467  68.973  1.00  0.00    -0.330 NA 
HETATM   10  C   UNL     1     -11.197   9.545  69.949  1.00  0.00    -0.209 A  
HETATM   11  C   UNL     1     -11.682  10.502  70.829  1.00  0.00    -0.454 A  
HETATM   12  C   UNL     1     -11.095   9.846  68.596  1.00  0.00    -0.182 A  
BRANCH   9  13
HETATM   13  C   UNL     1     -11.850  14.488  67.968  1.00  0.00    -0.315 C  
BRANCH  13  14
HETATM   14  C   UNL     1     -10.448  15.032  68.073  1.00  0.00    -0.242 A  
HETATM   15  C   UNL     1      -8.571  16.251  67.154  1.00  0.00    -0.207 A  
HETATM   16  C   UNL     1      -8.160  16.633  68.443  1.00  0.00    -0.208 A  
HETATM   17  C   UNL     1      -9.844  15.113  69.329  1.00  0.00    -0.231 A  
HETATM   18  C   UNL     1      -9.744  15.508  66.968  1.00  0.00    -0.230 A  
HETATM   19  C   UNL     1      -8.725  15.923  69.515  1.00  0.00    -0.105 A  
BRANCH  16  20
HETATM   20  C   UNL     1      -7.298  17.826  68.691  1.00  0.00    -0.269 A  
HETATM   21  C   UNL     1      -6.176  17.702  69.547  1.00  0.00    -0.245 A  
HETATM   22  C   UNL     1      -7.591  19.133  68.197  1.00  0.00    -0.321 A  
HETATM   23  C   UNL     1      -5.372  18.793  69.891  1.00  0.00    -0.222 A  
HETATM   24  C   UNL     1      -6.725  20.205  68.508  1.00  0.00    -0.331 A  
HETATM   25  C   UNL     1      -5.633  20.042  69.355  1.00  0.00    -0.285 A  
BRANCH  22  26
HETATM   26  C   UNL     1      -8.778  19.506  67.415  1.00  0.00    -0.308 A  
HETATM   27  N   UNL     1      -8.794  20.065  66.217  1.00  0.00    -0.502 NA 
HETATM   28  H   UNL     1      -7.983  20.313  65.650  1.00  0.00     0.000 HD 
HETATM   29  N   UNL     1     -10.113  20.248  65.883  1.00  0.00    -0.347 NA 
HETATM   30  N   UNL     1     -10.909  19.837  66.858  1.00  0.00    -0.430 NA 
HETATM   31  N   UNL     1     -10.082  19.420  67.826  1.00  0.00    -0.375 NA 
ENDBRANCH  22  26
ENDBRANCH  16  20
ENDBRANCH  13  14
ENDBRANCH   9  13
BRANCH   8  32
HETATM   32  C   UNL     1     -11.110  11.360  66.641  1.00  0.00    -0.271 C  
HETATM   33  O   UNL     1     -11.889  11.907  65.878  1.00  0.00    -0.466 OA 
BRANCH  32  34
HETATM   34  O   UNL     1      -9.807  11.106  66.359  1.00  0.00    -0.200 OA 
BRANCH  34  35
HETATM   35  C   UNL     1      -9.638   9.921  65.567  1.00  0.00    -0.277 C  
HETATM   36  C   UNL     1      -9.643  10.394  64.112  1.00  0.00    -0.381 C  
BRANCH  35  37
HETATM   37  O   UNL     1      -8.363   9.306  65.751  1.00  0.00    -0.116 OA 
BRANCH  37  38
HETATM   38  C   UNL     1      -8.262   8.018  65.354  1.00  0.00    -0.151 C  
HETATM   39  O   UNL     1      -8.017   7.625  64.227  1.00  0.00    -0.134 OA 
BRANCH  38  40
HETATM   40  O   UNL     1      -8.460   7.261  66.449  1.00  0.00    -0.117 OA 
BRANCH  40  41
HETATM   41  C   UNL     1      -9.368   6.137  66.510  1.00  0.00    -0.153 C  
HETATM   42  C   UNL     1     -10.167   5.270  69.243  1.00  0.00    -0.301 C  
HETATM   43  C   UNL     1      -8.644   5.023  67.270  1.00  0.00    -0.104 C  
HETATM   44  C   UNL     1      -8.718   5.233  68.779  1.00  0.00    -0.093 C  
HETATM   45  C   UNL     1     -10.977   6.351  68.533  1.00  0.00    -0.396 C  
HETATM   46  C   UNL     1     -10.800   6.355  67.011  1.00  0.00    -0.464 C  
ENDBRANCH  40  41
ENDBRANCH  38  40
ENDBRANCH  37  38
ENDBRANCH  35  37
ENDBRANCH  34  35
ENDBRANCH  32  34
ENDBRANCH   8  32
ENDBRANCH   3   4
ENDBRANCH   2   3
TORSDOF 13
ENDMDL
MODEL       38
REMARK 921   NORMALIZED FREE ENERGY PREDICTED BY IDOCK:   -6.95 KCAL/MOL
REMARK 922        TOTAL FREE ENERGY PREDICTED BY IDOCK:  -14.69 KCAL/MOL
REMARK 923 INTER-LIGAND FREE ENERGY PREDICTED BY IDOCK:  -10.61 KCAL/MOL
REMARK 924 INTRA-LIGAND FREE ENERGY PREDICTED BY IDOCK:   -4.09 KCAL/MOL
REMARK 927      BINDING AFFINITY PREDICTED BY RF-SCORE:    0.00 PKD
ROOT
HETATM    1  C   UNL     1     -12.045  12.625  63.265  1.00  0.00    -0.524 C  
HETATM    2  C   UNL     1     -12.602  12.998  64.627  1.00  0.00    -0.362 C  
ENDROOT
BRANCH   2   3
HETATM    3  O   UNL     1     -12.037  12.102  65.590  1.00  0.00    -0.545 OA 
BRANCH   3   4
HETATM    4  C   UNL     1     -11.098  12.637  66.367  1.00  0.00    -0.287 A  
HETATM    5  N   UNL     1     -11.289  13.655  67.172  1.00  0.00    -0.306 NA 
HETATM    6  C   UNL     1     -10.077  13.871  67.760  1.00  0.00    -0.241 A  
HETATM    7  C   UNL     1      -9.117  12.918  67.363  1.00  0.00    -0.197 A  
HETATM    8  C   UNL     1      -7.836  12.920  67.969  1.00  0.00    -0.149 A  
HETATM    9  N   UNL     1      -9.788  12.209  66.375  1.00  0.00    -0.221 NA 
HETATM   10  C   UNL     1      -8.475  14.948  69.206  1.00  0.00    -0.116 A  
HETATM   11  C   UNL     1      -9.748  14.903  68.654  1.00  0.00    -0.226 A  
HETATM   12  C   UNL     1      -7.554  13.956  68.890  1.00  0.00    -0.060 A  
BRANCH   9  13
HETATM   13  C   UNL     1      -9.268  11.308  65.345  1.00  0.00    -0.183 C  
BRANCH  13  14
HETATM   14  C   UNL     1      -9.515   9.852  65.649  1.00  0.00    -0.295 A  
HETATM   15  C   UNL     1      -8.785   7.546  65.723  1.00  0.00    -0.142 A  
HETATM   16  C   UNL     1      -9.643   7.287  66.806  1.00  0.00    -0.240 A  
HETATM   17  C   UNL     1     -10.594   9.503  66.464  1.00  0.00    -0.133 A  
HETATM   18  C   UNL     1      -8.677   8.838  65.191  1.00  0.00    -0.202 A  
HETATM   19  C   UNL     1     -10.643   8.240  67.053  1.00  0.00    -0.328 A  
BRANCH  16  20
HETATM   20  C   UNL     1      -9.422   6.153  67.752  1.00  0.00    -0.115 A  
HETATM   21  C   UNL     1      -8.884   6.418  69.035  1.00  0.00    -0.129 A  
HETATM   22  C   UNL     1      -9.622   4.782  67.406  1.00  0.00    -0.186 A  
HETATM   23  C   UNL     1      -8.573   5.399  69.941  1.00  0.00    -0.108 A  
HETATM   24  C   UNL     1      -9.360   3.777  68.364  1.00  0.00    -0.226 A  
HETATM   25  C   UNL     1      -8.831   4.078  69.615  1.00  0.00    -0.139 A  
BRANCH  22  26
HETATM   26  C   UNL     1     -10.035   4.284  66.087  1.00  0.00    -0.215 A  
HETATM   27  N   UNL     1     -11.159   4.564  65.449  1.00  0.00    -0.932 NA 
HETATM   28  H   UNL     1     -11.906   5.178  65.774  1.00  0.00     0.000 HD 
HETATM   29  N   UNL     1     -11.127   3.868  64.266  1.00  0.00    -0.285 NA 
HETATM   30  N   UNL     1     -10.021   3.147  64.171  1.00  0.00    -0.165 NA 
HETATM   31  N   UNL     1      -9.365   3.368  65.319  1.00  0.00    -0.154 NA 
ENDBRANCH  22  26
ENDBRANCH  16  20
ENDBRANCH  13  14
ENDBRANCH   9  13
BRANCH   8  32
HETATM   32  C   UNL     1      -6.720  12.016  67.602  1.00  0.00    -0.109 C  
HETATM   33  O   UNL     1      -6.041  12.165  66.600  1.00  0.00    -0.189 OA 
BRANCH  32  34
HETATM   34  O   UNL     1      -6.419  11.168  68.618  1.00  0.00    -0.047 OA 
BRANCH  34  35
HETATM   35  C   UNL     1      -7.364  10.094  68.735  1.00  0.00    -0.084 C  
HETATM   36  C   UNL     1      -6.545   8.809  68.600  1.00  0.00    -0.055 C  
BRANCH  35  37
HETATM   37  O   UNL     1      -7.961  10.016  70.029  1.00  0.00    -0.175 OA 
BRANCH  37  38
HETATM   38  C   UNL     1      -9.311   9.966  70.058  1.00  0.00    -0.190 C  
HETATM   39  O   UNL     1     -10.076  10.785  69.579  1.00  0.00    -0.189 OA 
BRANCH  38  40
HETATM   40  O   UNL     1      -9.641   8.825  70.692  1.00  0.00    -0.174 OA 
BRANCH  40  41
HETATM   41  C   UNL     1     -10.671   8.723  71.702  1.00  0.00    -0.327 C  
HETATM   42  C   UNL     1     -11.803   6.002  72.119  1.00  0.00    -0.304 C  
HETATM   43  C   UNL     1     -11.938   8.236  70.994  1.00  0.00    -0.260 C  
HETATM   44  C   UNL     1     -11.919   6.725  70.785  1.00  0.00    -0.433 C  
HETATM   45  C   UNL     1     -10.567   6.428  72.906  1.00  0.00    -0.260 C  
HETATM   46  C   UNL     1     -10.383   7.947  72.991  1.00  0.00    -0.401 C  
ENDBRANCH  40  41
ENDBRANCH  38  40
ENDBRANCH  37  38
ENDBRANCH  35  37
ENDBRANCH  34  35
ENDBRANCH  32  34
ENDBRANCH   8  32
ENDBRANCH   3   4
ENDBRANCH   2   3
TORSDOF 13
ENDMDL
MODEL       39
REMARK 921   NORMALIZED FREE ENERGY PREDICTED BY IDOCK:   -6.95 KCAL/MOL
REMARK 922        TOTAL FREE ENERGY PREDICTED BY IDOCK:  -14.68 KCAL/MOL
REMARK 923 INTER-LIGAND FREE ENERGY PREDICTED BY IDOCK:  -10.50 KCAL/MOL
REMARK 924 INTRA-LIGAND FREE ENERGY PREDICTED BY IDOCK:   -4.18 KCAL/MOL
REMARK 927      BINDING AFFINITY PREDICTED BY RF-SCORE:    0.00 PKD
ROOT
HETATM    1  C   UNL     1      -5.206  12.924  68.824  1.00  0.00    -0.067 C  
HETATM    2  C   UNL     1      -5.366  11.757  69.783  1.00  0.00    -0.075 C  
ENDROOT
BRANCH   2   3
HETATM    3  O   UNL     1      -6.718  11.296  69.689  1.00  0.00    -0.124 OA 
BRANCH   3   4
HETATM    4  C   UNL     1      -6.915  10.053  70.121  1.00  0.00    -0.148 A  
HETATM    5  N   UNL     1      -6.929   9.698  71.385  1.00  0.00    -0.311 NA 
HETATM    6  C   UNL     1      -7.154   8.352  71.369  1.00  0.00    -0.074 A  
HETATM    7  C   UNL     1      -7.357   7.863  70.063  1.00  0.00    -0.070 A  
HETATM    8  C   UNL     1      -7.723   6.507  69.873  1.00  0.00    -0.109 A  
HETATM    9  N   UNL     1      -7.080   8.975  69.278  1.00  0.00    -0.057 NA 
HETATM   10  C   UNL     1      -7.484   6.149  72.294  1.00  0.00    -0.095 A  
HETATM   11  C   UNL     1      -7.185   7.492  72.479  1.00  0.00    -0.078 A  
HETATM   12  C   UNL     1      -7.777   5.681  71.019  1.00  0.00    -0.104 A  
BRANCH   9  13
HETATM   13  C   UNL     1      -6.792   9.069  67.847  1.00  0.00    -0.070 C  
BRANCH  13  14
HETATM   14  C   UNL     1      -7.993   9.459  67.023  1.00  0.00    -0.102 A  
HETATM   15  C   UNL     1     -10.288  10.204  66.839  1.00  0.00    -0.298 A  
HETATM   16  C   UNL     1     -10.008  10.831  65.613  1.00  0.00    -0.317 A  
HETATM   17  C   UNL     1      -7.819   9.766  65.673  1.00  0.00    -0.114 A  
HETATM   18  C   UNL     1      -9.270   9.577  67.570  1.00  0.00    -0.142 A  
HETATM   19  C   UNL     1      -8.809  10.465  64.982  1.00  0.00    -0.209 A  
BRANCH  16  20
HETATM   20  C   UNL     1     -10.844  11.943  65.070  1.00  0.00    -0.351 A  
HETATM   21  C   UNL     1     -11.585  11.733  63.881  1.00  0.00    -0.469 A  
HETATM   22  C   UNL     1     -10.867  13.260  65.621  1.00  0.00    -0.291 A  
HETATM   23  C   UNL     1     -12.323  12.751  63.269  1.00  0.00    -0.437 A  
HETATM   24  C   UNL     1     -11.672  14.253  65.019  1.00  0.00    -0.383 A  
HETATM   25  C   UNL     1     -12.385  14.007  63.850  1.00  0.00    -0.280 A  
BRANCH  22  26
HETATM   26  C   UNL     1     -10.064  13.725  66.760  1.00  0.00    -0.265 A  
HETATM   27  N   UNL     1      -8.745  13.772  66.835  1.00  0.00    -0.383 NA 
HETATM   28  H   UNL     1      -8.085  13.501  66.107  1.00  0.00     0.000 HD 
HETATM   29  N   UNL     1      -8.436  14.256  68.082  1.00  0.00    -0.158 NA 
HETATM   30  N   UNL     1      -9.533  14.485  68.786  1.00  0.00    -0.203 NA 
HETATM   31  N   UNL     1     -10.541  14.113  67.985  1.00  0.00    -0.236 NA 
ENDBRANCH  22  26
ENDBRANCH  16  20
ENDBRANCH  13  14
ENDBRANCH   9  13
BRANCH   8  32
HETATM   32  C   UNL     1      -7.906   5.853  68.555  1.00  0.00    -0.102 C  
HETATM   33  O   UNL     1      -7.000   5.702  67.752  1.00  0.00    -0.062 OA 
BRANCH  32  34
HETATM   34  O   UNL     1      -9.122   5.257  68.465  1.00  0.00    -0.107 OA 
BRANCH  34  35
HETATM   35  C   UNL     1     -10.194   6.208  68.381  1.00  0.00    -0.175 C  
HETATM   36  C   UNL     1     -10.719   6.111  66.948  1.00  0.00    -0.413 C  
BRANCH  35  37
HETATM   37  O   UNL     1     -11.308   5.865  69.206  1.00  0.00    -0.325 OA 
BRANCH  37  38
HETATM   38  C   UNL     1     -11.277   6.338  70.472  1.00  0.00    -0.354 C  
HETATM   39  O   UNL     1     -11.153   5.677  71.488  1.00  0.00    -0.245 OA 
BRANCH  38  40
HETATM   40  O   UNL     1     -11.382   7.677  70.385  1.00  0.00    -0.272 OA 
BRANCH  40  41
HETATM   41  C   UNL     1     -11.222   8.581  71.503  1.00  0.00    -0.279 C  
HETATM   42  C   UNL     1     -12.723  11.144  71.314  1.00  0.00    -0.531 C  
HETATM   43  C   UNL     1     -10.601   9.865  70.948  1.00  0.00    -0.254 C  
HETATM   44  C   UNL     1     -11.650  10.764  70.303  1.00  0.00    -0.427 C  
HETATM   45  C   UNL     1     -13.400   9.923  71.929  1.00  0.00    -0.524 C  
HETATM   46  C   UNL     1     -12.417   8.856  72.422  1.00  0.00    -0.405 C  
ENDBRANCH  40  41
ENDBRANCH  38  40
ENDBRANCH  37  38
ENDBRANCH  35  37
ENDBRANCH  34  35
ENDBRANCH  32  34
ENDBRANCH   8  32
ENDBRANCH   3   4
ENDBRANCH   2   3
TORSDOF 13
ENDMDL
MODEL       40
REMARK 921   NORMALIZED FREE ENERGY PREDICTED BY IDOCK:   -6.95 KCAL/MOL
REMARK 922        TOTAL FREE ENERGY PREDICTED BY IDOCK:  -14.68 KCAL/MOL
REMARK 923 INTER-LIGAND FREE ENERGY PREDICTED BY IDOCK:  -11.32 KCAL/MOL
REMARK 924 INTRA-LIGAND FREE ENERGY PREDICTED BY IDOCK:   -3.36 KCAL/MOL
REMARK 927      BINDING AFFINITY PREDICTED BY RF-SCORE:    0.00 PKD
ROOT
HETATM    1  C   UNL     1      -6.479  10.254  62.676  1.00  0.00    -0.134 C  
HETATM    2  C   UNL     1      -7.093   8.866  62.726  1.00  0.00    -0.095 C  
ENDROOT
BRANCH   2   3
HETATM    3  O   UNL     1      -6.538   8.183  63.856  1.00  0.00    -0.066 OA 
BRANCH   3   4
HETATM    4  C   UNL     1      -7.216   7.107  64.246  1.00  0.00    -0.072 A  
HETATM    5  N   UNL     1      -7.682   6.186  63.434  1.00  0.00    -0.092 NA 
HETATM    6  C   UNL     1      -8.306   5.285  64.248  1.00  0.00    -0.134 A  
HETATM    7  C   UNL     1      -8.168   5.614  65.611  1.00  0.00    -0.126 A  
HETATM    8  C   UNL     1      -8.652   4.722  66.599  1.00  0.00    -0.108 A  
HETATM    9  N   UNL     1      -7.555   6.860  65.559  1.00  0.00    -0.086 NA 
HETATM   10  C   UNL     1      -9.557   3.300  64.808  1.00  0.00    -0.149 A  
HETATM   11  C   UNL     1      -9.027   4.148  63.845  1.00  0.00    -0.137 A  
HETATM   12  C   UNL     1      -9.343   3.571  66.154  1.00  0.00    -0.168 A  
BRANCH   9  13
HETATM   13  C   UNL     1      -7.423   7.888  66.592  1.00  0.00    -0.089 C  
BRANCH  13  14
HETATM   14  C   UNL     1      -8.353   9.058  66.388  1.00  0.00    -0.117 A  
HETATM   15  C   UNL     1     -10.519  10.112  66.619  1.00  0.00    -0.254 A  
HETATM   16  C   UNL     1      -9.919  11.382  66.667  1.00  0.00    -0.239 A  
HETATM   17  C   UNL     1      -7.813  10.308  66.082  1.00  0.00    -0.129 A  
HETATM   18  C   UNL     1      -9.734   8.953  66.545  1.00  0.00    -0.322 A  
HETATM   19  C   UNL     1      -8.583  11.459  66.241  1.00  0.00    -0.156 A  
BRANCH  16  20
HETATM   20  C   UNL     1     -10.592  12.565  67.280  1.00  0.00    -0.246 A  
HETATM   21  C   UNL     1     -10.397  12.835  68.656  1.00  0.00    -0.194 A  
HETATM   22  C   UNL     1     -11.519  13.399  66.584  1.00  0.00    -0.376 A  
HETATM   23  C   UNL     1     -11.059  13.874  69.318  1.00  0.00    -0.261 A  
HETATM   24  C   UNL     1     -12.125  14.482  67.260  1.00  0.00    -0.298 A  
HETATM   25  C   UNL     1     -11.907  14.713  68.615  1.00  0.00    -0.346 A  
BRANCH  22  26
HETATM   26  C   UNL     1     -11.970  13.207  65.199  1.00  0.00    -0.394 A  
HETATM   27  N   UNL     1     -11.560  13.872  64.132  1.00  0.00    -0.588 NA 
HETATM   28  H   UNL     1     -10.859  14.612  64.109  1.00  0.00     0.000 HD 
HETATM   29  N   UNL     1     -12.259  13.373  63.061  1.00  0.00    -0.462 NA 
HETATM   30  N   UNL     1     -13.108  12.433  63.447  1.00  0.00    -0.567 NA 
HETATM   31  N   UNL     1     -12.964  12.362  64.778  1.00  0.00    -0.768 NA 
ENDBRANCH  22  26
ENDBRANCH  16  20
ENDBRANCH  13  14
ENDBRANCH   9  13
BRANCH   8  32
HETATM   32  C   UNL     1      -8.625   4.974  68.060  1.00  0.00    -0.103 C  
HETATM   33  O   UNL     1      -7.701   5.536  68.624  1.00  0.00    -0.085 OA 
BRANCH  32  34
HETATM   34  O   UNL     1      -9.830   4.713  68.628  1.00  0.00    -0.161 OA 
BRANCH  34  35
HETATM   35  C   UNL     1     -10.254   5.755  69.519  1.00  0.00    -0.239 C  
HETATM   36  C   UNL     1     -11.318   6.544  68.754  1.00  0.00    -0.237 C  
BRANCH  35  37
HETATM   37  O   UNL     1     -10.926   5.257  70.677  1.00  0.00    -0.131 OA 
BRANCH  37  38
HETATM   38  C   UNL     1     -10.823   6.013  71.793  1.00  0.00    -0.260 C  
HETATM   39  O   UNL     1      -9.978   5.905  72.664  1.00  0.00    -0.174 OA 
BRANCH  38  40
HETATM   40  O   UNL     1     -11.816   6.919  71.737  1.00  0.00    -0.284 OA 
BRANCH  40  41
HETATM   41  C   UNL     1     -11.778   8.210  72.387  1.00  0.00    -0.399 C  
HETATM   42  C   UNL     1     -12.352  10.551  70.640  1.00  0.00    -0.449 C  
HETATM   43  C   UNL     1     -10.676   9.020  71.699  1.00  0.00    -0.441 C  
HETATM   44  C   UNL     1     -11.163   9.633  70.390  1.00  0.00    -0.342 C  
HETATM   45  C   UNL     1     -13.506   9.832  71.332  1.00  0.00    -0.397 C  
HETATM   46  C   UNL     1     -13.077   9.007  72.550  1.00  0.00    -0.450 C  
ENDBRANCH  40  41
ENDBRANCH  38  40
ENDBRANCH  37  38
ENDBRANCH  35  37
ENDBRANCH  34  35
ENDBRANCH  32  34
ENDBRANCH   8  32
ENDBRANCH   3   4
ENDBRANCH   2   3
TORSDOF 13
ENDMDL
MODEL       41
REMARK 921   NORMALIZED FREE ENERGY PREDICTED BY IDOCK:   -6.92 KCAL/MOL
REMARK 922        TOTAL FREE ENERGY PREDICTED BY IDOCK:  -14.63 KCAL/MOL
REMARK 923 INTER-LIGAND FREE ENERGY PREDICTED BY IDOCK:  -12.13 KCAL/MOL
REMARK 924 INTRA-LIGAND FREE ENERGY PREDICTED BY IDOCK:   -2.50 KCAL/MOL
REMARK 927      BINDING AFFINITY PREDICTED BY RF-SCORE:    0.00 PKD
ROOT
HETATM    1  C   UNL     1     -12.015   8.550  71.964  1.00  0.00    -0.427 C  
HETATM    2  C   UNL     1     -13.034   9.663  72.129  1.00  0.00    -0.406 C  
ENDROOT
BRANCH   2   3
HETATM    3  O   UNL     1     -13.233  10.268  70.847  1.00  0.00    -0.395 OA 
BRANCH   3   4
HETATM    4  C   UNL     1     -12.813  11.527  70.753  1.00  0.00    -0.134 A  
HETATM    5  N   UNL     1     -13.127  12.483  71.596  1.00  0.00    -0.376 NA 
HETATM    6  C   UNL     1     -12.493  13.593  71.120  1.00  0.00    -0.359 A  
HETATM    7  C   UNL     1     -11.704  13.311  69.988  1.00  0.00    -0.225 A  
HETATM    8  C   UNL     1     -10.882  14.325  69.436  1.00  0.00    -0.197 A  
HETATM    9  N   UNL     1     -12.030  11.988  69.716  1.00  0.00    -0.312 NA 
HETATM   10  C   UNL     1     -11.820  15.910  71.067  1.00  0.00    -0.468 A  
HETATM   11  C   UNL     1     -12.577  14.896  71.640  1.00  0.00    -0.396 A  
HETATM   12  C   UNL     1     -10.969  15.615  70.008  1.00  0.00    -0.336 A  
BRANCH   9  13
HETATM   13  C   UNL     1     -11.816  11.196  68.505  1.00  0.00    -0.260 C  
BRANCH  13  14
HETATM   14  C   UNL     1     -10.789  10.106  68.681  1.00  0.00    -0.272 A  
HETATM   15  C   UNL     1      -8.901   9.138  69.844  1.00  0.00    -0.176 A  
HETATM   16  C   UNL     1      -9.320   7.844  69.492  1.00  0.00    -0.156 A  
HETATM   17  C   UNL     1     -10.991   8.876  68.052  1.00  0.00     0.040 A  
HETATM   18  C   UNL     1      -9.667  10.258  69.494  1.00  0.00    -0.235 A  
HETATM   19  C   UNL     1     -10.277   7.753  68.470  1.00  0.00    -0.227 A  
BRANCH  16  20
HETATM   20  C   UNL     1      -8.904   6.630  70.256  1.00  0.00    -0.152 A  
HETATM   21  C   UNL     1      -8.768   6.712  71.663  1.00  0.00    -0.130 A  
HETATM   22  C   UNL     1      -8.527   5.397  69.642  1.00  0.00    -0.100 A  
HETATM   23  C   UNL     1      -8.303   5.642  72.435  1.00  0.00    -0.115 A  
HETATM   24  C   UNL     1      -8.123   4.311  70.451  1.00  0.00    -0.059 A  
HETATM   25  C   UNL     1      -8.001   4.433  71.831  1.00  0.00    -0.097 A  
BRANCH  22  26
HETATM   26  C   UNL     1      -8.459   5.147  68.196  1.00  0.00    -0.099 A  
HETATM   27  N   UNL     1      -9.273   4.387  67.483  1.00  0.00    -0.133 NA 
HETATM   28  H   UNL     1     -10.079   3.867  67.829  1.00  0.00     0.000 HD 
HETATM   29  N   UNL     1      -8.824   4.433  66.186  1.00  0.00    -0.113 NA 
HETATM   30  N   UNL     1      -7.738   5.184  66.088  1.00  0.00    -0.091 NA 
HETATM   31  N   UNL     1      -7.484   5.589  67.340  1.00  0.00    -0.083 NA 
ENDBRANCH  22  26
ENDBRANCH  16  20
ENDBRANCH  13  14
ENDBRANCH   9  13
BRANCH   8  32
HETATM   32  C   UNL     1     -10.054  14.179  68.216  1.00  0.00    -0.241 C  
HETATM   33  O   UNL     1      -8.866  13.903  68.243  1.00  0.00    -0.177 OA 
BRANCH  32  34
HETATM   34  O   UNL     1     -10.822  14.164  67.097  1.00  0.00    -0.285 OA 
BRANCH  34  35
HETATM   35  C   UNL     1     -10.043  14.046  65.897  1.00  0.00    -0.321 C  
HETATM   36  C   UNL     1      -9.964  12.547  65.604  1.00  0.00    -0.259 C  
BRANCH  35  37
HETATM   37  O   UNL     1     -10.690  14.611  64.756  1.00  0.00    -0.412 OA 
BRANCH  37  38
HETATM   38  C   UNL     1     -10.930  15.940  64.809  1.00  0.00    -0.375 C  
HETATM   39  O   UNL     1     -11.563  16.593  63.998  1.00  0.00    -1.197 OA 
BRANCH  38  40
HETATM   40  O   UNL     1     -10.359  16.390  65.941  1.00  0.00    -0.336 OA 
BRANCH  40  41
HETATM   41  C   UNL     1      -9.468  17.527  66.007  1.00  0.00    -0.070 C  
HETATM   42  C   UNL     1      -9.654  19.170  68.482  1.00  0.00    -0.454 C  
HETATM   43  C   UNL     1     -10.349  18.775  66.108  1.00  0.00    -0.494 C  
HETATM   44  C   UNL     1     -10.835  19.005  67.535  1.00  0.00    -0.478 C  
HETATM   45  C   UNL     1      -8.710  17.972  68.447  1.00  0.00    -0.301 C  
HETATM   46  C   UNL     1      -8.328  17.529  67.032  1.00  0.00    -0.239 C  
ENDBRANCH  40  41
ENDBRANCH  38  40
ENDBRANCH  37  38
ENDBRANCH  35  37
ENDBRANCH  34  35
ENDBRANCH  32  34
ENDBRANCH   8  32
ENDBRANCH   3   4
ENDBRANCH   2   3
TORSDOF 13
ENDMDL
MODEL       42
REMARK 921   NORMALIZED FREE ENERGY PREDICTED BY IDOCK:   -6.92 KCAL/MOL
REMARK 922        TOTAL FREE ENERGY PREDICTED BY IDOCK:  -14.63 KCAL/MOL
REMARK 923 INTER-LIGAND FREE ENERGY PREDICTED BY IDOCK:  -11.68 KCAL/MOL
REMARK 924 INTRA-LIGAND FREE ENERGY PREDICTED BY IDOCK:   -2.94 KCAL/MOL
REMARK 927      BINDING AFFINITY PREDICTED BY RF-SCORE:    0.00 PKD
ROOT
HETATM    1  C   UNL     1      -7.480   6.817  62.909  1.00  0.00    -0.080 C  
HETATM    2  C   UNL     1      -7.886   8.213  63.348  1.00  0.00    -0.149 C  
ENDROOT
BRANCH   2   3
HETATM    3  O   UNL     1      -8.516   8.102  64.629  1.00  0.00    -0.129 OA 
BRANCH   3   4
HETATM    4  C   UNL     1      -8.404   9.180  65.401  1.00  0.00    -0.141 A  
HETATM    5  N   UNL     1      -7.345   9.955  65.449  1.00  0.00    -0.122 NA 
HETATM    6  C   UNL     1      -7.657  10.919  66.363  1.00  0.00    -0.146 A  
HETATM    7  C   UNL     1      -8.973  10.785  66.849  1.00  0.00    -0.139 A  
HETATM    8  C   UNL     1      -9.503  11.773  67.715  1.00  0.00    -0.181 A  
HETATM    9  N   UNL     1      -9.380   9.581  66.287  1.00  0.00    -0.173 NA 
HETATM   10  C   UNL     1      -7.310  12.886  67.716  1.00  0.00    -0.134 A  
HETATM   11  C   UNL     1      -6.816  11.948  66.819  1.00  0.00    -0.006 A  
HETATM   12  C   UNL     1      -8.636  12.811  68.126  1.00  0.00    -0.185 A  
BRANCH   9  13
HETATM   13  C   UNL     1     -10.503   8.711  66.638  1.00  0.00    -0.169 C  
BRANCH  13  14
HETATM   14  C   UNL     1     -10.136   7.639  67.633  1.00  0.00    -0.249 A  
HETATM   15  C   UNL     1      -9.102   6.930  69.702  1.00  0.00    -0.143 A  
HETATM   16  C   UNL     1     -10.017   5.870  69.821  1.00  0.00    -0.236 A  
HETATM   17  C   UNL     1     -10.790   6.407  67.574  1.00  0.00    -0.438 A  
HETATM   18  C   UNL     1      -9.203   7.846  68.647  1.00  0.00    -0.142 A  
HETATM   19  C   UNL     1     -10.748   5.542  68.667  1.00  0.00    -0.176 A  
BRANCH  16  20
HETATM   20  C   UNL     1     -10.327   5.219  71.128  1.00  0.00    -0.291 A  
HETATM   21  C   UNL     1      -9.797   3.935  71.404  1.00  0.00    -0.243 A  
HETATM   22  C   UNL     1     -11.224   5.768  72.094  1.00  0.00    -0.327 A  
HETATM   23  C   UNL     1     -10.111   3.229  72.569  1.00  0.00    -0.229 A  
HETATM   24  C   UNL     1     -11.473   5.062  73.293  1.00  0.00    -0.339 A  
HETATM   25  C   UNL     1     -10.933   3.802  73.526  1.00  0.00    -0.339 A  
BRANCH  22  26
HETATM   26  C   UNL     1     -11.988   7.013  71.942  1.00  0.00    -0.320 A  
HETATM   27  N   UNL     1     -11.657   8.208  72.401  1.00  0.00    -0.377 NA 
HETATM   28  H   UNL     1     -10.814   8.448  72.922  1.00  0.00     0.000 HD 
HETATM   29  N   UNL     1     -12.668   9.065  72.040  1.00  0.00    -0.369 NA 
HETATM   30  N   UNL     1     -13.625   8.421  71.392  1.00  0.00    -0.270 NA 
HETATM   31  N   UNL     1     -13.227   7.141  71.370  1.00  0.00    -0.374 NA 
ENDBRANCH  22  26
ENDBRANCH  16  20
ENDBRANCH  13  14
ENDBRANCH   9  13
BRANCH   8  32
HETATM   32  C   UNL     1     -10.845  11.721  68.344  1.00  0.00    -0.223 C  
HETATM   33  O   UNL     1     -11.019  11.506  69.532  1.00  0.00    -0.211 OA 
BRANCH  32  34
HETATM   34  O   UNL     1     -11.806  12.161  67.492  1.00  0.00    -0.499 OA 
BRANCH  34  35
HETATM   35  C   UNL     1     -11.753  13.581  67.291  1.00  0.00    -0.383 C  
HETATM   36  C   UNL     1     -12.605  13.854  66.051  1.00  0.00    -0.467 C  
BRANCH  35  37
HETATM   37  O   UNL     1     -12.384  14.315  68.341  1.00  0.00    -0.222 OA 
BRANCH  37  38
HETATM   38  C   UNL     1     -11.575  15.099  69.087  1.00  0.00    -0.323 C  
HETATM   39  O   UNL     1     -11.026  14.787  70.129  1.00  0.00    -0.213 OA 
BRANCH  38  40
HETATM   40  O   UNL     1     -11.473  16.275  68.440  1.00  0.00    -0.357 OA 
BRANCH  40  41
HETATM   41  C   UNL     1     -10.228  16.970  68.204  1.00  0.00    -0.322 C  
HETATM   42  C   UNL     1     -10.218  18.853  65.899  1.00  0.00    -0.333 C  
HETATM   43  C   UNL     1      -9.753  16.565  66.806  1.00  0.00    -0.268 C  
HETATM   44  C   UNL     1     -10.465  17.362  65.718  1.00  0.00    -0.221 C  
HETATM   45  C   UNL     1     -10.656  19.352  67.272  1.00  0.00    -0.599 C  
HETATM   46  C   UNL     1     -10.158  18.484  68.432  1.00  0.00    -0.423 C  
ENDBRANCH  40  41
ENDBRANCH  38  40
ENDBRANCH  37  38
ENDBRANCH  35  37
ENDBRANCH  34  35
ENDBRANCH  32  34
ENDBRANCH   8  32
ENDBRANCH   3   4
ENDBRANCH   2   3
TORSDOF 13
ENDMDL
MODEL       43
REMARK 921   NORMALIZED FREE ENERGY PREDICTED BY IDOCK:   -6.90 KCAL/MOL
REMARK 922        TOTAL FREE ENERGY PREDICTED BY IDOCK:  -14.60 KCAL/MOL
REMARK 923 INTER-LIGAND FREE ENERGY PREDICTED BY IDOCK:  -10.66 KCAL/MOL
REMARK 924 INTRA-LIGAND FREE ENERGY PREDICTED BY IDOCK:   -3.94 KCAL/MOL
REMARK 927      BINDING AFFINITY PREDICTED BY RF-SCORE:    0.00 PKD
ROOT
HETATM    1  C   UNL     1     -13.327  11.884  72.000  1.00  0.00    -0.425 C  
HETATM    2  C   UNL     1     -13.101  10.397  71.791  1.00  0.00    -0.462 C  
ENDROOT
BRANCH   2   3
HETATM    3  O   UNL     1     -11.701  10.194  71.572  1.00  0.00    -0.343 OA 
BRANCH   3   4
HETATM    4  C   UNL     1     -11.301   8.928  71.657  1.00  0.00    -0.337 A  
HETATM    5  N   UNL     1     -11.909   8.000  72.359  1.00  0.00    -0.366 NA 
HETATM    6  C   UNL     1     -11.166   6.872  72.168  1.00  0.00    -0.258 A  
HETATM    7  C   UNL     1     -10.104   7.081  71.265  1.00  0.00    -0.190 A  
HETATM    8  C   UNL     1      -9.303   5.985  70.859  1.00  0.00    -0.175 A  
HETATM    9  N   UNL     1     -10.160   8.452  71.048  1.00  0.00    -0.190 NA 
HETATM   10  C   UNL     1     -10.550   4.553  72.422  1.00  0.00    -0.205 A  
HETATM   11  C   UNL     1     -11.369   5.619  72.770  1.00  0.00    -0.350 A  
HETATM   12  C   UNL     1      -9.561   4.733  71.463  1.00  0.00    -0.220 A  
BRANCH   9  13
HETATM   13  C   UNL     1      -9.160   9.357  70.479  1.00  0.00    -0.256 C  
BRANCH  13  14
HETATM   14  C   UNL     1      -9.442   9.726  69.044  1.00  0.00    -0.173 A  
HETATM   15  C   UNL     1     -10.873   9.718  67.093  1.00  0.00    -0.207 A  
HETATM   16  C   UNL     1     -10.323  10.936  66.658  1.00  0.00    -0.289 A  
HETATM   17  C   UNL     1      -8.672  10.719  68.435  1.00  0.00    -0.142 A  
HETATM   18  C   UNL     1     -10.479   9.151  68.312  1.00  0.00    -0.254 A  
HETATM   19  C   UNL     1      -9.121  11.332  67.266  1.00  0.00    -0.156 A  
BRANCH  16  20
HETATM   20  C   UNL     1     -11.038  11.852  65.721  1.00  0.00    -0.367 A  
HETATM   21  C   UNL     1     -10.972  11.603  64.328  1.00  0.00    -0.418 A  
HETATM   22  C   UNL     1     -11.711  13.042  66.133  1.00  0.00    -0.445 A  
HETATM   23  C   UNL     1     -11.546  12.463  63.385  1.00  0.00    -0.541 A  
HETATM   24  C   UNL     1     -12.338  13.858  65.164  1.00  0.00    -0.471 A  
HETATM   25  C   UNL     1     -12.249  13.580  63.804  1.00  0.00    -0.449 A  
BRANCH  22  26
HETATM   26  C   UNL     1     -11.774  13.557  67.507  1.00  0.00    -0.367 A  
HETATM   27  N   UNL     1     -11.999  12.858  68.607  1.00  0.00    -0.297 NA 
HETATM   28  H   UNL     1     -12.152  11.851  68.667  1.00  0.00     0.000 HD 
HETATM   29  N   UNL     1     -11.985  13.748  69.652  1.00  0.00    -0.324 NA 
HETATM   30  N   UNL     1     -11.782  14.983  69.219  1.00  0.00    -0.306 NA 
HETATM   31  N   UNL     1     -11.697  14.872  67.886  1.00  0.00    -0.344 NA 
ENDBRANCH  22  26
ENDBRANCH  16  20
ENDBRANCH  13  14
ENDBRANCH   9  13
BRANCH   8  32
HETATM   32  C   UNL     1      -8.123   6.078  69.967  1.00  0.00    -0.114 C  
HETATM   33  O   UNL     1      -7.065   6.577  70.309  1.00  0.00    -0.067 OA 
BRANCH  32  34
HETATM   34  O   UNL     1      -8.301   5.348  68.836  1.00  0.00    -0.099 OA 
BRANCH  34  35
HETATM   35  C   UNL     1      -7.115   4.640  68.447  1.00  0.00    -0.057 C  
HETATM   36  C   UNL     1      -7.261   3.236  69.037  1.00  0.00    -0.049 C  
BRANCH  35  37
HETATM   37  O   UNL     1      -7.024   4.440  67.036  1.00  0.00    -0.060 OA 
BRANCH  37  38
HETATM   38  C   UNL     1      -8.002   5.003  66.293  1.00  0.00    -0.107 C  
HETATM   39  O   UNL     1      -9.130   4.572  66.135  1.00  0.00    -0.120 OA 
BRANCH  38  40
HETATM   40  O   UNL     1      -7.492   6.142  65.787  1.00  0.00    -0.078 OA 
BRANCH  40  41
HETATM   41  C   UNL     1      -7.976   7.466  66.112  1.00  0.00    -0.112 C  
HETATM   42  C   UNL     1      -6.304   9.726  65.135  1.00  0.00    -0.094 C  
HETATM   43  C   UNL     1      -6.900   8.131  66.973  1.00  0.00    -0.070 C  
HETATM   44  C   UNL     1      -5.768   8.696  66.120  1.00  0.00    -0.046 C  
HETATM   45  C   UNL     1      -7.393   9.155  64.232  1.00  0.00    -0.104 C  
HETATM   46  C   UNL     1      -8.477   8.379  64.988  1.00  0.00    -0.160 C  
ENDBRANCH  40  41
ENDBRANCH  38  40
ENDBRANCH  37  38
ENDBRANCH  35  37
ENDBRANCH  34  35
ENDBRANCH  32  34
ENDBRANCH   8  32
ENDBRANCH   3   4
ENDBRANCH   2   3
TORSDOF 13
ENDMDL
MODEL       44
REMARK 921   NORMALIZED FREE ENERGY PREDICTED BY IDOCK:   -6.88 KCAL/MOL
REMARK 922        TOTAL FREE ENERGY PREDICTED BY IDOCK:  -14.56 KCAL/MOL
REMARK 923 INTER-LIGAND FREE ENERGY PREDICTED BY IDOCK:  -10.69 KCAL/MOL
REMARK 924 INTRA-LIGAND FREE ENERGY PREDICTED BY IDOCK:   -3.87 KCAL/MOL
REMARK 927      BINDING AFFINITY PREDICTED BY RF-SCORE:    0.00 PKD
ROOT
HETATM    1  C   UNL     1     -14.063   8.826  71.991  1.00  0.00    -0.508 C  
HETATM    2  C   UNL     1     -13.082   9.980  71.875  1.00  0.00    -0.460 C  
ENDROOT
BRANCH   2   3
HETATM    3  O   UNL     1     -12.803  10.178  70.485  1.00  0.00    -0.282 OA 
BRANCH   3   4
HETATM    4  C   UNL     1     -11.511  10.165  70.168  1.00  0.00    -0.296 A  
HETATM    5  N   UNL     1     -10.558   9.709  70.946  1.00  0.00    -0.320 NA 
HETATM    6  C   UNL     1      -9.407   9.894  70.236  1.00  0.00    -0.087 A  
HETATM    7  C   UNL     1      -9.653  10.417  68.951  1.00  0.00    -0.192 A  
HETATM    8  C   UNL     1      -8.581  10.558  68.035  1.00  0.00    -0.121 A  
HETATM    9  N   UNL     1     -11.016  10.684  68.991  1.00  0.00    -0.229 NA 
HETATM   10  C   UNL     1      -7.035   9.822  69.801  1.00  0.00    -0.087 A  
HETATM   11  C   UNL     1      -8.099   9.627  70.673  1.00  0.00    -0.068 A  
HETATM   12  C   UNL     1      -7.283  10.248  68.501  1.00  0.00    -0.080 A  
BRANCH   9  13
HETATM   13  C   UNL     1     -11.837  11.521  68.115  1.00  0.00    -0.236 C  
BRANCH  13  14
HETATM   14  C   UNL     1     -11.693  12.996  68.398  1.00  0.00    -0.386 A  
HETATM   15  C   UNL     1     -11.044  14.826  69.841  1.00  0.00    -0.266 A  
HETATM   16  C   UNL     1     -10.770  15.636  68.726  1.00  0.00    -0.250 A  
HETATM   17  C   UNL     1     -11.761  13.899  67.336  1.00  0.00    -0.422 A  
HETATM   18  C   UNL     1     -11.442  13.493  69.675  1.00  0.00    -0.283 A  
HETATM   19  C   UNL     1     -11.283  15.200  67.494  1.00  0.00    -0.331 A  
BRANCH  16  20
HETATM   20  C   UNL     1      -9.853  16.812  68.793  1.00  0.00    -0.264 A  
HETATM   21  C   UNL     1     -10.403  18.117  68.830  1.00  0.00    -0.270 A  
HETATM   22  C   UNL     1      -8.430  16.714  68.718  1.00  0.00    -0.255 A  
HETATM   23  C   UNL     1      -9.608  19.267  68.810  1.00  0.00    -0.485 A  
HETATM   24  C   UNL     1      -7.648  17.890  68.765  1.00  0.00    -0.271 A  
HETATM   25  C   UNL     1      -8.228  19.154  68.799  1.00  0.00    -0.382 A  
BRANCH  22  26
HETATM   26  C   UNL     1      -7.666  15.473  68.532  1.00  0.00    -0.132 A  
HETATM   27  N   UNL     1      -7.431  14.543  69.442  1.00  0.00    -0.304 NA 
HETATM   28  H   UNL     1      -7.754  14.543  70.409  1.00  0.00     0.000 HD 
HETATM   29  N   UNL     1      -6.668  13.577  68.833  1.00  0.00    -0.105 NA 
HETATM   30  N   UNL     1      -6.407  13.903  67.577  1.00  0.00    -0.320 NA 
HETATM   31  N   UNL     1      -6.986  15.099  67.403  1.00  0.00    -0.190 NA 
ENDBRANCH  22  26
ENDBRANCH  16  20
ENDBRANCH  13  14
ENDBRANCH   9  13
BRANCH   8  32
HETATM   32  C   UNL     1      -8.692  11.149  66.680  1.00  0.00    -0.166 C  
HETATM   33  O   UNL     1      -9.003  12.311  66.481  1.00  0.00    -0.208 OA 
BRANCH  32  34
HETATM   34  O   UNL     1      -8.192  10.312  65.735  1.00  0.00    -0.135 OA 
BRANCH  34  35
HETATM   35  C   UNL     1      -9.200   9.466  65.162  1.00  0.00    -0.225 C  
HETATM   36  C   UNL     1      -9.485  10.048  63.776  1.00  0.00    -0.267 C  
BRANCH  35  37
HETATM   37  O   UNL     1      -8.738   8.138  64.916  1.00  0.00    -0.072 OA 
BRANCH  37  38
HETATM   38  C   UNL     1      -8.016   7.568  65.907  1.00  0.00    -0.117 C  
HETATM   39  O   UNL     1      -6.833   7.278  65.865  1.00  0.00    -0.055 OA 
BRANCH  38  40
HETATM   40  O   UNL     1      -8.851   7.412  66.951  1.00  0.00    -0.124 OA 
BRANCH  40  41
HETATM   41  C   UNL     1      -9.490   6.163  67.303  1.00  0.00    -0.114 C  
HETATM   42  C   UNL     1     -10.014   5.756  70.204  1.00  0.00    -0.258 C  
HETATM   43  C   UNL     1      -8.522   5.414  68.221  1.00  0.00    -0.097 C  
HETATM   44  C   UNL     1      -8.603   5.922  69.657  1.00  0.00    -0.121 C  
HETATM   45  C   UNL     1     -11.057   6.466  69.347  1.00  0.00    -0.450 C  
HETATM   46  C   UNL     1     -10.922   6.181  67.848  1.00  0.00    -0.399 C  
ENDBRANCH  40  41
ENDBRANCH  38  40
ENDBRANCH  37  38
ENDBRANCH  35  37
ENDBRANCH  34  35
ENDBRANCH  32  34
ENDBRANCH   8  32
ENDBRANCH   3   4
ENDBRANCH   2   3
TORSDOF 13
ENDMDL
MODEL       45
REMARK 921   NORMALIZED FREE ENERGY PREDICTED BY IDOCK:   -6.88 KCAL/MOL
REMARK 922        TOTAL FREE ENERGY PREDICTED BY IDOCK:  -14.55 KCAL/MOL
REMARK 923 INTER-LIGAND FREE ENERGY PREDICTED BY IDOCK:  -11.89 KCAL/MOL
REMARK 924 INTRA-LIGAND FREE ENERGY PREDICTED BY IDOCK:   -2.67 KCAL/MOL
REMARK 927      BINDING AFFINITY PREDICTED BY RF-SCORE:    0.00 PKD
ROOT
HETATM    1  C   UNL     1     -11.600   8.322  72.517  1.00  0.00    -0.454 C  
HETATM    2  C   UNL     1     -13.002   8.862  72.297  1.00  0.00    -0.419 C  
ENDROOT
BRANCH   2   3
HETATM    3  O   UNL     1     -13.005   9.575  71.055  1.00  0.00    -0.294 OA 
BRANCH   3   4
HETATM    4  C   UNL     1     -12.908  10.897  71.170  1.00  0.00    -0.409 A  
HETATM    5  N   UNL     1     -13.392  11.595  72.171  1.00  0.00    -0.394 NA 
HETATM    6  C   UNL     1     -13.075  12.890  71.881  1.00  0.00    -0.373 A  
HETATM    7  C   UNL     1     -12.313  13.000  70.701  1.00  0.00    -0.310 A  
HETATM    8  C   UNL     1     -11.796  14.261  70.316  1.00  0.00    -0.377 A  
HETATM    9  N   UNL     1     -12.326  11.699  70.213  1.00  0.00    -0.285 NA 
HETATM   10  C   UNL     1     -12.987  15.278  72.212  1.00  0.00    -0.459 A  
HETATM   11  C   UNL     1     -13.439  14.029  72.618  1.00  0.00    -0.650 A  
HETATM   12  C   UNL     1     -12.157  15.380  71.102  1.00  0.00    -0.418 A  
BRANCH   9  13
HETATM   13  C   UNL     1     -12.002  11.191  68.879  1.00  0.00    -0.298 C  
BRANCH  13  14
HETATM   14  C   UNL     1     -10.912  10.149  68.889  1.00  0.00    -0.261 A  
HETATM   15  C   UNL     1      -9.006   9.082  69.930  1.00  0.00    -0.170 A  
HETATM   16  C   UNL     1      -9.326   7.860  69.314  1.00  0.00    -0.148 A  
HETATM   17  C   UNL     1     -11.009   9.058  68.023  1.00  0.00     0.002 A  
HETATM   18  C   UNL     1      -9.832  10.202  69.769  1.00  0.00    -0.245 A  
HETATM   19  C   UNL     1     -10.239   7.918  68.248  1.00  0.00    -0.240 A  
BRANCH  16  20
HETATM   20  C   UNL     1      -8.859   6.546  69.845  1.00  0.00    -0.143 A  
HETATM   21  C   UNL     1      -9.365   5.351  69.277  1.00  0.00    -0.159 A  
HETATM   22  C   UNL     1      -8.000   6.408  70.977  1.00  0.00    -0.115 A  
HETATM   23  C   UNL     1      -9.037   4.086  69.776  1.00  0.00    -0.182 A  
HETATM   24  C   UNL     1      -7.634   5.117  71.421  1.00  0.00    -0.096 A  
HETATM   25  C   UNL     1      -8.154   3.967  70.836  1.00  0.00    -0.067 A  
BRANCH  22  26
HETATM   26  C   UNL     1      -7.481   7.511  71.797  1.00  0.00    -0.080 A  
HETATM   27  N   UNL     1      -7.932   7.904  72.976  1.00  0.00    -0.123 NA 
HETATM   28  H   UNL     1      -8.703   7.491  73.501  1.00  0.00     0.000 HD 
HETATM   29  N   UNL     1      -7.160   8.973  73.360  1.00  0.00    -0.248 NA 
HETATM   30  N   UNL     1      -6.261   9.264  72.433  1.00  0.00    -0.296 NA 
HETATM   31  N   UNL     1      -6.489   8.389  71.444  1.00  0.00    -0.046 NA 
ENDBRANCH  22  26
ENDBRANCH  16  20
ENDBRANCH  13  14
ENDBRANCH   9  13
BRANCH   8  32
HETATM   32  C   UNL     1     -11.033  14.525  69.072  1.00  0.00    -0.257 C  
HETATM   33  O   UNL     1     -11.359  15.368  68.254  1.00  0.00    -0.319 OA 
BRANCH  32  34
HETATM   34  O   UNL     1      -9.837  13.883  69.082  1.00  0.00    -0.016 OA 
BRANCH  34  35
HETATM   35  C   UNL     1      -9.040  14.189  67.928  1.00  0.00    -0.189 C  
HETATM   36  C   UNL     1      -8.197  15.403  68.321  1.00  0.00    -0.145 C  
BRANCH  35  37
HETATM   37  O   UNL     1      -8.093  13.167  67.618  1.00  0.00    -0.149 OA 
BRANCH  37  38
HETATM   38  C   UNL     1      -8.541  12.161  66.834  1.00  0.00    -0.191 C  
HETATM   39  O   UNL     1      -8.081  11.035  66.769  1.00  0.00    -0.138 OA 
BRANCH  38  40
HETATM   40  O   UNL     1      -9.605  12.640  66.164  1.00  0.00    -0.253 OA 
BRANCH  40  41
HETATM   41  C   UNL     1     -10.700  11.826  65.684  1.00  0.00    -0.280 C  
HETATM   42  C   UNL     1     -12.085  12.832  63.250  1.00  0.00    -0.524 C  
HETATM   43  C   UNL     1     -11.958  12.694  65.747  1.00  0.00    -0.503 C  
HETATM   44  C   UNL     1     -12.057  13.629  64.546  1.00  0.00    -0.459 C  
HETATM   45  C   UNL     1     -10.867  11.926  63.098  1.00  0.00    -0.294 C  
HETATM   46  C   UNL     1     -10.559  11.093  64.346  1.00  0.00    -0.411 C  
ENDBRANCH  40  41
ENDBRANCH  38  40
ENDBRANCH  37  38
ENDBRANCH  35  37
ENDBRANCH  34  35
ENDBRANCH  32  34
ENDBRANCH   8  32
ENDBRANCH   3   4
ENDBRANCH   2   3
TORSDOF 13
ENDMDL
MODEL       46
REMARK 921   NORMALIZED FREE ENERGY PREDICTED BY IDOCK:   -6.87 KCAL/MOL
REMARK 922        TOTAL FREE ENERGY PREDICTED BY IDOCK:  -14.55 KCAL/MOL
REMARK 923 INTER-LIGAND FREE ENERGY PREDICTED BY IDOCK:  -10.69 KCAL/MOL
REMARK 924 INTRA-LIGAND FREE ENERGY PREDICTED BY IDOCK:   -3.86 KCAL/MOL
REMARK 927      BINDING AFFINITY PREDICTED BY RF-SCORE:    0.00 PKD
ROOT
HETATM    1  C   UNL     1     -13.188  11.260  71.805  1.00  0.00    -0.480 C  
HETATM    2  C   UNL     1     -12.808   9.800  71.978  1.00  0.00    -0.401 C  
ENDROOT
BRANCH   2   3
HETATM    3  O   UNL     1     -12.244   9.346  70.743  1.00  0.00    -0.259 OA 
BRANCH   3   4
HETATM    4  C   UNL     1     -10.926   9.165  70.765  1.00  0.00    -0.270 A  
HETATM    5  N   UNL     1     -10.229   8.899  71.844  1.00  0.00    -0.343 NA 
HETATM    6  C   UNL     1      -8.938   8.801  71.413  1.00  0.00    -0.238 A  
HETATM    7  C   UNL     1      -8.832   8.941  70.015  1.00  0.00    -0.160 A  
HETATM    8  C   UNL     1      -7.579   8.747  69.384  1.00  0.00    -0.088 A  
HETATM    9  N   UNL     1     -10.127   9.290  69.649  1.00  0.00    -0.188 NA 
HETATM   10  C   UNL     1      -6.556   8.465  71.603  1.00  0.00    -0.067 A  
HETATM   11  C   UNL     1      -7.799   8.595  72.209  1.00  0.00    -0.062 A  
HETATM   12  C   UNL     1      -6.461   8.509  70.217  1.00  0.00    -0.038 A  
BRANCH   9  13
HETATM   13  C   UNL     1     -10.627   9.884  68.409  1.00  0.00    -0.222 C  
BRANCH  13  14
HETATM   14  C   UNL     1     -10.582  11.391  68.412  1.00  0.00    -0.230 A  
HETATM   15  C   UNL     1      -9.410  13.480  68.069  1.00  0.00    -0.213 A  
HETATM   16  C   UNL     1     -10.613  14.125  67.737  1.00  0.00    -0.243 A  
HETATM   17  C   UNL     1     -11.782  12.105  68.432  1.00  0.00    -0.388 A  
HETATM   18  C   UNL     1      -9.388  12.106  68.342  1.00  0.00    -0.170 A  
HETATM   19  C   UNL     1     -11.798  13.453  68.077  1.00  0.00    -0.392 A  
BRANCH  16  20
HETATM   20  C   UNL     1     -10.655  15.379  66.927  1.00  0.00    -0.309 A  
HETATM   21  C   UNL     1     -10.535  16.629  67.581  1.00  0.00    -0.320 A  
HETATM   22  C   UNL     1     -10.917  15.408  65.524  1.00  0.00    -0.350 A  
HETATM   23  C   UNL     1     -10.648  17.845  66.901  1.00  0.00    -0.271 A  
HETATM   24  C   UNL     1     -10.962  16.649  64.849  1.00  0.00    -0.162 A  
HETATM   25  C   UNL     1     -10.840  17.856  65.529  1.00  0.00     0.112 A  
BRANCH  22  26
HETATM   26  C   UNL     1     -11.212  14.239  64.684  1.00  0.00    -0.366 A  
HETATM   27  N   UNL     1     -10.337  13.395  64.164  1.00  0.00    -0.690 NA 
HETATM   28  H   UNL     1      -9.324  13.422  64.277  1.00  0.00     0.000 HD 
HETATM   29  N   UNL     1     -11.057  12.473  63.443  1.00  0.00    -0.437 NA 
HETATM   30  N   UNL     1     -12.351  12.746  63.486  1.00  0.00    -0.694 NA 
HETATM   31  N   UNL     1     -12.445  13.865  64.216  1.00  0.00    -0.678 NA 
ENDBRANCH  22  26
ENDBRANCH  16  20
ENDBRANCH  13  14
ENDBRANCH   9  13
BRANCH   8  32
HETATM   32  C   UNL     1      -7.319   8.924  67.935  1.00  0.00    -0.084 C  
HETATM   33  O   UNL     1      -6.934   9.974  67.448  1.00  0.00    -0.081 OA 
BRANCH  32  34
HETATM   34  O   UNL     1      -7.343   7.735  67.281  1.00  0.00    -0.087 OA 
BRANCH  34  35
HETATM   35  C   UNL     1      -8.564   7.532  66.555  1.00  0.00    -0.132 C  
HETATM   36  C   UNL     1      -8.214   7.774  65.086  1.00  0.00    -0.135 C  
BRANCH  35  37
HETATM   37  O   UNL     1      -9.024   6.181  66.606  1.00  0.00    -0.122 OA 
BRANCH  37  38
HETATM   38  C   UNL     1     -10.161   5.968  67.305  1.00  0.00    -0.195 C  
HETATM   39  O   UNL     1     -11.267   6.405  67.039  1.00  0.00    -0.373 OA 
BRANCH  38  40
HETATM   40  O   UNL     1      -9.836   5.160  68.332  1.00  0.00    -0.140 OA 
BRANCH  40  41
HETATM   41  C   UNL     1      -9.123   5.591  69.513  1.00  0.00    -0.120 C  
HETATM   42  C   UNL     1      -8.709   3.511  71.601  1.00  0.00    -0.124 C  
HETATM   43  C   UNL     1     -10.075   5.406  70.698  1.00  0.00    -0.300 C  
HETATM   44  C   UNL     1     -10.100   3.958  71.177  1.00  0.00    -0.066 C  
HETATM   45  C   UNL     1      -7.683   3.665  70.483  1.00  0.00    -0.047 C  
HETATM   46  C   UNL     1      -7.724   5.031  69.791  1.00  0.00    -0.064 C  
ENDBRANCH  40  41
ENDBRANCH  38  40
ENDBRANCH  37  38
ENDBRANCH  35  37
ENDBRANCH  34  35
ENDBRANCH  32  34
ENDBRANCH   8  32
ENDBRANCH   3   4
ENDBRANCH   2   3
TORSDOF 13
ENDMDL
MODEL       47
REMARK 921   NORMALIZED FREE ENERGY PREDICTED BY IDOCK:   -6.84 KCAL/MOL
REMARK 922        TOTAL FREE ENERGY PREDICTED BY IDOCK:  -14.50 KCAL/MOL
REMARK 923 INTER-LIGAND FREE ENERGY PREDICTED BY IDOCK:  -11.81 KCAL/MOL
REMARK 924 INTRA-LIGAND FREE ENERGY PREDICTED BY IDOCK:   -2.68 KCAL/MOL
REMARK 927      BINDING AFFINITY PREDICTED BY RF-SCORE:    0.00 PKD
ROOT
HETATM    1  C   UNL     1      -7.134   6.196  68.305  1.00  0.00    -0.082 C  
HETATM    2  C   UNL     1      -6.184   6.911  67.361  1.00  0.00    -0.037 C  
ENDROOT
BRANCH   2   3
HETATM    3  O   UNL     1      -6.974   7.619  66.400  1.00  0.00    -0.063 OA 
BRANCH   3   4
HETATM    4  C   UNL     1      -7.132   8.916  66.654  1.00  0.00    -0.084 A  
HETATM    5  N   UNL     1      -6.242   9.671  67.255  1.00  0.00    -0.066 NA 
HETATM    6  C   UNL     1      -6.812  10.909  67.311  1.00  0.00    -0.084 A  
HETATM    7  C   UNL     1      -8.064  10.948  66.665  1.00  0.00    -0.147 A  
HETATM    8  C   UNL     1      -8.742  12.184  66.524  1.00  0.00    -0.114 A  
HETATM    9  N   UNL     1      -8.284   9.611  66.355  1.00  0.00    -0.118 NA 
HETATM   10  C   UNL     1      -6.966  13.256  67.846  1.00  0.00    -0.137 A  
HETATM   11  C   UNL     1      -6.278  12.053  67.928  1.00  0.00    -0.073 A  
HETATM   12  C   UNL     1      -8.156  13.319  67.130  1.00  0.00    -0.099 A  
BRANCH   9  13
HETATM   13  C   UNL     1      -9.518   8.924  65.975  1.00  0.00    -0.252 C  
BRANCH  13  14
HETATM   14  C   UNL     1     -10.175   8.202  67.125  1.00  0.00    -0.366 A  
HETATM   15  C   UNL     1     -11.018   6.184  68.160  1.00  0.00    -0.398 A  
HETATM   16  C   UNL     1     -10.744   6.700  69.439  1.00  0.00    -0.303 A  
HETATM   17  C   UNL     1     -10.241   8.830  68.371  1.00  0.00    -0.228 A  
HETATM   18  C   UNL     1     -10.675   6.907  67.010  1.00  0.00    -0.432 A  
HETATM   19  C   UNL     1     -10.501   8.081  69.517  1.00  0.00    -0.226 A  
BRANCH  16  20
HETATM   20  C   UNL     1     -10.559   5.826  70.635  1.00  0.00    -0.346 A  
HETATM   21  C   UNL     1      -9.722   4.688  70.536  1.00  0.00    -0.284 A  
HETATM   22  C   UNL     1     -11.265   6.003  71.863  1.00  0.00    -0.338 A  
HETATM   23  C   UNL     1      -9.566   3.779  71.587  1.00  0.00    -0.227 A  
HETATM   24  C   UNL     1     -11.040   5.105  72.931  1.00  0.00    -0.359 A  
HETATM   25  C   UNL     1     -10.209   3.998  72.794  1.00  0.00    -0.229 A  
BRANCH  22  26
HETATM   26  C   UNL     1     -12.283   7.029  72.125  1.00  0.00    -0.219 A  
HETATM   27  N   UNL     1     -12.214   8.007  73.013  1.00  0.00    -0.645 NA 
HETATM   28  H   UNL     1     -11.437   8.202  73.643  1.00  0.00     0.000 HD 
HETATM   29  N   UNL     1     -13.391   8.709  72.921  1.00  0.00    -0.198 NA 
HETATM   30  N   UNL     1     -14.193   8.172  72.015  1.00  0.00    -0.404 NA 
HETATM   31  N   UNL     1     -13.527   7.104  71.554  1.00  0.00    -0.372 NA 
ENDBRANCH  22  26
ENDBRANCH  16  20
ENDBRANCH  13  14
ENDBRANCH   9  13
BRANCH   8  32
HETATM   32  C   UNL     1     -10.086  12.353  65.923  1.00  0.00    -0.253 C  
HETATM   33  O   UNL     1     -10.377  11.949  64.810  1.00  0.00    -0.259 OA 
BRANCH  32  34
HETATM   34  O   UNL     1     -10.983  12.797  66.840  1.00  0.00    -0.250 OA 
BRANCH  34  35
HETATM   35  C   UNL     1     -11.580  14.047  66.464  1.00  0.00    -0.374 C  
HETATM   36  C   UNL     1     -12.762  13.686  65.563  1.00  0.00    -0.514 C  
BRANCH  35  37
HETATM   37  O   UNL     1     -12.158  14.743  67.569  1.00  0.00    -0.301 OA 
BRANCH  37  38
HETATM   38  C   UNL     1     -11.288  15.266  68.462  1.00  0.00    -0.327 C  
HETATM   39  O   UNL     1     -10.555  14.642  69.209  1.00  0.00    -0.242 OA 
BRANCH  38  40
HETATM   40  O   UNL     1     -11.372  16.604  68.342  1.00  0.00    -0.321 OA 
BRANCH  40  41
HETATM   41  C   UNL     1     -10.648  17.381  67.360  1.00  0.00    -0.308 C  
HETATM   42  C   UNL     1      -8.442  19.072  68.425  1.00  0.00    -0.383 C  
HETATM   43  C   UNL     1     -10.839  18.853  67.732  1.00  0.00    -0.349 C  
HETATM   44  C   UNL     1      -9.890  19.279  68.848  1.00  0.00    -0.512 C  
HETATM   45  C   UNL     1      -8.154  17.628  68.028  1.00  0.00    -0.243 C  
HETATM   46  C   UNL     1      -9.185  17.037  67.061  1.00  0.00    -0.247 C  
ENDBRANCH  40  41
ENDBRANCH  38  40
ENDBRANCH  37  38
ENDBRANCH  35  37
ENDBRANCH  34  35
ENDBRANCH  32  34
ENDBRANCH   8  32
ENDBRANCH   3   4
ENDBRANCH   2   3
TORSDOF 13
ENDMDL
MODEL       48
REMARK 921   NORMALIZED FREE ENERGY PREDICTED BY IDOCK:   -6.83 KCAL/MOL
REMARK 922        TOTAL FREE ENERGY PREDICTED BY IDOCK:  -14.47 KCAL/MOL
REMARK 923 INTER-LIGAND FREE ENERGY PREDICTED BY IDOCK:  -10.73 KCAL/MOL
REMARK 924 INTRA-LIGAND FREE ENERGY PREDICTED BY IDOCK:   -3.73 KCAL/MOL
REMARK 927      BINDING AFFINITY PREDICTED BY RF-SCORE:    0.00 PKD
ROOT
HETATM    1  C   UNL     1      -6.097   5.773  62.464  1.00  0.00    -0.022 C  
HETATM    2  C   UNL     1      -5.136   6.626  63.273  1.00  0.00    -0.026 C  
ENDROOT
BRANCH   2   3
HETATM    3  O   UNL     1      -5.551   6.573  64.642  1.00  0.00    -0.028 OA 
BRANCH   3   4
HETATM    4  C   UNL     1      -5.954   7.736  65.148  1.00  0.00    -0.038 A  
HETATM    5  N   UNL     1      -5.149   8.680  65.578  1.00  0.00    -0.033 NA 
HETATM    6  C   UNL     1      -5.976   9.675  66.011  1.00  0.00    -0.063 A  
HETATM    7  C   UNL     1      -7.334   9.376  65.783  1.00  0.00    -0.095 A  
HETATM    8  C   UNL     1      -8.323  10.351  66.063  1.00  0.00    -0.149 A  
HETATM    9  N   UNL     1      -7.280   8.064  65.329  1.00  0.00    -0.063 NA 
HETATM   10  C   UNL     1      -6.561  11.814  66.961  1.00  0.00    -0.140 A  
HETATM   11  C   UNL     1      -5.592  10.877  66.628  1.00  0.00    -0.084 A  
HETATM   12  C   UNL     1      -7.893  11.562  66.653  1.00  0.00    -0.112 A  
BRANCH   9  13
HETATM   13  C   UNL     1      -8.340   7.061  65.221  1.00  0.00    -0.096 C  
BRANCH  13  14
HETATM   14  C   UNL     1      -8.972   6.719  66.547  1.00  0.00    -0.162 A  
HETATM   15  C   UNL     1      -8.896   6.585  68.962  1.00  0.00    -0.130 A  
HETATM   16  C   UNL     1     -10.288   6.762  69.037  1.00  0.00    -0.212 A  
HETATM   17  C   UNL     1     -10.355   6.537  66.612  1.00  0.00    -0.217 A  
HETATM   18  C   UNL     1      -8.235   6.628  67.727  1.00  0.00    -0.119 A  
HETATM   19  C   UNL     1     -11.006   6.580  67.844  1.00  0.00    -0.382 A  
BRANCH  16  20
HETATM   20  C   UNL     1     -10.968   7.269  70.265  1.00  0.00    -0.281 A  
HETATM   21  C   UNL     1     -12.284   6.835  70.555  1.00  0.00    -0.253 A  
HETATM   22  C   UNL     1     -10.411   8.261  71.128  1.00  0.00    -0.247 A  
HETATM   23  C   UNL     1     -13.015   7.330  71.640  1.00  0.00    -0.417 A  
HETATM   24  C   UNL     1     -11.145   8.696  72.254  1.00  0.00    -0.395 A  
HETATM   25  C   UNL     1     -12.437   8.245  72.504  1.00  0.00    -0.300 A  
BRANCH  22  26
HETATM   26  C   UNL     1      -9.126   8.945  70.928  1.00  0.00    -0.230 A  
HETATM   27  N   UNL     1      -8.053   8.857  71.695  1.00  0.00    -0.329 NA 
HETATM   28  H   UNL     1      -7.952   8.291  72.537  1.00  0.00     0.000 HD 
HETATM   29  N   UNL     1      -7.100   9.674  71.138  1.00  0.00    -0.332 NA 
HETATM   30  N   UNL     1      -7.570  10.282  70.061  1.00  0.00    -0.149 NA 
HETATM   31  N   UNL     1      -8.840   9.867  69.955  1.00  0.00    -0.200 NA 
ENDBRANCH  22  26
ENDBRANCH  16  20
ENDBRANCH  13  14
ENDBRANCH   9  13
BRANCH   8  32
HETATM   32  C   UNL     1      -9.784  10.144  65.927  1.00  0.00    -0.232 C  
HETATM   33  O   UNL     1     -10.564  10.250  66.858  1.00  0.00    -0.245 OA 
BRANCH  32  34
HETATM   34  O   UNL     1     -10.150  10.054  64.623  1.00  0.00    -0.271 OA 
BRANCH  34  35
HETATM   35  C   UNL     1     -10.090  11.318  63.947  1.00  0.00    -0.340 C  
HETATM   36  C   UNL     1      -9.258  11.074  62.687  1.00  0.00    -0.363 C  
BRANCH  35  37
HETATM   37  O   UNL     1     -11.363  11.754  63.469  1.00  0.00    -0.418 OA 
BRANCH  37  38
HETATM   38  C   UNL     1     -11.700  13.031  63.756  1.00  0.00    -0.485 C  
HETATM   39  O   UNL     1     -12.642  13.652  63.297  1.00  0.00    -0.816 OA 
BRANCH  38  40
HETATM   40  O   UNL     1     -10.809  13.468  64.666  1.00  0.00    -0.361 OA 
BRANCH  40  41
HETATM   41  C   UNL     1     -10.966  14.676  65.445  1.00  0.00    -0.353 C  
HETATM   42  C   UNL     1      -9.751  14.626  68.161  1.00  0.00    -0.220 C  
HETATM   43  C   UNL     1     -11.757  14.295  66.698  1.00  0.00    -0.417 C  
HETATM   44  C   UNL     1     -10.860  13.664  67.759  1.00  0.00    -0.266 C  
HETATM   45  C   UNL     1      -8.907  15.071  66.971  1.00  0.00    -0.257 C  
HETATM   46  C   UNL     1      -9.733  15.528  65.765  1.00  0.00    -0.383 C  
ENDBRANCH  40  41
ENDBRANCH  38  40
ENDBRANCH  37  38
ENDBRANCH  35  37
ENDBRANCH  34  35
ENDBRANCH  32  34
ENDBRANCH   8  32
ENDBRANCH   3   4
ENDBRANCH   2   3
TORSDOF 13
ENDMDL
MODEL       49
REMARK 921   NORMALIZED FREE ENERGY PREDICTED BY IDOCK:   -6.79 KCAL/MOL
REMARK 922        TOTAL FREE ENERGY PREDICTED BY IDOCK:  -14.40 KCAL/MOL
REMARK 923 INTER-LIGAND FREE ENERGY PREDICTED BY IDOCK:  -11.34 KCAL/MOL
REMARK 924 INTRA-LIGAND FREE ENERGY PREDICTED BY IDOCK:   -3.06 KCAL/MOL
REMARK 927      BINDING AFFINITY PREDICTED BY RF-SCORE:    0.00 PKD
ROOT
HETATM    1  C   UNL     1      -8.716  10.912  62.773  1.00  0.00    -0.276 C  
HETATM    2  C   UNL     1      -9.017   9.486  63.198  1.00  0.00    -0.194 C  
ENDROOT
BRANCH   2   3
HETATM    3  O   UNL     1      -9.174   9.477  64.620  1.00  0.00    -0.239 OA 
BRANCH   3   4
HETATM    4  C   UNL     1      -8.613   8.440  65.237  1.00  0.00    -0.150 A  
HETATM    5  N   UNL     1      -7.615   7.737  64.754  1.00  0.00    -0.100 NA 
HETATM    6  C   UNL     1      -7.369   6.783  65.699  1.00  0.00    -0.079 A  
HETATM    7  C   UNL     1      -8.188   6.936  66.835  1.00  0.00    -0.113 A  
HETATM    8  C   UNL     1      -7.982   6.104  67.964  1.00  0.00    -0.110 A  
HETATM    9  N   UNL     1      -9.056   7.948  66.446  1.00  0.00    -0.171 NA 
HETATM   10  C   UNL     1      -6.267   4.881  66.694  1.00  0.00    -0.032 A  
HETATM   11  C   UNL     1      -6.433   5.739  65.614  1.00  0.00    -0.043 A  
HETATM   12  C   UNL     1      -7.007   5.086  67.852  1.00  0.00    -0.061 A  
BRANCH   9  13
HETATM   13  C   UNL     1     -10.337   8.362  67.020  1.00  0.00    -0.315 C  
BRANCH  13  14
HETATM   14  C   UNL     1     -10.297   9.739  67.632  1.00  0.00    -0.281 A  
HETATM   15  C   UNL     1      -9.106  11.756  68.243  1.00  0.00    -0.187 A  
HETATM   16  C   UNL     1     -10.282  12.514  68.114  1.00  0.00    -0.231 A  
HETATM   17  C   UNL     1     -11.496  10.419  67.853  1.00  0.00    -0.117 A  
HETATM   18  C   UNL     1      -9.102  10.387  67.941  1.00  0.00    -0.132 A  
HETATM   19  C   UNL     1     -11.488  11.796  68.070  1.00  0.00    -0.388 A  
BRANCH  16  20
HETATM   20  C   UNL     1     -10.265  13.988  67.875  1.00  0.00    -0.240 A  
HETATM   21  C   UNL     1      -9.886  14.854  68.930  1.00  0.00    -0.230 A  
HETATM   22  C   UNL     1     -10.714  14.601  66.667  1.00  0.00    -0.305 A  
HETATM   23  C   UNL     1      -9.926  16.247  68.807  1.00  0.00    -0.237 A  
HETATM   24  C   UNL     1     -10.683  16.009  66.547  1.00  0.00    -0.238 A  
HETATM   25  C   UNL     1     -10.304  16.826  67.607  1.00  0.00    -0.309 A  
BRANCH  22  26
HETATM   26  C   UNL     1     -11.280  13.896  65.508  1.00  0.00    -0.307 A  
HETATM   27  N   UNL     1     -10.633  13.505  64.424  1.00  0.00    -0.510 NA 
HETATM   28  H   UNL     1      -9.638  13.625  64.232  1.00  0.00     0.000 HD 
HETATM   29  N   UNL     1     -11.558  12.906  63.605  1.00  0.00    -0.476 NA 
HETATM   30  N   UNL     1     -12.764  12.941  64.149  1.00  0.00    -0.690 NA 
HETATM   31  N   UNL     1     -12.602  13.595  65.307  1.00  0.00    -0.582 NA 
ENDBRANCH  22  26
ENDBRANCH  16  20
ENDBRANCH  13  14
ENDBRANCH   9  13
BRANCH   8  32
HETATM   32  C   UNL     1      -8.809   6.119  69.194  1.00  0.00    -0.123 C  
HETATM   33  O   UNL     1      -9.814   5.442  69.332  1.00  0.00    -0.153 OA 
BRANCH  32  34
HETATM   34  O   UNL     1      -8.188   6.789  70.198  1.00  0.00    -0.128 OA 
BRANCH  34  35
HETATM   35  C   UNL     1      -8.593   6.331  71.496  1.00  0.00    -0.131 C  
HETATM   36  C   UNL     1      -7.461   5.426  71.985  1.00  0.00    -0.098 C  
BRANCH  35  37
HETATM   37  O   UNL     1      -8.665   7.383  72.459  1.00  0.00    -0.119 OA 
BRANCH  37  38
HETATM   38  C   UNL     1      -9.096   8.579  72.000  1.00  0.00    -0.247 C  
HETATM   39  O   UNL     1      -8.413   9.442  71.478  1.00  0.00    -0.266 OA 
BRANCH  38  40
HETATM   40  O   UNL     1     -10.425   8.615  72.209  1.00  0.00    -0.330 OA 
BRANCH  40  41
HETATM   41  C   UNL     1     -11.399   8.967  71.199  1.00  0.00    -0.291 C  
HETATM   42  C   UNL     1     -14.164   7.972  71.672  1.00  0.00    -0.549 C  
HETATM   43  C   UNL     1     -11.919   7.654  70.609  1.00  0.00    -0.122 C  
HETATM   44  C   UNL     1     -12.987   7.023  71.496  1.00  0.00    -0.411 C  
HETATM   45  C   UNL     1     -13.743   9.319  72.252  1.00  0.00    -0.527 C  
HETATM   46  C   UNL     1     -12.529   9.939  71.553  1.00  0.00    -0.506 C  
ENDBRANCH  40  41
ENDBRANCH  38  40
ENDBRANCH  37  38
ENDBRANCH  35  37
ENDBRANCH  34  35
ENDBRANCH  32  34
ENDBRANCH   8  32
ENDBRANCH   3   4
ENDBRANCH   2   3
TORSDOF 13
ENDMDL
MODEL       50
REMARK 921   NORMALIZED FREE ENERGY PREDICTED BY IDOCK:   -6.79 KCAL/MOL
REMARK 922        TOTAL FREE ENERGY PREDICTED BY IDOCK:  -14.39 KCAL/MOL
REMARK 923 INTER-LIGAND FREE ENERGY PREDICTED BY IDOCK:  -10.31 KCAL/MOL
REMARK 924 INTRA-LIGAND FREE ENERGY PREDICTED BY IDOCK:   -4.08 KCAL/MOL
REMARK 927      BINDING AFFINITY PREDICTED BY RF-SCORE:    0.00 PKD
ROOT
HETATM    1  C   UNL     1      -5.288   8.492  64.064  1.00  0.00    -0.056 C  
HETATM    2  C   UNL     1      -5.680   7.521  65.164  1.00  0.00    -0.037 C  
ENDROOT
BRANCH   2   3
HETATM    3  O   UNL     1      -6.963   7.916  65.659  1.00  0.00    -0.052 OA 
BRANCH   3   4
HETATM    4  C   UNL     1      -7.195   7.594  66.929  1.00  0.00    -0.088 A  
HETATM    5  N   UNL     1      -6.274   7.199  67.777  1.00  0.00    -0.041 NA 
HETATM    6  C   UNL     1      -6.944   6.973  68.944  1.00  0.00    -0.079 A  
HETATM    7  C   UNL     1      -8.311   7.302  68.844  1.00  0.00    -0.126 A  
HETATM    8  C   UNL     1      -9.132   7.242  69.997  1.00  0.00    -0.148 A  
HETATM    9  N   UNL     1      -8.453   7.590  67.492  1.00  0.00    -0.119 NA 
HETATM   10  C   UNL     1      -7.219   6.347  71.258  1.00  0.00    -0.079 A  
HETATM   11  C   UNL     1      -6.406   6.466  70.138  1.00  0.00    -0.039 A  
HETATM   12  C   UNL     1      -8.544   6.758  71.189  1.00  0.00    -0.132 A  
BRANCH   9  13
HETATM   13  C   UNL     1      -9.661   7.687  66.672  1.00  0.00    -0.206 C  
BRANCH  13  14
HETATM   14  C   UNL     1     -10.111   9.108  66.443  1.00  0.00    -0.345 A  
HETATM   15  C   UNL     1     -10.984  11.213  67.255  1.00  0.00    -0.354 A  
HETATM   16  C   UNL     1     -10.311  11.910  66.237  1.00  0.00    -0.259 A  
HETATM   17  C   UNL     1      -9.751   9.751  65.258  1.00  0.00    -0.371 A  
HETATM   18  C   UNL     1     -10.833   9.827  67.394  1.00  0.00    -0.265 A  
HETATM   19  C   UNL     1      -9.830  11.140  65.166  1.00  0.00    -0.307 A  
BRANCH  16  20
HETATM   20  C   UNL     1      -9.974  13.360  66.344  1.00  0.00    -0.293 A  
HETATM   21  C   UNL     1     -10.789  14.309  65.681  1.00  0.00    -0.311 A  
HETATM   22  C   UNL     1      -8.804  13.857  66.995  1.00  0.00    -0.231 A  
HETATM   23  C   UNL     1     -10.489  15.675  65.666  1.00  0.00    -0.402 A  
HETATM   24  C   UNL     1      -8.559  15.249  67.020  1.00  0.00    -0.256 A  
HETATM   25  C   UNL     1      -9.385  16.149  66.355  1.00  0.00    -0.329 A  
BRANCH  22  26
HETATM   26  C   UNL     1      -7.757  13.036  67.617  1.00  0.00    -0.161 A  
HETATM   27  N   UNL     1      -7.796  12.473  68.813  1.00  0.00    -0.308 NA 
HETATM   28  H   UNL     1      -8.566  12.516  69.481  1.00  0.00     0.000 HD 
HETATM   29  N   UNL     1      -6.601  11.819  68.983  1.00  0.00    -0.086 NA 
HETATM   30  N   UNL     1      -5.817  11.986  67.930  1.00  0.00    -0.055 NA 
HETATM   31  N   UNL     1      -6.513  12.778  67.103  1.00  0.00    -0.195 NA 
ENDBRANCH  22  26
ENDBRANCH  16  20
ENDBRANCH  13  14
ENDBRANCH   9  13
BRANCH   8  32
HETATM   32  C   UNL     1     -10.591   7.502  70.017  1.00  0.00    -0.237 C  
HETATM   33  O   UNL     1     -11.428   6.630  69.852  1.00  0.00    -0.358 OA 
BRANCH  32  34
HETATM   34  O   UNL     1     -10.863   8.756  70.460  1.00  0.00    -0.221 OA 
BRANCH  34  35
HETATM   35  C   UNL     1     -11.946   8.782  71.402  1.00  0.00    -0.310 C  
HETATM   36  C   UNL     1     -11.390   8.168  72.687  1.00  0.00    -0.450 C  
BRANCH  35  37
HETATM   37  O   UNL     1     -12.335  10.108  71.764  1.00  0.00    -0.388 OA 
BRANCH  37  38
HETATM   38  C   UNL     1     -12.718  10.913  70.749  1.00  0.00    -0.340 C  
HETATM   39  O   UNL     1     -13.339  10.578  69.755  1.00  0.00     0.092 OA 
BRANCH  38  40
HETATM   40  O   UNL     1     -12.304  12.154  71.064  1.00  0.00    -0.351 OA 
BRANCH  40  41
HETATM   41  C   UNL     1     -12.831  13.364  70.473  1.00  0.00    -0.024 C  
HETATM   42  C   UNL     1     -11.296  15.850  71.034  1.00  0.00    -0.434 C  
HETATM   43  C   UNL     1     -13.177  14.307  71.627  1.00  0.00    -0.429 C  
HETATM   44  C   UNL     1     -11.942  15.036  72.146  1.00  0.00    -0.456 C  
HETATM   45  C   UNL     1     -10.919  14.993  69.830  1.00  0.00    -0.291 C  
HETATM   46  C   UNL     1     -12.041  14.062  69.361  1.00  0.00    -0.386 C  
ENDBRANCH  40  41
ENDBRANCH  38  40
ENDBRANCH  37  38
ENDBRANCH  35  37
ENDBRANCH  34  35
ENDBRANCH  32  34
ENDBRANCH   8  32
ENDBRANCH   3   4
ENDBRANCH   2   3
TORSDOF 13
ENDMDL
MODEL       51
REMARK 921   NORMALIZED FREE ENERGY PREDICTED BY IDOCK:   -6.77 KCAL/MOL
REMARK 922        TOTAL FREE ENERGY PREDICTED BY IDOCK:  -14.37 KCAL/MOL
REMARK 923 INTER-LIGAND FREE ENERGY PREDICTED BY IDOCK:  -11.54 KCAL/MOL
REMARK 924 INTRA-LIGAND FREE ENERGY PREDICTED BY IDOCK:   -2.83 KCAL/MOL
REMARK 927      BINDING AFFINITY PREDICTED BY RF-SCORE:    0.00 PKD
ROOT
HETATM    1  C   UNL     1     -10.414  11.917  63.573  1.00  0.00    -0.505 C  
HETATM    2  C   UNL     1      -9.795  10.933  64.550  1.00  0.00    -0.300 C  
ENDROOT
BRANCH   2   3
HETATM    3  O   UNL     1      -9.472  11.650  65.746  1.00  0.00    -0.228 OA 
BRANCH   3   4
HETATM    4  C   UNL     1      -8.774  10.956  66.642  1.00  0.00    -0.155 A  
HETATM    5  N   UNL     1      -7.468  10.828  66.631  1.00  0.00    -0.128 NA 
HETATM    6  C   UNL     1      -7.183  10.042  67.709  1.00  0.00    -0.087 A  
HETATM    7  C   UNL     1      -8.336   9.727  68.457  1.00  0.00    -0.110 A  
HETATM    8  C   UNL     1      -8.207   9.018  69.677  1.00  0.00    -0.116 A  
HETATM    9  N   UNL     1      -9.356  10.242  67.667  1.00  0.00    -0.144 NA 
HETATM   10  C   UNL     1      -5.793   8.812  69.251  1.00  0.00    -0.035 A  
HETATM   11  C   UNL     1      -5.919   9.560  68.087  1.00  0.00    -0.047 A  
HETATM   12  C   UNL     1      -6.913   8.578  70.040  1.00  0.00    -0.043 A  
BRANCH   9  13
HETATM   13  C   UNL     1     -10.795   9.978  67.698  1.00  0.00    -0.278 C  
BRANCH  13  14
HETATM   14  C   UNL     1     -11.558  10.942  68.571  1.00  0.00    -0.360 A  
HETATM   15  C   UNL     1     -12.401  11.639  70.730  1.00  0.00    -0.454 A  
HETATM   16  C   UNL     1     -12.346  12.988  70.339  1.00  0.00    -0.351 A  
HETATM   17  C   UNL     1     -11.841  12.219  68.084  1.00  0.00    -0.372 A  
HETATM   18  C   UNL     1     -11.948  10.628  69.872  1.00  0.00    -0.385 A  
HETATM   19  C   UNL     1     -12.210  13.236  68.964  1.00  0.00    -0.156 A  
BRANCH  16  20
HETATM   20  C   UNL     1     -12.274  14.107  71.325  1.00  0.00    -0.419 A  
HETATM   21  C   UNL     1     -13.109  14.075  72.469  1.00  0.00    -0.547 A  
HETATM   22  C   UNL     1     -11.481  15.279  71.138  1.00  0.00    -0.414 A  
HETATM   23  C   UNL     1     -13.157  15.125  73.391  1.00  0.00    -0.588 A  
HETATM   24  C   UNL     1     -11.500  16.297  72.118  1.00  0.00    -0.226 A  
HETATM   25  C   UNL     1     -12.336  16.228  73.228  1.00  0.00    -0.615 A  
BRANCH  22  26
HETATM   26  C   UNL     1     -10.657  15.575  69.958  1.00  0.00    -0.324 A  
HETATM   27  N   UNL     1      -9.432  15.141  69.717  1.00  0.00    -0.465 NA 
HETATM   28  H   UNL     1      -8.877  14.525  70.310  1.00  0.00     0.000 HD 
HETATM   29  N   UNL     1      -9.051  15.680  68.512  1.00  0.00    -0.189 NA 
HETATM   30  N   UNL     1     -10.003  16.455  68.019  1.00  0.00    -0.238 NA 
HETATM   31  N   UNL     1     -10.980  16.428  68.935  1.00  0.00    -0.323 NA 
ENDBRANCH  22  26
ENDBRANCH  16  20
ENDBRANCH  13  14
ENDBRANCH   9  13
BRANCH   8  32
HETATM   32  C   UNL     1      -9.338   8.572  70.525  1.00  0.00    -0.170 C  
HETATM   33  O   UNL     1      -9.597   9.068  71.609  1.00  0.00    -0.288 OA 
BRANCH  32  34
HETATM   34  O   UNL     1     -10.157   7.726  69.849  1.00  0.00    -0.196 OA 
BRANCH  34  35
HETATM   35  C   UNL     1     -10.595   6.624  70.658  1.00  0.00    -0.227 C  
HETATM   36  C   UNL     1     -12.099   6.825  70.849  1.00  0.00    -0.421 C  
BRANCH  35  37
HETATM   37  O   UNL     1     -10.472   5.364  69.996  1.00  0.00    -0.280 OA 
BRANCH  37  38
HETATM   38  C   UNL     1      -9.251   5.073  69.498  1.00  0.00    -0.119 C  
HETATM   39  O   UNL     1      -8.185   5.193  70.077  1.00  0.00    -0.080 OA 
BRANCH  38  40
HETATM   40  O   UNL     1      -9.446   4.599  68.253  1.00  0.00    -0.132 OA 
BRANCH  40  41
HETATM   41  C   UNL     1     -10.012   5.370  67.168  1.00  0.00    -0.174 C  
HETATM   42  C   UNL     1      -8.306   5.629  64.743  1.00  0.00    -0.128 C  
HETATM   43  C   UNL     1      -9.078   6.560  66.936  1.00  0.00    -0.144 C  
HETATM   44  C   UNL     1      -7.866   6.168  66.097  1.00  0.00    -0.105 C  
HETATM   45  C   UNL     1      -9.250   4.437  64.871  1.00  0.00    -0.157 C  
HETATM   46  C   UNL     1     -10.394   4.661  65.864  1.00  0.00    -0.315 C  
ENDBRANCH  40  41
ENDBRANCH  38  40
ENDBRANCH  37  38
ENDBRANCH  35  37
ENDBRANCH  34  35
ENDBRANCH  32  34
ENDBRANCH   8  32
ENDBRANCH   3   4
ENDBRANCH   2   3
TORSDOF 13
ENDMDL
MODEL       52
REMARK 921   NORMALIZED FREE ENERGY PREDICTED BY IDOCK:   -6.76 KCAL/MOL
REMARK 922        TOTAL FREE ENERGY PREDICTED BY IDOCK:  -14.35 KCAL/MOL
REMARK 923 INTER-LIGAND FREE ENERGY PREDICTED BY IDOCK:  -11.49 KCAL/MOL
REMARK 924 INTRA-LIGAND FREE ENERGY PREDICTED BY IDOCK:   -2.86 KCAL/MOL
REMARK 927      BINDING AFFINITY PREDICTED BY RF-SCORE:    0.00 PKD
ROOT
HETATM    1  C   UNL     1      -5.608   8.516  66.596  1.00  0.00    -0.036 C  
HETATM    2  C   UNL     1      -6.594   8.822  65.483  1.00  0.00    -0.067 C  
ENDROOT
BRANCH   2   3
HETATM    3  O   UNL     1      -7.914   8.697  66.022  1.00  0.00    -0.101 OA 
BRANCH   3   4
HETATM    4  C   UNL     1      -8.764   9.648  65.643  1.00  0.00    -0.141 A  
HETATM    5  N   UNL     1      -9.337   9.709  64.464  1.00  0.00    -0.239 NA 
HETATM    6  C   UNL     1     -10.111  10.832  64.507  1.00  0.00    -0.350 A  
HETATM    7  C   UNL     1     -10.077  11.453  65.772  1.00  0.00    -0.246 A  
HETATM    8  C   UNL     1     -10.917  12.564  66.030  1.00  0.00    -0.318 A  
HETATM    9  N   UNL     1      -9.104  10.720  66.441  1.00  0.00    -0.167 NA 
HETATM   10  C   UNL     1     -11.652  12.495  63.683  1.00  0.00    -0.580 A  
HETATM   11  C   UNL     1     -10.871  11.370  63.455  1.00  0.00    -0.430 A  
HETATM   12  C   UNL     1     -11.693  13.055  64.954  1.00  0.00    -0.381 A  
BRANCH   9  13
HETATM   13  C   UNL     1      -8.362  11.034  67.662  1.00  0.00    -0.117 C  
BRANCH  13  14
HETATM   14  C   UNL     1      -8.970  10.427  68.900  1.00  0.00    -0.170 A  
HETATM   15  C   UNL     1     -10.800   9.341  70.052  1.00  0.00    -0.264 A  
HETATM   16  C   UNL     1      -9.901   8.697  70.919  1.00  0.00    -0.256 A  
HETATM   17  C   UNL     1      -8.135  10.076  69.963  1.00  0.00    -0.154 A  
HETATM   18  C   UNL     1     -10.332  10.151  69.009  1.00  0.00    -0.230 A  
HETATM   19  C   UNL     1      -8.591   9.202  70.950  1.00  0.00    -0.259 A  
BRANCH  16  20
HETATM   20  C   UNL     1     -10.251   7.446  71.654  1.00  0.00    -0.205 A  
HETATM   21  C   UNL     1     -10.395   7.490  73.063  1.00  0.00    -0.376 A  
HETATM   22  C   UNL     1     -10.350   6.163  71.035  1.00  0.00    -0.260 A  
HETATM   23  C   UNL     1     -10.640   6.345  73.827  1.00  0.00    -0.271 A  
HETATM   24  C   UNL     1     -10.662   5.032  71.823  1.00  0.00    -0.150 A  
HETATM   25  C   UNL     1     -10.795   5.117  73.205  1.00  0.00    -0.352 A  
BRANCH  22  26
HETATM   26  C   UNL     1     -10.096   5.875  69.617  1.00  0.00    -0.200 A  
HETATM   27  N   UNL     1      -8.922   5.647  69.052  1.00  0.00    -0.112 NA 
HETATM   28  H   UNL     1      -8.016   5.627  69.519  1.00  0.00     0.000 HD 
HETATM   29  N   UNL     1      -9.160   5.443  67.715  1.00  0.00    -0.108 NA 
HETATM   30  N   UNL     1     -10.449   5.563  67.440  1.00  0.00    -0.226 NA 
HETATM   31  N   UNL     1     -11.024   5.877  68.609  1.00  0.00    -0.272 NA 
ENDBRANCH  22  26
ENDBRANCH  16  20
ENDBRANCH  13  14
ENDBRANCH   9  13
BRANCH   8  32
HETATM   32  C   UNL     1     -10.935  13.343  67.291  1.00  0.00    -0.272 C  
HETATM   33  O   UNL     1     -11.562  13.001  68.279  1.00  0.00    -0.295 OA 
BRANCH  32  34
HETATM   34  O   UNL     1     -10.005  14.332  67.272  1.00  0.00    -0.246 OA 
BRANCH  34  35
HETATM   35  C   UNL     1      -9.501  14.635  68.581  1.00  0.00    -0.211 C  
HETATM   36  C   UNL     1      -8.033  14.209  68.567  1.00  0.00    -0.145 C  
BRANCH  35  37
HETATM   37  O   UNL     1      -9.475  16.037  68.856  1.00  0.00    -0.210 OA 
BRANCH  37  38
HETATM   38  C   UNL     1     -10.676  16.625  69.050  1.00  0.00    -0.343 C  
HETATM   39  O   UNL     1     -11.706  16.072  69.393  1.00  0.00    -0.337 OA 
BRANCH  38  40
HETATM   40  O   UNL     1     -10.503  17.940  68.817  1.00  0.00    -0.335 OA 
BRANCH  40  41
HETATM   41  C   UNL     1     -10.496  18.540  67.501  1.00  0.00    -0.418 C  
HETATM   42  C   UNL     1      -7.810  18.982  66.298  1.00  0.00    -0.303 C  
HETATM   43  C   UNL     1      -9.742  19.866  67.624  1.00  0.00    -0.511 C  
HETATM   44  C   UNL     1      -8.232  19.659  67.595  1.00  0.00    -0.335 C  
HETATM   45  C   UNL     1      -8.517  17.647  66.084  1.00  0.00    -0.167 C  
HETATM   46  C   UNL     1     -10.032  17.709  66.300  1.00  0.00    -0.324 C  
ENDBRANCH  40  41
ENDBRANCH  38  40
ENDBRANCH  37  38
ENDBRANCH  35  37
ENDBRANCH  34  35
ENDBRANCH  32  34
ENDBRANCH   8  32
ENDBRANCH   3   4
ENDBRANCH   2   3
TORSDOF 13
ENDMDL
MODEL       53
REMARK 921   NORMALIZED FREE ENERGY PREDICTED BY IDOCK:   -6.73 KCAL/MOL
REMARK 922        TOTAL FREE ENERGY PREDICTED BY IDOCK:  -14.30 KCAL/MOL
REMARK 923 INTER-LIGAND FREE ENERGY PREDICTED BY IDOCK:  -11.85 KCAL/MOL
REMARK 924 INTRA-LIGAND FREE ENERGY PREDICTED BY IDOCK:   -2.46 KCAL/MOL
REMARK 927      BINDING AFFINITY PREDICTED BY RF-SCORE:    0.00 PKD
ROOT
HETATM    1  C   UNL     1     -12.223   8.416  72.308  1.00  0.00    -0.449 C  
HETATM    2  C   UNL     1     -13.340   9.240  71.692  1.00  0.00    -0.394 C  
ENDROOT
BRANCH   2   3
HETATM    3  O   UNL     1     -12.762  10.075  70.683  1.00  0.00    -0.282 OA 
BRANCH   3   4
HETATM    4  C   UNL     1     -12.785  11.377  70.956  1.00  0.00    -0.349 A  
HETATM    5  N   UNL     1     -13.273  11.899  72.057  1.00  0.00    -0.456 NA 
HETATM    6  C   UNL     1     -13.098  13.244  71.915  1.00  0.00    -0.388 A  
HETATM    7  C   UNL     1     -12.420  13.570  70.724  1.00  0.00    -0.353 A  
HETATM    8  C   UNL     1     -12.048  14.914  70.474  1.00  0.00    -0.378 A  
HETATM    9  N   UNL     1     -12.338  12.342  70.079  1.00  0.00    -0.150 NA 
HETATM   10  C   UNL     1     -13.218  15.573  72.535  1.00  0.00    -0.565 A  
HETATM   11  C   UNL     1     -13.525  14.245  72.803  1.00  0.00    -0.590 A  
HETATM   12  C   UNL     1     -12.467  15.889  71.409  1.00  0.00    -0.459 A  
BRANCH   9  13
HETATM   13  C   UNL     1     -12.045  12.031  68.680  1.00  0.00    -0.088 C  
BRANCH  13  14
HETATM   14  C   UNL     1     -10.619  11.598  68.453  1.00  0.00    -0.235 A  
HETATM   15  C   UNL     1      -8.650  10.352  69.105  1.00  0.00    -0.169 A  
HETATM   16  C   UNL     1      -8.258  10.225  67.762  1.00  0.00    -0.110 A  
HETATM   17  C   UNL     1     -10.050  11.773  67.190  1.00  0.00    -0.224 A  
HETATM   18  C   UNL     1      -9.857  10.980  69.442  1.00  0.00     0.021 A  
HETATM   19  C   UNL     1      -8.893  11.076  66.843  1.00  0.00    -0.150 A  
BRANCH  16  20
HETATM   20  C   UNL     1      -7.339   9.147  67.291  1.00  0.00    -0.087 A  
HETATM   21  C   UNL     1      -6.024   9.487  66.890  1.00  0.00    -0.056 A  
HETATM   22  C   UNL     1      -7.736   7.787  67.116  1.00  0.00    -0.105 A  
HETATM   23  C   UNL     1      -5.135   8.546  66.360  1.00  0.00    -0.030 A  
HETATM   24  C   UNL     1      -6.797   6.844  66.640  1.00  0.00    -0.064 A  
HETATM   25  C   UNL     1      -5.514   7.218  66.255  1.00  0.00    -0.024 A  
BRANCH  22  26
HETATM   26  C   UNL     1      -9.088   7.255  67.336  1.00  0.00    -0.121 A  
HETATM   27  N   UNL     1     -10.023   7.065  66.421  1.00  0.00    -0.428 NA 
HETATM   28  H   UNL     1      -9.943   7.250  65.421  1.00  0.00     0.000 HD 
HETATM   29  N   UNL     1     -11.124   6.569  67.077  1.00  0.00    -0.406 NA 
HETATM   30  N   UNL     1     -10.895   6.473  68.377  1.00  0.00    -0.277 NA 
HETATM   31  N   UNL     1      -9.651   6.941  68.545  1.00  0.00    -0.132 NA 
ENDBRANCH  22  26
ENDBRANCH  16  20
ENDBRANCH  13  14
ENDBRANCH   9  13
BRANCH   8  32
HETATM   32  C   UNL     1     -11.388  15.399  69.239  1.00  0.00    -0.315 C  
HETATM   33  O   UNL     1     -11.843  15.218  68.122  1.00  0.00    -0.330 OA 
BRANCH  32  34
HETATM   34  O   UNL     1     -10.365  16.244  69.525  1.00  0.00    -0.266 OA 
BRANCH  34  35
HETATM   35  C   UNL     1     -10.039  17.105  68.424  1.00  0.00    -0.314 C  
HETATM   36  C   UNL     1      -9.823  18.491  69.034  1.00  0.00    -0.313 C  
BRANCH  35  37
HETATM   37  O   UNL     1      -8.792  16.774  67.810  1.00  0.00    -0.204 OA 
BRANCH  37  38
HETATM   38  C   UNL     1      -8.812  16.636  66.466  1.00  0.00    -0.279 C  
HETATM   39  O   UNL     1      -9.031  15.610  65.847  1.00  0.00    -0.320 OA 
BRANCH  38  40
HETATM   40  O   UNL     1      -8.570  17.856  65.950  1.00  0.00    -0.510 OA 
BRANCH  40  41
HETATM   41  C   UNL     1      -7.249  18.391  65.709  1.00  0.00    -0.187 C  
HETATM   42  C   UNL     1      -6.024  19.874  67.980  1.00  0.00    -0.252 C  
HETATM   43  C   UNL     1      -7.353  19.911  65.857  1.00  0.00    -0.335 C  
HETATM   44  C   UNL     1      -7.316  20.336  67.321  1.00  0.00    -0.337 C  
HETATM   45  C   UNL     1      -5.827  18.365  67.878  1.00  0.00    -0.168 C  
HETATM   46  C   UNL     1      -6.053  17.808  66.469  1.00  0.00    -0.222 C  
ENDBRANCH  40  41
ENDBRANCH  38  40
ENDBRANCH  37  38
ENDBRANCH  35  37
ENDBRANCH  34  35
ENDBRANCH  32  34
ENDBRANCH   8  32
ENDBRANCH   3   4
ENDBRANCH   2   3
TORSDOF 13
ENDMDL
MODEL       54
REMARK 921   NORMALIZED FREE ENERGY PREDICTED BY IDOCK:   -6.72 KCAL/MOL
REMARK 922        TOTAL FREE ENERGY PREDICTED BY IDOCK:  -14.28 KCAL/MOL
REMARK 923 INTER-LIGAND FREE ENERGY PREDICTED BY IDOCK:  -11.34 KCAL/MOL
REMARK 924 INTRA-LIGAND FREE ENERGY PREDICTED BY IDOCK:   -2.94 KCAL/MOL
REMARK 927      BINDING AFFINITY PREDICTED BY RF-SCORE:    0.00 PKD
ROOT
HETATM    1  C   UNL     1     -13.873  15.384  72.657  1.00  0.00    -0.625 C  
HETATM    2  C   UNL     1     -12.561  15.160  71.928  1.00  0.00    -0.344 C  
ENDROOT
BRANCH   2   3
HETATM    3  O   UNL     1     -12.866  14.848  70.565  1.00  0.00    -0.355 OA 
BRANCH   3   4
HETATM    4  C   UNL     1     -12.422  13.665  70.150  1.00  0.00    -0.239 A  
HETATM    5  N   UNL     1     -12.263  12.616  70.924  1.00  0.00    -0.290 NA 
HETATM    6  C   UNL     1     -11.791  11.639  70.097  1.00  0.00    -0.344 A  
HETATM    7  C   UNL     1     -11.719  12.065  68.756  1.00  0.00    -0.321 A  
HETATM    8  C   UNL     1     -11.363  11.138  67.745  1.00  0.00    -0.364 A  
HETATM    9  N   UNL     1     -12.027  13.416  68.853  1.00  0.00    -0.338 NA 
HETATM   10  C   UNL     1     -10.988   9.446  69.490  1.00  0.00    -0.193 A  
HETATM   11  C   UNL     1     -11.396  10.342  70.469  1.00  0.00    -0.424 A  
HETATM   12  C   UNL     1     -11.005   9.833  68.155  1.00  0.00    -0.228 A  
BRANCH   9  13
HETATM   13  C   UNL     1     -11.818  14.501  67.893  1.00  0.00    -0.336 C  
BRANCH  13  14
HETATM   14  C   UNL     1     -10.411  15.045  67.909  1.00  0.00    -0.247 A  
HETATM   15  C   UNL     1      -8.554  16.155  66.828  1.00  0.00    -0.282 A  
HETATM   16  C   UNL     1      -8.111  16.663  68.061  1.00  0.00    -0.181 A  
HETATM   17  C   UNL     1      -9.777  15.249  69.136  1.00  0.00    -0.243 A  
HETATM   18  C   UNL     1      -9.733  15.404  66.746  1.00  0.00    -0.254 A  
HETATM   19  C   UNL     1      -8.652  16.068  69.212  1.00  0.00    -0.224 A  
BRANCH  16  20
HETATM   20  C   UNL     1      -7.239  17.870  68.166  1.00  0.00    -0.231 A  
HETATM   21  C   UNL     1      -5.974  17.757  68.794  1.00  0.00    -0.187 A  
HETATM   22  C   UNL     1      -7.645  19.179  67.764  1.00  0.00    -0.282 A  
HETATM   23  C   UNL     1      -5.140  18.859  69.003  1.00  0.00    -0.191 A  
HETATM   24  C   UNL     1      -6.755  20.265  67.928  1.00  0.00    -0.319 A  
HETATM   25  C   UNL     1      -5.521  20.112  68.550  1.00  0.00    -0.256 A  
BRANCH  22  26
HETATM   26  C   UNL     1      -8.964  19.539  67.226  1.00  0.00    -0.306 A  
HETATM   27  N   UNL     1     -10.067  19.767  67.918  1.00  0.00    -0.405 NA 
HETATM   28  H   UNL     1     -10.165  19.739  68.933  1.00  0.00     0.000 HD 
HETATM   29  N   UNL     1     -11.054  20.052  67.008  1.00  0.00    -0.017 NA 
HETATM   30  N   UNL     1     -10.591  19.980  65.770  1.00  0.00    -0.421 NA 
HETATM   31  N   UNL     1      -9.308  19.616  65.902  1.00  0.00    -0.397 NA 
ENDBRANCH  22  26
ENDBRANCH  16  20
ENDBRANCH  13  14
ENDBRANCH   9  13
BRANCH   8  32
HETATM   32  C   UNL     1     -11.192  11.469  66.310  1.00  0.00    -0.222 C  
HETATM   33  O   UNL     1     -12.056  12.010  65.641  1.00  0.00    -0.508 OA 
BRANCH  32  34
HETATM   34  O   UNL     1      -9.903  11.305  65.917  1.00  0.00    -0.214 OA 
BRANCH  34  35
HETATM   35  C   UNL     1      -9.754  10.259  64.946  1.00  0.00    -0.320 C  
HETATM   36  C   UNL     1      -9.630  10.966  63.595  1.00  0.00    -0.339 C  
BRANCH  35  37
HETATM   37  O   UNL     1      -8.534   9.531  65.095  1.00  0.00    -0.133 OA 
BRANCH  37  38
HETATM   38  C   UNL     1      -8.590   8.436  65.885  1.00  0.00    -0.158 C  
HETATM   39  O   UNL     1      -8.938   7.318  65.548  1.00  0.00    -0.038 OA 
BRANCH  38  40
HETATM   40  O   UNL     1      -8.160   8.818  67.102  1.00  0.00    -0.099 OA 
BRANCH  40  41
HETATM   41  C   UNL     1      -6.938   9.552  67.342  1.00  0.00    -0.084 C  
HETATM   42  C   UNL     1      -6.242  10.003  70.200  1.00  0.00    -0.077 C  
HETATM   43  C   UNL     1      -7.326  10.825  68.097  1.00  0.00    -0.088 C  
HETATM   44  C   UNL     1      -7.520  10.558  69.586  1.00  0.00    -0.145 C  
HETATM   45  C   UNL     1      -5.770   8.729  69.506  1.00  0.00    -0.034 C  
HETATM   46  C   UNL     1      -5.743   8.833  67.978  1.00  0.00    -0.035 C  
ENDBRANCH  40  41
ENDBRANCH  38  40
ENDBRANCH  37  38
ENDBRANCH  35  37
ENDBRANCH  34  35
ENDBRANCH  32  34
ENDBRANCH   8  32
ENDBRANCH   3   4
ENDBRANCH   2   3
TORSDOF 13
ENDMDL
MODEL       55
REMARK 921   NORMALIZED FREE ENERGY PREDICTED BY IDOCK:   -6.72 KCAL/MOL
REMARK 922        TOTAL FREE ENERGY PREDICTED BY IDOCK:  -14.27 KCAL/MOL
REMARK 923 INTER-LIGAND FREE ENERGY PREDICTED BY IDOCK:  -10.58 KCAL/MOL
REMARK 924 INTRA-LIGAND FREE ENERGY PREDICTED BY IDOCK:   -3.69 KCAL/MOL
REMARK 927      BINDING AFFINITY PREDICTED BY RF-SCORE:    0.00 PKD
ROOT
HETATM    1  C   UNL     1     -11.868  12.996  69.422  1.00  0.00    -0.380 C  
HETATM    2  C   UNL     1     -12.186  11.932  70.458  1.00  0.00    -0.336 C  
ENDROOT
BRANCH   2   3
HETATM    3  O   UNL     1     -12.234  10.669  69.787  1.00  0.00    -0.305 OA 
BRANCH   3   4
HETATM    4  C   UNL     1     -11.482   9.717  70.333  1.00  0.00    -0.263 A  
HETATM    5  N   UNL     1     -11.168   9.655  71.606  1.00  0.00    -0.325 NA 
HETATM    6  C   UNL     1     -10.391   8.539  71.721  1.00  0.00    -0.284 A  
HETATM    7  C   UNL     1     -10.272   7.845  70.501  1.00  0.00    -0.198 A  
HETATM    8  C   UNL     1      -9.599   6.598  70.467  1.00  0.00    -0.177 A  
HETATM    9  N   UNL     1     -10.898   8.702  69.605  1.00  0.00    -0.201 NA 
HETATM   10  C   UNL     1      -9.033   6.890  72.843  1.00  0.00    -0.144 A  
HETATM   11  C   UNL     1      -9.746   8.081  72.883  1.00  0.00    -0.353 A  
HETATM   12  C   UNL     1      -8.992   6.155  71.664  1.00  0.00    -0.142 A  
BRANCH   9  13
HETATM   13  C   UNL     1     -10.844   8.739  68.143  1.00  0.00     0.022 C  
BRANCH  13  14
HETATM   14  C   UNL     1     -10.029   9.889  67.608  1.00  0.00    -0.212 A  
HETATM   15  C   UNL     1      -9.590  11.581  65.934  1.00  0.00    -0.254 A  
HETATM   16  C   UNL     1      -9.008  12.418  66.902  1.00  0.00    -0.212 A  
HETATM   17  C   UNL     1      -9.151  10.556  68.465  1.00  0.00    -0.154 A  
HETATM   18  C   UNL     1     -10.154  10.352  66.299  1.00  0.00    -0.292 A  
HETATM   19  C   UNL     1      -8.665  11.817  68.123  1.00  0.00    -0.168 A  
BRANCH  16  20
HETATM   20  C   UNL     1      -8.899  13.896  66.724  1.00  0.00    -0.170 A  
HETATM   21  C   UNL     1      -7.852  14.594  67.374  1.00  0.00    -0.225 A  
HETATM   22  C   UNL     1      -9.857  14.683  66.015  1.00  0.00    -0.347 A  
HETATM   23  C   UNL     1      -7.734  15.987  67.321  1.00  0.00    -0.215 A  
HETATM   24  C   UNL     1      -9.678  16.082  65.924  1.00  0.00    -0.378 A  
HETATM   25  C   UNL     1      -8.636  16.731  66.578  1.00  0.00    -0.312 A  
BRANCH  22  26
HETATM   26  C   UNL     1     -11.088  14.177  65.393  1.00  0.00    -0.321 A  
HETATM   27  N   UNL     1     -11.351  14.104  64.100  1.00  0.00    -0.608 NA 
HETATM   28  H   UNL     1     -10.732  14.379  63.337  1.00  0.00     0.000 HD 
HETATM   29  N   UNL     1     -12.617  13.586  63.981  1.00  0.00    -0.679 NA 
HETATM   30  N   UNL     1     -13.149  13.361  65.172  1.00  0.00    -0.684 NA 
HETATM   31  N   UNL     1     -12.221  13.770  66.048  1.00  0.00    -0.438 NA 
ENDBRANCH  22  26
ENDBRANCH  16  20
ENDBRANCH  13  14
ENDBRANCH   9  13
BRANCH   8  32
HETATM   32  C   UNL     1      -9.352   5.798  69.244  1.00  0.00    -0.124 C  
HETATM   33  O   UNL     1     -10.244   5.282  68.592  1.00  0.00    -0.179 OA 
BRANCH  32  34
HETATM   34  O   UNL     1      -8.063   5.910  68.834  1.00  0.00    -0.101 OA 
BRANCH  34  35
HETATM   35  C   UNL     1      -7.924   6.755  67.682  1.00  0.00    -0.113 C  
HETATM   36  C   UNL     1      -6.766   7.701  68.003  1.00  0.00    -0.063 C  
BRANCH  35  37
HETATM   37  O   UNL     1      -7.508   6.044  66.516  1.00  0.00    -0.086 OA 
BRANCH  37  38
HETATM   38  C   UNL     1      -8.422   5.940  65.527  1.00  0.00    -0.154 C  
HETATM   39  O   UNL     1      -9.128   4.975  65.292  1.00  0.00    -0.156 OA 
BRANCH  38  40
HETATM   40  O   UNL     1      -8.417   7.117  64.873  1.00  0.00    -0.059 OA 
BRANCH  40  41
HETATM   41  C   UNL     1      -7.400   7.519  63.927  1.00  0.00    -0.092 C  
HETATM   42  C   UNL     1      -7.599  10.316  62.930  1.00  0.00    -0.141 C  
HETATM   43  C   UNL     1      -8.124   7.886  62.629  1.00  0.00    -0.138 C  
HETATM   44  C   UNL     1      -8.702   9.296  62.687  1.00  0.00    -0.225 C  
HETATM   45  C   UNL     1      -6.813  10.029  64.206  1.00  0.00    -0.126 C  
HETATM   46  C   UNL     1      -6.365   8.571  64.339  1.00  0.00    -0.067 C  
ENDBRANCH  40  41
ENDBRANCH  38  40
ENDBRANCH  37  38
ENDBRANCH  35  37
ENDBRANCH  34  35
ENDBRANCH  32  34
ENDBRANCH   8  32
ENDBRANCH   3   4
ENDBRANCH   2   3
TORSDOF 13
ENDMDL
MODEL       56
REMARK 921   NORMALIZED FREE ENERGY PREDICTED BY IDOCK:   -6.71 KCAL/MOL
REMARK 922        TOTAL FREE ENERGY PREDICTED BY IDOCK:  -14.26 KCAL/MOL
REMARK 923 INTER-LIGAND FREE ENERGY PREDICTED BY IDOCK:  -10.76 KCAL/MOL
REMARK 924 INTRA-LIGAND FREE ENERGY PREDICTED BY IDOCK:   -3.50 KCAL/MOL
REMARK 927      BINDING AFFINITY PREDICTED BY RF-SCORE:    0.00 PKD
ROOT
HETATM    1  C   UNL     1     -12.163  15.151  70.283  1.00  0.00    -0.395 C  
HETATM    2  C   UNL     1     -11.860  14.819  68.832  1.00  0.00    -0.296 C  
ENDROOT
BRANCH   2   3
HETATM    3  O   UNL     1     -12.253  13.462  68.603  1.00  0.00    -0.298 OA 
BRANCH   3   4
HETATM    4  C   UNL     1     -11.717  12.900  67.523  1.00  0.00    -0.367 A  
HETATM    5  N   UNL     1     -12.258  12.919  66.327  1.00  0.00    -0.494 NA 
HETATM    6  C   UNL     1     -11.386  12.229  65.537  1.00  0.00    -0.349 A  
HETATM    7  C   UNL     1     -10.234  11.826  66.241  1.00  0.00    -0.221 A  
HETATM    8  C   UNL     1      -9.169  11.203  65.544  1.00  0.00    -0.236 A  
HETATM    9  N   UNL     1     -10.541  12.181  67.548  1.00  0.00    -0.210 NA 
HETATM   10  C   UNL     1     -10.540  11.246  63.502  1.00  0.00    -0.436 A  
HETATM   11  C   UNL     1     -11.554  11.912  64.178  1.00  0.00    -0.434 A  
HETATM   12  C   UNL     1      -9.363  10.931  64.170  1.00  0.00    -0.264 A  
BRANCH   9  13
HETATM   13  C   UNL     1      -9.927  11.758  68.807  1.00  0.00    -0.115 C  
BRANCH  13  14
HETATM   14  C   UNL     1     -10.528  10.494  69.368  1.00  0.00    -0.264 A  
HETATM   15  C   UNL     1     -10.675   8.082  69.477  1.00  0.00    -0.185 A  
HETATM   16  C   UNL     1     -11.087   8.146  70.819  1.00  0.00    -0.275 A  
HETATM   17  C   UNL     1     -11.264  10.561  70.553  1.00  0.00    -0.348 A  
HETATM   18  C   UNL     1     -10.336   9.247  68.777  1.00  0.00    -0.231 A  
HETATM   19  C   UNL     1     -11.520   9.399  71.280  1.00  0.00    -0.433 A  
BRANCH  16  20
HETATM   20  C   UNL     1     -10.932   7.000  71.763  1.00  0.00    -0.263 A  
HETATM   21  C   UNL     1     -12.053   6.182  72.047  1.00  0.00    -0.256 A  
HETATM   22  C   UNL     1      -9.735   6.729  72.492  1.00  0.00    -0.166 A  
HETATM   23  C   UNL     1     -12.006   5.144  72.982  1.00  0.00    -0.032 A  
HETATM   24  C   UNL     1      -9.695   5.633  73.383  1.00  0.00    -0.153 A  
HETATM   25  C   UNL     1     -10.820   4.854  73.635  1.00  0.00    -0.374 A  
BRANCH  22  26
HETATM   26  C   UNL     1      -8.508   7.536  72.453  1.00  0.00    -0.108 A  
HETATM   27  N   UNL     1      -7.515   7.430  71.587  1.00  0.00    -0.082 NA 
HETATM   28  H   UNL     1      -7.457   6.777  70.806  1.00  0.00     0.000 HD 
HETATM   29  N   UNL     1      -6.578   8.370  71.940  1.00  0.00    -0.067 NA 
HETATM   30  N   UNL     1      -6.960   9.035  73.019  1.00  0.00    -0.290 NA 
HETATM   31  N   UNL     1      -8.134   8.489  73.365  1.00  0.00    -0.404 NA 
ENDBRANCH  22  26
ENDBRANCH  16  20
ENDBRANCH  13  14
ENDBRANCH   9  13
BRANCH   8  32
HETATM   32  C   UNL     1      -7.933  10.679  66.171  1.00  0.00    -0.151 C  
HETATM   33  O   UNL     1      -7.795   9.514  66.504  1.00  0.00    -0.100 OA 
BRANCH  32  34
HETATM   34  O   UNL     1      -6.927  11.588  66.114  1.00  0.00     0.055 OA 
BRANCH  34  35
HETATM   35  C   UNL     1      -6.749  12.290  67.353  1.00  0.00    -0.150 C  
HETATM   36  C   UNL     1      -5.343  11.930  67.833  1.00  0.00    -0.055 C  
BRANCH  35  37
HETATM   37  O   UNL     1      -6.732  13.709  67.191  1.00  0.00    -0.164 OA 
BRANCH  37  38
HETATM   38  C   UNL     1      -7.520  14.412  68.034  1.00  0.00    -0.140 C  
HETATM   39  O   UNL     1      -7.379  14.515  69.240  1.00  0.00    -0.144 OA 
BRANCH  38  40
HETATM   40  O   UNL     1      -8.471  14.993  67.278  1.00  0.00    -0.170 OA 
BRANCH  40  41
HETATM   41  C   UNL     1      -8.233  16.102  66.382  1.00  0.00    -0.301 C  
HETATM   42  C   UNL     1      -9.002  18.785  67.415  1.00  0.00    -0.288 C  
HETATM   43  C   UNL     1      -9.595  16.740  66.096  1.00  0.00    -0.302 C  
HETATM   44  C   UNL     1     -10.025  17.674  67.222  1.00  0.00    -0.322 C  
HETATM   45  C   UNL     1      -7.604  18.244  67.700  1.00  0.00    -0.222 C  
HETATM   46  C   UNL     1      -7.162  17.138  66.737  1.00  0.00    -0.260 C  
ENDBRANCH  40  41
ENDBRANCH  38  40
ENDBRANCH  37  38
ENDBRANCH  35  37
ENDBRANCH  34  35
ENDBRANCH  32  34
ENDBRANCH   8  32
ENDBRANCH   3   4
ENDBRANCH   2   3
TORSDOF 13
ENDMDL
MODEL       57
REMARK 921   NORMALIZED FREE ENERGY PREDICTED BY IDOCK:   -6.68 KCAL/MOL
REMARK 922        TOTAL FREE ENERGY PREDICTED BY IDOCK:  -14.21 KCAL/MOL
REMARK 923 INTER-LIGAND FREE ENERGY PREDICTED BY IDOCK:  -11.12 KCAL/MOL
REMARK 924 INTRA-LIGAND FREE ENERGY PREDICTED BY IDOCK:   -3.09 KCAL/MOL
REMARK 927      BINDING AFFINITY PREDICTED BY RF-SCORE:    0.00 PKD
ROOT
HETATM    1  C   UNL     1      -7.357   9.695  62.347  1.00  0.00    -0.116 C  
HETATM    2  C   UNL     1      -8.873   9.647  62.407  1.00  0.00    -0.250 C  
ENDROOT
BRANCH   2   3
HETATM    3  O   UNL     1      -9.254   9.585  63.786  1.00  0.00    -0.209 OA 
BRANCH   3   4
HETATM    4  C   UNL     1      -9.989  10.609  64.208  1.00  0.00    -0.349 A  
HETATM    5  N   UNL     1     -11.002  11.122  63.549  1.00  0.00    -0.258 NA 
HETATM    6  C   UNL     1     -11.453  12.142  64.335  1.00  0.00    -0.350 A  
HETATM    7  C   UNL     1     -10.748  12.227  65.552  1.00  0.00    -0.279 A  
HETATM    8  C   UNL     1     -11.165  13.154  66.540  1.00  0.00    -0.339 A  
HETATM    9  N   UNL     1      -9.736  11.291  65.380  1.00  0.00    -0.222 NA 
HETATM   10  C   UNL     1     -12.859  13.997  64.969  1.00  0.00    -0.292 A  
HETATM   11  C   UNL     1     -12.485  13.045  64.029  1.00  0.00    -0.369 A  
HETATM   12  C   UNL     1     -12.229  14.023  66.207  1.00  0.00    -0.493 A  
BRANCH   9  13
HETATM   13  C   UNL     1      -8.486  11.109  66.118  1.00  0.00    -0.156 C  
BRANCH  13  14
HETATM   14  C   UNL     1      -8.597  10.103  67.236  1.00  0.00    -0.125 A  
HETATM   15  C   UNL     1      -8.481   9.515  69.580  1.00  0.00    -0.174 A  
HETATM   16  C   UNL     1      -9.438   8.502  69.395  1.00  0.00    -0.161 A  
HETATM   17  C   UNL     1      -9.257   8.896  66.998  1.00  0.00    -0.171 A  
HETATM   18  C   UNL     1      -8.112  10.351  68.519  1.00  0.00    -0.116 A  
HETATM   19  C   UNL     1      -9.691   8.116  68.069  1.00  0.00    -0.186 A  
BRANCH  16  20
HETATM   20  C   UNL     1     -10.266   7.965  70.515  1.00  0.00    -0.198 A  
HETATM   21  C   UNL     1     -11.463   8.633  70.872  1.00  0.00    -0.315 A  
HETATM   22  C   UNL     1      -9.873   6.864  71.335  1.00  0.00    -0.184 A  
HETATM   23  C   UNL     1     -12.246   8.238  71.961  1.00  0.00    -0.398 A  
HETATM   24  C   UNL     1     -10.715   6.446  72.390  1.00  0.00    -0.255 A  
HETATM   25  C   UNL     1     -11.883   7.130  72.709  1.00  0.00    -0.020 A  
BRANCH  22  26
HETATM   26  C   UNL     1      -8.606   6.127  71.228  1.00  0.00    -0.129 A  
HETATM   27  N   UNL     1      -8.379   5.042  70.508  1.00  0.00    -0.099 NA 
HETATM   28  H   UNL     1      -9.048   4.558  69.908  1.00  0.00     0.000 HD 
HETATM   29  N   UNL     1      -7.069   4.691  70.722  1.00  0.00    -0.040 NA 
HETATM   30  N   UNL     1      -6.491   5.521  71.576  1.00  0.00    -0.042 NA 
HETATM   31  N   UNL     1      -7.455   6.383  71.926  1.00  0.00    -0.092 NA 
ENDBRANCH  22  26
ENDBRANCH  16  20
ENDBRANCH  13  14
ENDBRANCH   9  13
BRANCH   8  32
HETATM   32  C   UNL     1     -10.478  13.386  67.832  1.00  0.00    -0.240 C  
HETATM   33  O   UNL     1     -10.483  12.578  68.746  1.00  0.00    -0.213 OA 
BRANCH  32  34
HETATM   34  O   UNL     1      -9.677  14.480  67.775  1.00  0.00    -0.211 OA 
BRANCH  34  35
HETATM   35  C   UNL     1      -8.836  14.606  68.932  1.00  0.00    -0.136 C  
HETATM   36  C   UNL     1      -7.405  14.421  68.423  1.00  0.00    -0.117 C  
BRANCH  35  37
HETATM   37  O   UNL     1      -8.860  15.917  69.497  1.00  0.00    -0.242 OA 
BRANCH  37  38
HETATM   38  C   UNL     1     -10.083  16.464  69.675  1.00  0.00    -0.149 C  
HETATM   39  O   UNL     1     -10.520  17.454  69.116  1.00  0.00    -0.341 OA 
BRANCH  38  40
HETATM   40  O   UNL     1     -10.727  15.687  70.566  1.00  0.00    -0.320 OA 
BRANCH  40  41
HETATM   41  C   UNL     1     -12.128  15.819  70.899  1.00  0.00    -0.416 C  
HETATM   42  C   UNL     1     -13.268  13.632  72.565  1.00  0.00    -0.578 C  
HETATM   43  C   UNL     1     -12.841  14.606  70.297  1.00  0.00    -0.254 C  
HETATM   44  C   UNL     1     -12.693  13.371  71.180  1.00  0.00    -0.411 C  
HETATM   45  C   UNL     1     -12.620  14.834  73.247  1.00  0.00    -0.554 C  
HETATM   46  C   UNL     1     -12.532  16.076  72.355  1.00  0.00    -0.549 C  
ENDBRANCH  40  41
ENDBRANCH  38  40
ENDBRANCH  37  38
ENDBRANCH  35  37
ENDBRANCH  34  35
ENDBRANCH  32  34
ENDBRANCH   8  32
ENDBRANCH   3   4
ENDBRANCH   2   3
TORSDOF 13
ENDMDL
MODEL       58
REMARK 921   NORMALIZED FREE ENERGY PREDICTED BY IDOCK:   -6.68 KCAL/MOL
REMARK 922        TOTAL FREE ENERGY PREDICTED BY IDOCK:  -14.21 KCAL/MOL
REMARK 923 INTER-LIGAND FREE ENERGY PREDICTED BY IDOCK:  -11.41 KCAL/MOL
REMARK 924 INTRA-LIGAND FREE ENERGY PREDICTED BY IDOCK:   -2.80 KCAL/MOL
REMARK 927      BINDING AFFINITY PREDICTED BY RF-SCORE:    0.00 PKD
ROOT
HETATM    1  C   UNL     1      -7.357   9.695  62.347  1.00  0.00    -0.116 C  
HETATM    2  C   UNL     1      -8.873   9.647  62.407  1.00  0.00    -0.250 C  
ENDROOT
BRANCH   2   3
HETATM    3  O   UNL     1      -9.254   9.585  63.786  1.00  0.00    -0.209 OA 
BRANCH   3   4
HETATM    4  C   UNL     1      -9.989  10.609  64.208  1.00  0.00    -0.349 A  
HETATM    5  N   UNL     1     -11.002  11.122  63.549  1.00  0.00    -0.258 NA 
HETATM    6  C   UNL     1     -11.453  12.142  64.335  1.00  0.00    -0.350 A  
HETATM    7  C   UNL     1     -10.748  12.227  65.552  1.00  0.00    -0.279 A  
HETATM    8  C   UNL     1     -11.165  13.154  66.540  1.00  0.00    -0.339 A  
HETATM    9  N   UNL     1      -9.736  11.291  65.380  1.00  0.00    -0.222 NA 
HETATM   10  C   UNL     1     -12.859  13.997  64.969  1.00  0.00    -0.292 A  
HETATM   11  C   UNL     1     -12.485  13.045  64.029  1.00  0.00    -0.369 A  
HETATM   12  C   UNL     1     -12.229  14.023  66.207  1.00  0.00    -0.493 A  
BRANCH   9  13
HETATM   13  C   UNL     1      -8.486  11.109  66.118  1.00  0.00    -0.156 C  
BRANCH  13  14
HETATM   14  C   UNL     1      -8.597  10.103  67.236  1.00  0.00    -0.125 A  
HETATM   15  C   UNL     1      -9.875   8.522  68.548  1.00  0.00    -0.186 A  
HETATM   16  C   UNL     1      -8.718   7.768  68.806  1.00  0.00    -0.128 A  
HETATM   17  C   UNL     1      -7.431   9.564  67.782  1.00  0.00    -0.084 A  
HETATM   18  C   UNL     1      -9.824   9.647  67.714  1.00  0.00    -0.192 A  
HETATM   19  C   UNL     1      -7.490   8.396  68.541  1.00  0.00    -0.094 A  
BRANCH  16  20
HETATM   20  C   UNL     1      -8.767   6.326  69.190  1.00  0.00    -0.123 A  
HETATM   21  C   UNL     1      -8.248   5.356  68.298  1.00  0.00    -0.095 A  
HETATM   22  C   UNL     1      -9.409   5.841  70.369  1.00  0.00    -0.186 A  
HETATM   23  C   UNL     1      -8.334   3.983  68.551  1.00  0.00    -0.097 A  
HETATM   24  C   UNL     1      -9.425   4.452  70.632  1.00  0.00    -0.242 A  
HETATM   25  C   UNL     1      -8.904   3.531  69.730  1.00  0.00    -0.151 A  
BRANCH  22  26
HETATM   26  C   UNL     1     -10.132   6.662  71.350  1.00  0.00    -0.190 A  
HETATM   27  N   UNL     1      -9.632   7.220  72.439  1.00  0.00    -0.148 NA 
HETATM   28  H   UNL     1      -8.664   7.173  72.758  1.00  0.00     0.000 HD 
HETATM   29  N   UNL     1     -10.667   7.876  73.059  1.00  0.00    -0.376 NA 
HETATM   30  N   UNL     1     -11.798   7.714  72.390  1.00  0.00    -0.306 NA 
HETATM   31  N   UNL     1     -11.477   6.923  71.356  1.00  0.00    -0.267 NA 
ENDBRANCH  22  26
ENDBRANCH  16  20
ENDBRANCH  13  14
ENDBRANCH   9  13
BRANCH   8  32
HETATM   32  C   UNL     1     -10.478  13.386  67.832  1.00  0.00    -0.240 C  
HETATM   33  O   UNL     1     -10.483  12.578  68.746  1.00  0.00    -0.213 OA 
BRANCH  32  34
HETATM   34  O   UNL     1      -9.677  14.480  67.775  1.00  0.00    -0.211 OA 
BRANCH  34  35
HETATM   35  C   UNL     1      -8.836  14.606  68.932  1.00  0.00    -0.136 C  
HETATM   36  C   UNL     1      -7.405  14.421  68.423  1.00  0.00    -0.117 C  
BRANCH  35  37
HETATM   37  O   UNL     1      -8.860  15.917  69.497  1.00  0.00    -0.242 OA 
BRANCH  37  38
HETATM   38  C   UNL     1     -10.083  16.464  69.675  1.00  0.00    -0.149 C  
HETATM   39  O   UNL     1     -10.520  17.454  69.116  1.00  0.00    -0.341 OA 
BRANCH  38  40
HETATM   40  O   UNL     1     -10.727  15.687  70.566  1.00  0.00    -0.320 OA 
BRANCH  40  41
HETATM   41  C   UNL     1     -12.128  15.819  70.899  1.00  0.00    -0.416 C  
HETATM   42  C   UNL     1     -13.268  13.632  72.565  1.00  0.00    -0.578 C  
HETATM   43  C   UNL     1     -12.841  14.606  70.297  1.00  0.00    -0.254 C  
HETATM   44  C   UNL     1     -12.693  13.371  71.180  1.00  0.00    -0.411 C  
HETATM   45  C   UNL     1     -12.620  14.834  73.247  1.00  0.00    -0.554 C  
HETATM   46  C   UNL     1     -12.532  16.076  72.355  1.00  0.00    -0.549 C  
ENDBRANCH  40  41
ENDBRANCH  38  40
ENDBRANCH  37  38
ENDBRANCH  35  37
ENDBRANCH  34  35
ENDBRANCH  32  34
ENDBRANCH   8  32
ENDBRANCH   3   4
ENDBRANCH   2   3
TORSDOF 13
ENDMDL
MODEL       59
REMARK 921   NORMALIZED FREE ENERGY PREDICTED BY IDOCK:   -6.66 KCAL/MOL
REMARK 922        TOTAL FREE ENERGY PREDICTED BY IDOCK:  -14.18 KCAL/MOL
REMARK 923 INTER-LIGAND FREE ENERGY PREDICTED BY IDOCK:  -11.40 KCAL/MOL
REMARK 924 INTRA-LIGAND FREE ENERGY PREDICTED BY IDOCK:   -2.78 KCAL/MOL
REMARK 927      BINDING AFFINITY PREDICTED BY RF-SCORE:    0.00 PKD
ROOT
HETATM    1  C   UNL     1      -7.444   8.590  64.690  1.00  0.00    -0.096 C  
HETATM    2  C   UNL     1      -8.715   9.075  64.015  1.00  0.00    -0.086 C  
ENDROOT
BRANCH   2   3
HETATM    3  O   UNL     1      -9.623   9.491  65.040  1.00  0.00    -0.268 OA 
BRANCH   3   4
HETATM    4  C   UNL     1     -10.106  10.722  64.892  1.00  0.00    -0.322 A  
HETATM    5  N   UNL     1     -10.956  11.082  63.958  1.00  0.00    -0.205 NA 
HETATM    6  C   UNL     1     -11.170  12.412  64.172  1.00  0.00    -0.376 A  
HETATM    7  C   UNL     1     -10.491  12.883  65.313  1.00  0.00    -0.296 A  
HETATM    8  C   UNL     1     -10.698  14.215  65.752  1.00  0.00    -0.301 A  
HETATM    9  N   UNL     1      -9.724  11.785  65.682  1.00  0.00    -0.232 NA 
HETATM   10  C   UNL     1     -12.114  14.597  63.777  1.00  0.00     0.103 A  
HETATM   11  C   UNL     1     -11.955  13.274  63.387  1.00  0.00    -0.491 A  
HETATM   12  C   UNL     1     -11.522  15.041  64.953  1.00  0.00    -0.399 A  
BRANCH   9  13
HETATM   13  C   UNL     1      -8.567  11.702  66.574  1.00  0.00    -0.164 C  
BRANCH  13  14
HETATM   14  C   UNL     1      -8.907  11.157  67.938  1.00  0.00    -0.136 A  
HETATM   15  C   UNL     1     -10.518  10.526  69.629  1.00  0.00    -0.257 A  
HETATM   16  C   UNL     1      -9.641   9.550  70.132  1.00  0.00    -0.290 A  
HETATM   17  C   UNL     1      -7.933  10.455  68.650  1.00  0.00    -0.115 A  
HETATM   18  C   UNL     1     -10.177  11.280  68.499  1.00  0.00    -0.214 A  
HETATM   19  C   UNL     1      -8.301   9.643  69.722  1.00  0.00    -0.183 A  
BRANCH  16  20
HETATM   20  C   UNL     1     -10.113   8.378  70.927  1.00  0.00    -0.234 A  
HETATM   21  C   UNL     1     -10.410   8.551  72.301  1.00  0.00    -0.402 A  
HETATM   22  C   UNL     1     -10.187   7.048  70.413  1.00  0.00    -0.209 A  
HETATM   23  C   UNL     1     -10.777   7.485  73.129  1.00  0.00    -0.452 A  
HETATM   24  C   UNL     1     -10.623   6.000  71.255  1.00  0.00    -0.302 A  
HETATM   25  C   UNL     1     -10.905   6.211  72.601  1.00  0.00    -0.279 A  
BRANCH  22  26
HETATM   26  C   UNL     1      -9.789   6.629  69.063  1.00  0.00    -0.144 A  
HETATM   27  N   UNL     1      -9.120   5.536  68.736  1.00  0.00    -0.116 NA 
HETATM   28  H   UNL     1      -8.789   4.813  69.374  1.00  0.00     0.000 HD 
HETATM   29  N   UNL     1      -8.958   5.563  67.373  1.00  0.00    -0.109 NA 
HETATM   30  N   UNL     1      -9.490   6.659  66.855  1.00  0.00    -0.149 NA 
HETATM   31  N   UNL     1      -9.964   7.343  67.906  1.00  0.00    -0.158 NA 
ENDBRANCH  22  26
ENDBRANCH  16  20
ENDBRANCH  13  14
ENDBRANCH   9  13
BRANCH   8  32
HETATM   32  C   UNL     1     -10.003  14.852  66.896  1.00  0.00    -0.242 C  
HETATM   33  O   UNL     1      -8.793  14.817  67.045  1.00  0.00    -0.211 OA 
BRANCH  32  34
HETATM   34  O   UNL     1     -10.844  15.648  67.603  1.00  0.00    -0.296 OA 
BRANCH  34  35
HETATM   35  C   UNL     1     -10.189  16.814  68.123  1.00  0.00    -0.301 C  
HETATM   36  C   UNL     1     -10.849  18.004  67.426  1.00  0.00    -0.236 C  
BRANCH  35  37
HETATM   37  O   UNL     1     -10.437  17.017  69.515  1.00  0.00    -0.295 OA 
BRANCH  37  38
HETATM   38  C   UNL     1     -10.570  15.900  70.263  1.00  0.00    -0.250 C  
HETATM   39  O   UNL     1      -9.755  14.999  70.369  1.00  0.00     0.202 OA 
BRANCH  38  40
HETATM   40  O   UNL     1     -11.760  15.991  70.885  1.00  0.00    -0.388 OA 
BRANCH  40  41
HETATM   41  C   UNL     1     -12.950  15.280  70.475  1.00  0.00    -0.333 C  
HETATM   42  C   UNL     1     -13.634  12.873  72.087  1.00  0.00    -0.589 C  
HETATM   43  C   UNL     1     -12.509  13.868  70.083  1.00  0.00    -0.355 C  
HETATM   44  C   UNL     1     -12.332  12.974  71.306  1.00  0.00    -0.198 C  
HETATM   45  C   UNL     1     -14.160  14.239  72.519  1.00  0.00    -0.437 C  
HETATM   46  C   UNL     1     -14.177  15.278  71.394  1.00  0.00    -0.589 C  
ENDBRANCH  40  41
ENDBRANCH  38  40
ENDBRANCH  37  38
ENDBRANCH  35  37
ENDBRANCH  34  35
ENDBRANCH  32  34
ENDBRANCH   8  32
ENDBRANCH   3   4
ENDBRANCH   2   3
TORSDOF 13
ENDMDL
MODEL       60
REMARK 921   NORMALIZED FREE ENERGY PREDICTED BY IDOCK:   -6.63 KCAL/MOL
REMARK 922        TOTAL FREE ENERGY PREDICTED BY IDOCK:  -14.12 KCAL/MOL
REMARK 923 INTER-LIGAND FREE ENERGY PREDICTED BY IDOCK:  -11.04 KCAL/MOL
REMARK 924 INTRA-LIGAND FREE ENERGY PREDICTED BY IDOCK:   -3.09 KCAL/MOL
REMARK 927      BINDING AFFINITY PREDICTED BY RF-SCORE:    0.00 PKD
ROOT
HETATM    1  C   UNL     1      -9.755   7.539  72.978  1.00  0.00    -0.278 C  
HETATM    2  C   UNL     1      -8.426   8.202  72.662  1.00  0.00    -0.190 C  
ENDROOT
BRANCH   2   3
HETATM    3  O   UNL     1      -8.135   7.963  71.281  1.00  0.00    -0.091 OA 
BRANCH   3   4
HETATM    4  C   UNL     1      -7.637   9.008  70.626  1.00  0.00    -0.119 A  
HETATM    5  N   UNL     1      -6.641   9.749  71.053  1.00  0.00    -0.288 NA 
HETATM    6  C   UNL     1      -6.469  10.697  70.086  1.00  0.00    -0.152 A  
HETATM    7  C   UNL     1      -7.335  10.503  68.991  1.00  0.00    -0.103 A  
HETATM    8  C   UNL     1      -7.209  11.325  67.844  1.00  0.00    -0.086 A  
HETATM    9  N   UNL     1      -8.151   9.469  69.433  1.00  0.00    -0.106 NA 
HETATM   10  C   UNL     1      -5.476  12.619  69.018  1.00  0.00    -0.068 A  
HETATM   11  C   UNL     1      -5.564  11.771  70.114  1.00  0.00    -0.131 A  
HETATM   12  C   UNL     1      -6.263  12.375  67.898  1.00  0.00    -0.093 A  
BRANCH   9  13
HETATM   13  C   UNL     1      -9.444   9.008  68.925  1.00  0.00    -0.151 C  
BRANCH  13  14
HETATM   14  C   UNL     1     -10.604   9.840  69.408  1.00  0.00    -0.248 A  
HETATM   15  C   UNL     1     -11.954  10.766  71.190  1.00  0.00    -0.361 A  
HETATM   16  C   UNL     1     -12.278  11.879  70.396  1.00  0.00    -0.399 A  
HETATM   17  C   UNL     1     -11.205  10.742  68.528  1.00  0.00    -0.340 A  
HETATM   18  C   UNL     1     -11.071   9.785  70.721  1.00  0.00    -0.415 A  
HETATM   19  C   UNL     1     -12.016  11.764  69.022  1.00  0.00    -0.341 A  
BRANCH  16  20
HETATM   20  C   UNL     1     -12.727  13.178  70.979  1.00  0.00    -0.361 A  
HETATM   21  C   UNL     1     -13.740  13.178  71.969  1.00  0.00    -0.486 A  
HETATM   22  C   UNL     1     -12.270  14.451  70.523  1.00  0.00    -0.411 A  
HETATM   23  C   UNL     1     -14.269  14.359  72.499  1.00  0.00    -0.323 A  
HETATM   24  C   UNL     1     -12.776  15.628  71.122  1.00  0.00    -0.525 A  
HETATM   25  C   UNL     1     -13.772  15.585  72.092  1.00  0.00    -0.614 A  
BRANCH  22  26
HETATM   26  C   UNL     1     -11.335  14.678  69.413  1.00  0.00    -0.284 A  
HETATM   27  N   UNL     1     -10.028  14.477  69.423  1.00  0.00    -0.423 NA 
HETATM   28  H   UNL     1      -9.473  14.123  70.202  1.00  0.00     0.000 HD 
HETATM   29  N   UNL     1      -9.562  14.836  68.183  1.00  0.00    -0.205 NA 
HETATM   30  N   UNL     1     -10.547  15.277  67.417  1.00  0.00    -0.276 NA 
HETATM   31  N   UNL     1     -11.639  15.224  68.193  1.00  0.00    -0.345 NA 
ENDBRANCH  22  26
ENDBRANCH  16  20
ENDBRANCH  13  14
ENDBRANCH   9  13
BRANCH   8  32
HETATM   32  C   UNL     1      -8.091  11.268  66.655  1.00  0.00    -0.160 C  
HETATM   33  O   UNL     1      -9.086  11.960  66.527  1.00  0.00    -0.204 OA 
BRANCH  32  34
HETATM   34  O   UNL     1      -7.531  10.533  65.660  1.00  0.00    -0.148 OA 
BRANCH  34  35
HETATM   35  C   UNL     1      -8.261   9.327  65.391  1.00  0.00    -0.127 C  
HETATM   36  C   UNL     1      -8.855   9.509  63.993  1.00  0.00    -0.243 C  
BRANCH  35  37
HETATM   37  O   UNL     1      -7.418   8.178  65.287  1.00  0.00    -0.074 OA 
BRANCH  37  38
HETATM   38  C   UNL     1      -8.049   6.986  65.210  1.00  0.00    -0.134 C  
HETATM   39  O   UNL     1      -8.051   6.228  64.256  1.00  0.00    -0.123 OA 
BRANCH  38  40
HETATM   40  O   UNL     1      -8.648   6.790  66.400  1.00  0.00    -0.119 OA 
BRANCH  40  41
HETATM   41  C   UNL     1      -9.579   5.719  66.677  1.00  0.00    -0.152 C  
HETATM   42  C   UNL     1     -10.222   5.279  69.549  1.00  0.00    -0.338 C  
HETATM   43  C   UNL     1      -8.837   4.700  67.544  1.00  0.00    -0.112 C  
HETATM   44  C   UNL     1      -8.807   5.124  69.009  1.00  0.00    -0.108 C  
HETATM   45  C   UNL     1     -11.047   6.276  68.741  1.00  0.00    -0.424 C  
HETATM   46  C   UNL     1     -10.969   6.057  67.227  1.00  0.00    -0.356 C  
ENDBRANCH  40  41
ENDBRANCH  38  40
ENDBRANCH  37  38
ENDBRANCH  35  37
ENDBRANCH  34  35
ENDBRANCH  32  34
ENDBRANCH   8  32
ENDBRANCH   3   4
ENDBRANCH   2   3
TORSDOF 13
ENDMDL
MODEL       61
REMARK 921   NORMALIZED FREE ENERGY PREDICTED BY IDOCK:   -6.63 KCAL/MOL
REMARK 922        TOTAL FREE ENERGY PREDICTED BY IDOCK:  -14.12 KCAL/MOL
REMARK 923 INTER-LIGAND FREE ENERGY PREDICTED BY IDOCK:  -10.62 KCAL/MOL
REMARK 924 INTRA-LIGAND FREE ENERGY PREDICTED BY IDOCK:   -3.49 KCAL/MOL
REMARK 927      BINDING AFFINITY PREDICTED BY RF-SCORE:    0.00 PKD
ROOT
HETATM    1  C   UNL     1     -12.199   8.302  72.385  1.00  0.00    -0.412 C  
HETATM    2  C   UNL     1     -13.284   9.329  72.117  1.00  0.00    -0.461 C  
ENDROOT
BRANCH   2   3
HETATM    3  O   UNL     1     -12.874  10.115  70.993  1.00  0.00    -0.346 OA 
BRANCH   3   4
HETATM    4  C   UNL     1     -12.802  11.423  71.223  1.00  0.00    -0.379 A  
HETATM    5  N   UNL     1     -13.141  12.001  72.352  1.00  0.00    -0.165 NA 
HETATM    6  C   UNL     1     -12.916  13.331  72.147  1.00  0.00    -0.292 A  
HETATM    7  C   UNL     1     -12.356  13.587  70.880  1.00  0.00    -0.356 A  
HETATM    8  C   UNL     1     -11.948  14.902  70.547  1.00  0.00    -0.365 A  
HETATM    9  N   UNL     1     -12.406  12.338  70.271  1.00  0.00    -0.239 NA 
HETATM   10  C   UNL     1     -12.852  15.679  72.698  1.00  0.00    -0.541 A  
HETATM   11  C   UNL     1     -13.194  14.378  73.042  1.00  0.00    -0.547 A  
HETATM   12  C   UNL     1     -12.214  15.923  71.488  1.00  0.00    -0.525 A  
BRANCH   9  13
HETATM   13  C   UNL     1     -12.283  11.974  68.860  1.00  0.00     0.020 C  
BRANCH  13  14
HETATM   14  C   UNL     1     -11.129  11.043  68.584  1.00  0.00    -0.294 A  
HETATM   15  C   UNL     1     -10.177   9.112  67.481  1.00  0.00    -0.304 A  
HETATM   16  C   UNL     1      -8.901   9.702  67.503  1.00  0.00    -0.129 A  
HETATM   17  C   UNL     1      -9.835  11.451  68.916  1.00  0.00    -0.127 A  
HETATM   18  C   UNL     1     -11.294   9.808  67.961  1.00  0.00     0.101 A  
HETATM   19  C   UNL     1      -8.734  10.799  68.363  1.00  0.00    -0.142 A  
BRANCH  16  20
HETATM   20  C   UNL     1      -7.815   9.302  66.560  1.00  0.00    -0.100 A  
HETATM   21  C   UNL     1      -7.366  10.232  65.591  1.00  0.00    -0.149 A  
HETATM   22  C   UNL     1      -7.261   7.988  66.499  1.00  0.00    -0.080 A  
HETATM   23  C   UNL     1      -6.412   9.903  64.622  1.00  0.00    -0.119 A  
HETATM   24  C   UNL     1      -6.252   7.701  65.551  1.00  0.00    -0.038 A  
HETATM   25  C   UNL     1      -5.839   8.642  64.615  1.00  0.00    -0.064 A  
BRANCH  22  26
HETATM   26  C   UNL     1      -7.686   6.841  67.313  1.00  0.00    -0.109 A  
HETATM   27  N   UNL     1      -7.159   6.443  68.458  1.00  0.00    -0.080 NA 
HETATM   28  H   UNL     1      -6.383   6.880  68.956  1.00  0.00     0.000 HD 
HETATM   29  N   UNL     1      -7.859   5.328  68.850  1.00  0.00    -0.082 NA 
HETATM   30  N   UNL     1      -8.788   5.017  67.961  1.00  0.00    -0.102 NA 
HETATM   31  N   UNL     1      -8.651   5.925  66.985  1.00  0.00    -0.111 NA 
ENDBRANCH  22  26
ENDBRANCH  16  20
ENDBRANCH  13  14
ENDBRANCH   9  13
BRANCH   8  32
HETATM   32  C   UNL     1     -11.403  15.316  69.232  1.00  0.00    -0.298 C  
HETATM   33  O   UNL     1     -12.104  15.553  68.263  1.00  0.00    -0.163 OA 
BRANCH  32  34
HETATM   34  O   UNL     1     -10.080  15.612  69.317  1.00  0.00    -0.222 OA 
BRANCH  34  35
HETATM   35  C   UNL     1      -9.595  16.296  68.153  1.00  0.00    -0.219 C  
HETATM   36  C   UNL     1      -9.277  17.719  68.614  1.00  0.00    -0.264 C  
BRANCH  35  37
HETATM   37  O   UNL     1      -8.352  15.776  67.680  1.00  0.00    -0.150 OA 
BRANCH  37  38
HETATM   38  C   UNL     1      -8.387  14.521  67.178  1.00  0.00    -0.202 C  
HETATM   39  O   UNL     1      -7.464  13.725  67.155  1.00  0.00    -0.092 OA 
BRANCH  38  40
HETATM   40  O   UNL     1      -9.642  14.318  66.737  1.00  0.00    -0.259 OA 
BRANCH  40  41
HETATM   41  C   UNL     1     -10.021  14.290  65.342  1.00  0.00    -0.303 C  
HETATM   42  C   UNL     1     -12.435  12.675  64.692  1.00  0.00    -0.538 C  
HETATM   43  C   UNL     1      -9.943  12.829  64.891  1.00  0.00    -0.159 C  
HETATM   44  C   UNL     1     -11.188  12.048  65.299  1.00  0.00    -0.374 C  
HETATM   45  C   UNL     1     -12.597  14.142  65.082  1.00  0.00    -0.426 C  
HETATM   46  C   UNL     1     -11.322  14.971  64.903  1.00  0.00    -0.419 C  
ENDBRANCH  40  41
ENDBRANCH  38  40
ENDBRANCH  37  38
ENDBRANCH  35  37
ENDBRANCH  34  35
ENDBRANCH  32  34
ENDBRANCH   8  32
ENDBRANCH   3   4
ENDBRANCH   2   3
TORSDOF 13
ENDMDL
MODEL       62
REMARK 921   NORMALIZED FREE ENERGY PREDICTED BY IDOCK:   -6.62 KCAL/MOL
REMARK 922        TOTAL FREE ENERGY PREDICTED BY IDOCK:  -14.10 KCAL/MOL
REMARK 923 INTER-LIGAND FREE ENERGY PREDICTED BY IDOCK:  -10.41 KCAL/MOL
REMARK 924 INTRA-LIGAND FREE ENERGY PREDICTED BY IDOCK:   -3.69 KCAL/MOL
REMARK 927      BINDING AFFINITY PREDICTED BY RF-SCORE:    0.00 PKD
ROOT
HETATM    1  C   UNL     1      -7.859  15.688  67.268  1.00  0.00    -0.230 C  
HETATM    2  C   UNL     1      -9.002  15.627  68.265  1.00  0.00    -0.181 C  
ENDROOT
BRANCH   2   3
HETATM    3  O   UNL     1      -9.378  14.254  68.415  1.00  0.00    -0.199 OA 
BRANCH   3   4
HETATM    4  C   UNL     1      -9.932  13.706  67.337  1.00  0.00    -0.234 A  
HETATM    5  N   UNL     1     -11.016  14.153  66.747  1.00  0.00    -0.296 NA 
HETATM    6  C   UNL     1     -11.225  13.299  65.704  1.00  0.00    -0.285 A  
HETATM    7  C   UNL     1     -10.207  12.331  65.596  1.00  0.00    -0.261 A  
HETATM    8  C   UNL     1     -10.203  11.438  64.496  1.00  0.00    -0.352 A  
HETATM    9  N   UNL     1      -9.452  12.560  66.740  1.00  0.00    -0.225 NA 
HETATM   10  C   UNL     1     -12.344  12.403  63.763  1.00  0.00    -0.625 A  
HETATM   11  C   UNL     1     -12.309  13.315  64.809  1.00  0.00    -0.454 A  
HETATM   12  C   UNL     1     -11.293  11.508  63.598  1.00  0.00    -0.412 A  
BRANCH   9  13
HETATM   13  C   UNL     1      -8.455  11.712  67.395  1.00  0.00    -0.150 C  
BRANCH  13  14
HETATM   14  C   UNL     1      -9.037  10.843  68.481  1.00  0.00    -0.173 A  
HETATM   15  C   UNL     1     -10.660   9.230  69.267  1.00  0.00    -0.234 A  
HETATM   16  C   UNL     1      -9.740   8.727  70.202  1.00  0.00    -0.188 A  
HETATM   17  C   UNL     1      -8.276  10.586  69.624  1.00  0.00    -0.031 A  
HETATM   18  C   UNL     1     -10.288  10.239  68.369  1.00  0.00    -0.202 A  
HETATM   19  C   UNL     1      -8.614   9.525  70.462  1.00  0.00    -0.231 A  
BRANCH  16  20
HETATM   20  C   UNL     1      -9.850   7.355  70.780  1.00  0.00    -0.178 A  
HETATM   21  C   UNL     1      -8.799   6.430  70.568  1.00  0.00    -0.144 A  
HETATM   22  C   UNL     1     -11.011   6.870  71.456  1.00  0.00    -0.268 A  
HETATM   23  C   UNL     1      -8.869   5.103  71.007  1.00  0.00    -0.151 A  
HETATM   24  C   UNL     1     -11.029   5.544  71.945  1.00  0.00    -0.264 A  
HETATM   25  C   UNL     1      -9.975   4.665  71.715  1.00  0.00    -0.260 A  
BRANCH  22  26
HETATM   26  C   UNL     1     -12.260   7.617  71.654  1.00  0.00    -0.317 A  
HETATM   27  N   UNL     1     -13.398   7.447  71.001  1.00  0.00    -0.608 NA 
HETATM   28  H   UNL     1     -13.582   6.764  70.267  1.00  0.00     0.000 HD 
HETATM   29  N   UNL     1     -14.284   8.369  71.503  1.00  0.00    -0.412 NA 
HETATM   30  N   UNL     1     -13.711   9.118  72.432  1.00  0.00    -0.484 NA 
HETATM   31  N   UNL     1     -12.444   8.684  72.494  1.00  0.00    -0.366 NA 
ENDBRANCH  22  26
ENDBRANCH  16  20
ENDBRANCH  13  14
ENDBRANCH   9  13
BRANCH   8  32
HETATM   32  C   UNL     1      -9.229  10.339  64.295  1.00  0.00    -0.257 C  
HETATM   33  O   UNL     1      -8.317  10.394  63.488  1.00  0.00    -0.166 OA 
BRANCH  32  34
HETATM   34  O   UNL     1      -9.347   9.394  65.262  1.00  0.00    -0.244 OA 
BRANCH  34  35
HETATM   35  C   UNL     1      -8.361   8.358  65.140  1.00  0.00    -0.167 C  
HETATM   36  C   UNL     1      -7.368   8.598  66.278  1.00  0.00    -0.086 C  
BRANCH  35  37
HETATM   37  O   UNL     1      -8.891   7.054  65.381  1.00  0.00    -0.039 OA 
BRANCH  37  38
HETATM   38  C   UNL     1      -8.250   6.031  64.773  1.00  0.00    -0.123 C  
HETATM   39  O   UNL     1      -7.678   6.073  63.698  1.00  0.00    -0.087 OA 
BRANCH  38  40
HETATM   40  O   UNL     1      -8.345   4.972  65.598  1.00  0.00    -0.113 OA 
BRANCH  40  41
HETATM   41  C   UNL     1      -8.422   5.067  67.039  1.00  0.00    -0.106 C  
HETATM   42  C   UNL     1      -8.213   2.490  68.514  1.00  0.00    -0.073 C  
HETATM   43  C   UNL     1      -9.648   4.258  67.471  1.00  0.00    -0.217 C  
HETATM   44  C   UNL     1      -9.343   2.765  67.532  1.00  0.00    -0.201 C  
HETATM   45  C   UNL     1      -6.943   3.261  68.169  1.00  0.00    -0.050 C  
HETATM   46  C   UNL     1      -7.181   4.746  67.880  1.00  0.00    -0.066 C  
ENDBRANCH  40  41
ENDBRANCH  38  40
ENDBRANCH  37  38
ENDBRANCH  35  37
ENDBRANCH  34  35
ENDBRANCH  32  34
ENDBRANCH   8  32
ENDBRANCH   3   4
ENDBRANCH   2   3
TORSDOF 13
ENDMDL
MODEL       63
REMARK 921   NORMALIZED FREE ENERGY PREDICTED BY IDOCK:   -6.61 KCAL/MOL
REMARK 922        TOTAL FREE ENERGY PREDICTED BY IDOCK:  -14.08 KCAL/MOL
REMARK 923 INTER-LIGAND FREE ENERGY PREDICTED BY IDOCK:  -12.66 KCAL/MOL
REMARK 924 INTRA-LIGAND FREE ENERGY PREDICTED BY IDOCK:   -1.42 KCAL/MOL
REMARK 927      BINDING AFFINITY PREDICTED BY RF-SCORE:    0.00 PKD
ROOT
HETATM    1  C   UNL     1     -12.433  11.949  63.485  1.00  0.00    -0.609 C  
HETATM    2  C   UNL     1     -10.960  12.093  63.143  1.00  0.00    -0.177 C  
ENDROOT
BRANCH   2   3
HETATM    3  O   UNL     1     -10.260  12.411  64.350  1.00  0.00    -0.315 OA 
BRANCH   3   4
HETATM    4  C   UNL     1     -10.235  11.437  65.255  1.00  0.00    -0.270 A  
HETATM    5  N   UNL     1      -9.617  10.290  65.098  1.00  0.00    -0.252 NA 
HETATM    6  C   UNL     1      -9.856   9.601  66.252  1.00  0.00    -0.256 A  
HETATM    7  C   UNL     1     -10.585  10.365  67.185  1.00  0.00    -0.261 A  
HETATM    8  C   UNL     1     -10.817   9.848  68.484  1.00  0.00    -0.257 A  
HETATM    9  N   UNL     1     -10.908  11.503  66.456  1.00  0.00    -0.278 NA 
HETATM   10  C   UNL     1      -9.739   7.748  67.792  1.00  0.00    -0.186 A  
HETATM   11  C   UNL     1      -9.462   8.284  66.541  1.00  0.00    -0.284 A  
HETATM   12  C   UNL     1     -10.375   8.531  68.748  1.00  0.00    -0.233 A  
BRANCH   9  13
HETATM   13  C   UNL     1     -11.911  12.536  66.719  1.00  0.00    -0.346 C  
BRANCH  13  14
HETATM   14  C   UNL     1     -11.322  13.806  67.280  1.00  0.00    -0.343 A  
HETATM   15  C   UNL     1     -10.261  15.043  69.068  1.00  0.00    -0.242 A  
HETATM   16  C   UNL     1      -9.623  15.882  68.138  1.00  0.00    -0.208 A  
HETATM   17  C   UNL     1     -10.981  14.839  66.406  1.00  0.00    -0.331 A  
HETATM   18  C   UNL     1     -11.054  13.972  68.638  1.00  0.00    -0.286 A  
HETATM   19  C   UNL     1     -10.123  15.854  66.826  1.00  0.00    -0.276 A  
BRANCH  16  20
HETATM   20  C   UNL     1      -8.384  16.648  68.464  1.00  0.00    -0.228 A  
HETATM   21  C   UNL     1      -7.382  16.035  69.256  1.00  0.00    -0.231 A  
HETATM   22  C   UNL     1      -8.182  18.017  68.113  1.00  0.00    -0.275 A  
HETATM   23  C   UNL     1      -6.234  16.717  69.671  1.00  0.00    -0.228 A  
HETATM   24  C   UNL     1      -6.983  18.663  68.490  1.00  0.00    -0.285 A  
HETATM   25  C   UNL     1      -6.023  18.026  69.270  1.00  0.00    -0.232 A  
BRANCH  22  26
HETATM   26  C   UNL     1      -9.153  18.875  67.421  1.00  0.00    -0.279 A  
HETATM   27  N   UNL     1     -10.290  19.340  67.910  1.00  0.00    -0.402 NA 
HETATM   28  H   UNL     1     -10.661  19.180  68.847  1.00  0.00     0.000 HD 
HETATM   29  N   UNL     1     -10.877  20.080  66.913  1.00  0.00    -0.269 NA 
HETATM   30  N   UNL     1     -10.139  20.061  65.814  1.00  0.00    -0.411 NA 
HETATM   31  N   UNL     1      -9.094  19.278  66.112  1.00  0.00    -0.440 NA 
ENDBRANCH  22  26
ENDBRANCH  16  20
ENDBRANCH  13  14
ENDBRANCH   9  13
BRANCH   8  32
HETATM   32  C   UNL     1     -11.617  10.519  69.536  1.00  0.00    -0.260 C  
HETATM   33  O   UNL     1     -12.711  11.016  69.329  1.00  0.00    -0.280 OA 
BRANCH  32  34
HETATM   34  O   UNL     1     -11.089  10.307  70.768  1.00  0.00    -0.326 OA 
BRANCH  34  35
HETATM   35  C   UNL     1     -12.027   9.705  71.672  1.00  0.00    -0.394 C  
HETATM   36  C   UNL     1     -12.924  10.846  72.154  1.00  0.00    -0.273 C  
BRANCH  35  37
HETATM   37  O   UNL     1     -12.912   8.788  71.026  1.00  0.00    -0.145 OA 
BRANCH  37  38
HETATM   38  C   UNL     1     -13.105   7.608  71.655  1.00  0.00    -0.353 C  
HETATM   39  O   UNL     1     -14.167   7.028  71.795  1.00  0.00    -0.371 OA 
BRANCH  38  40
HETATM   40  O   UNL     1     -11.894   7.189  72.069  1.00  0.00    -0.282 OA 
BRANCH  40  41
HETATM   41  C   UNL     1     -11.532   5.802  72.258  1.00  0.00    -0.262 C  
HETATM   42  C   UNL     1      -8.613   5.221  72.278  1.00  0.00    -0.126 C  
HETATM   43  C   UNL     1     -10.766   5.370  71.006  1.00  0.00    -0.239 C  
HETATM   44  C   UNL     1      -9.307   5.812  71.059  1.00  0.00    -0.183 C  
HETATM   45  C   UNL     1      -9.312   5.594  73.582  1.00  0.00    -0.137 C  
HETATM   46  C   UNL     1     -10.829   5.380  73.552  1.00  0.00    -0.342 C  
ENDBRANCH  40  41
ENDBRANCH  38  40
ENDBRANCH  37  38
ENDBRANCH  35  37
ENDBRANCH  34  35
ENDBRANCH  32  34
ENDBRANCH   8  32
ENDBRANCH   3   4
ENDBRANCH   2   3
TORSDOF 13
ENDMDL
MODEL       64
REMARK 921   NORMALIZED FREE ENERGY PREDICTED BY IDOCK:   -6.60 KCAL/MOL
REMARK 922        TOTAL FREE ENERGY PREDICTED BY IDOCK:  -14.07 KCAL/MOL
REMARK 923 INTER-LIGAND FREE ENERGY PREDICTED BY IDOCK:  -11.54 KCAL/MOL
REMARK 924 INTRA-LIGAND FREE ENERGY PREDICTED BY IDOCK:   -2.54 KCAL/MOL
REMARK 927      BINDING AFFINITY PREDICTED BY RF-SCORE:    0.00 PKD
ROOT
HETATM    1  C   UNL     1      -7.338  10.445  64.645  1.00  0.00    -0.026 C  
HETATM    2  C   UNL     1      -8.541   9.883  63.908  1.00  0.00    -0.195 C  
ENDROOT
BRANCH   2   3
HETATM    3  O   UNL     1      -9.672   9.983  64.779  1.00  0.00    -0.305 OA 
BRANCH   3   4
HETATM    4  C   UNL     1      -9.633   9.180  65.840  1.00  0.00    -0.273 A  
HETATM    5  N   UNL     1      -9.098   7.982  65.847  1.00  0.00    -0.146 NA 
HETATM    6  C   UNL     1      -9.284   7.523  67.119  1.00  0.00    -0.136 A  
HETATM    7  C   UNL     1      -9.890   8.487  67.949  1.00  0.00    -0.170 A  
HETATM    8  C   UNL     1     -10.048   8.220  69.332  1.00  0.00    -0.198 A  
HETATM    9  N   UNL     1     -10.203   9.501  67.053  1.00  0.00    -0.241 NA 
HETATM   10  C   UNL     1      -9.154   5.961  68.953  1.00  0.00    -0.120 A  
HETATM   11  C   UNL     1      -8.946   6.251  67.611  1.00  0.00    -0.115 A  
HETATM   12  C   UNL     1      -9.665   6.941  69.795  1.00  0.00    -0.166 A  
BRANCH   9  13
HETATM   13  C   UNL     1     -11.119  10.633  67.195  1.00  0.00    -0.196 C  
BRANCH  13  14
HETATM   14  C   UNL     1     -10.470  11.963  66.903  1.00  0.00    -0.253 A  
HETATM   15  C   UNL     1     -10.492  14.154  65.878  1.00  0.00    -0.313 A  
HETATM   16  C   UNL     1      -9.654  14.659  66.887  1.00  0.00    -0.253 A  
HETATM   17  C   UNL     1      -9.381  12.370  67.675  1.00  0.00    -0.188 A  
HETATM   18  C   UNL     1     -10.948  12.830  65.922  1.00  0.00    -0.303 A  
HETATM   19  C   UNL     1      -8.993  13.709  67.683  1.00  0.00    -0.202 A  
BRANCH  16  20
HETATM   20  C   UNL     1      -9.580  16.113  67.217  1.00  0.00    -0.231 A  
HETATM   21  C   UNL     1      -8.725  16.950  66.460  1.00  0.00    -0.304 A  
HETATM   22  C   UNL     1     -10.246  16.708  68.331  1.00  0.00    -0.284 A  
HETATM   23  C   UNL     1      -8.540  18.303  66.764  1.00  0.00    -0.271 A  
HETATM   24  C   UNL     1     -10.092  18.091  68.576  1.00  0.00    -0.399 A  
HETATM   25  C   UNL     1      -9.241  18.880  67.809  1.00  0.00    -0.328 A  
BRANCH  22  26
HETATM   26  C   UNL     1     -11.061  15.994  69.323  1.00  0.00    -0.331 A  
HETATM   27  N   UNL     1     -12.091  15.201  69.080  1.00  0.00    -0.555 NA 
HETATM   28  H   UNL     1     -12.468  14.957  68.164  1.00  0.00     0.000 HD 
HETATM   29  N   UNL     1     -12.554  14.768  70.298  1.00  0.00    -0.336 NA 
HETATM   30  N   UNL     1     -11.849  15.296  71.286  1.00  0.00    -0.326 NA 
HETATM   31  N   UNL     1     -10.953  16.091  70.686  1.00  0.00    -0.304 NA 
ENDBRANCH  22  26
ENDBRANCH  16  20
ENDBRANCH  13  14
ENDBRANCH   9  13
BRANCH   8  32
HETATM   32  C   UNL     1     -10.721   9.119  70.300  1.00  0.00    -0.231 C  
HETATM   33  O   UNL     1     -10.438  10.299  70.425  1.00  0.00    -0.247 OA 
BRANCH  32  34
HETATM   34  O   UNL     1     -11.815   8.527  70.844  1.00  0.00    -0.281 OA 
BRANCH  34  35
HETATM   35  C   UNL     1     -12.039   8.931  72.203  1.00  0.00    -0.359 C  
HETATM   36  C   UNL     1     -13.497   9.389  72.262  1.00  0.00    -0.539 C  
BRANCH  35  37
HETATM   37  O   UNL     1     -11.955   7.846  73.127  1.00  0.00    -0.161 OA 
BRANCH  37  38
HETATM   38  C   UNL     1     -10.728   7.305  73.297  1.00  0.00    -0.383 C  
HETATM   39  O   UNL     1      -9.689   7.914  73.483  1.00  0.00    -0.290 OA 
BRANCH  38  40
HETATM   40  O   UNL     1     -10.886   5.969  73.249  1.00  0.00    -0.254 OA 
BRANCH  40  41
HETATM   41  C   UNL     1      -9.843   5.014  73.553  1.00  0.00    -0.151 C  
HETATM   42  C   UNL     1     -10.321   2.236  72.599  1.00  0.00    -0.231 C  
HETATM   43  C   UNL     1     -10.475   3.934  74.434  1.00  0.00    -0.269 C  
HETATM   44  C   UNL     1     -11.244   2.911  73.604  1.00  0.00    -0.305 C  
HETATM   45  C   UNL     1      -9.636   3.238  71.675  1.00  0.00    -0.230 C  
HETATM   46  C   UNL     1      -9.009   4.426  72.410  1.00  0.00    -0.135 C  
ENDBRANCH  40  41
ENDBRANCH  38  40
ENDBRANCH  37  38
ENDBRANCH  35  37
ENDBRANCH  34  35
ENDBRANCH  32  34
ENDBRANCH   8  32
ENDBRANCH   3   4
ENDBRANCH   2   3
TORSDOF 13
ENDMDL
MODEL       65
REMARK 921   NORMALIZED FREE ENERGY PREDICTED BY IDOCK:   -6.60 KCAL/MOL
REMARK 922        TOTAL FREE ENERGY PREDICTED BY IDOCK:  -14.07 KCAL/MOL
REMARK 923 INTER-LIGAND FREE ENERGY PREDICTED BY IDOCK:  -10.32 KCAL/MOL
REMARK 924 INTRA-LIGAND FREE ENERGY PREDICTED BY IDOCK:   -3.75 KCAL/MOL
REMARK 927      BINDING AFFINITY PREDICTED BY RF-SCORE:    0.00 PKD
ROOT
HETATM    1  C   UNL     1      -9.287   3.185  62.702  1.00  0.00    -0.090 C  
HETATM    2  C   UNL     1      -8.654   3.494  64.047  1.00  0.00    -0.090 C  
ENDROOT
BRANCH   2   3
HETATM    3  O   UNL     1      -9.335   4.624  64.601  1.00  0.00    -0.150 OA 
BRANCH   3   4
HETATM    4  C   UNL     1      -9.157   4.797  65.908  1.00  0.00    -0.137 A  
HETATM    5  N   UNL     1      -9.822   4.157  66.842  1.00  0.00    -0.207 NA 
HETATM    6  C   UNL     1      -9.330   4.642  68.018  1.00  0.00    -0.135 A  
HETATM    7  C   UNL     1      -8.279   5.559  67.818  1.00  0.00    -0.100 A  
HETATM    8  C   UNL     1      -7.571   6.069  68.934  1.00  0.00    -0.091 A  
HETATM    9  N   UNL     1      -8.277   5.716  66.437  1.00  0.00    -0.106 NA 
HETATM   10  C   UNL     1      -9.123   4.862  70.412  1.00  0.00    -0.173 A  
HETATM   11  C   UNL     1      -9.773   4.318  69.312  1.00  0.00    -0.240 A  
HETATM   12  C   UNL     1      -8.027   5.693  70.219  1.00  0.00    -0.103 A  
BRANCH   9  13
HETATM   13  C   UNL     1      -7.661   6.754  65.609  1.00  0.00    -0.102 C  
BRANCH  13  14
HETATM   14  C   UNL     1      -8.441   8.045  65.597  1.00  0.00    -0.162 A  
HETATM   15  C   UNL     1      -9.988   9.598  66.621  1.00  0.00    -0.301 A  
HETATM   16  C   UNL     1      -9.369  10.678  65.969  1.00  0.00    -0.219 A  
HETATM   17  C   UNL     1      -8.074   9.050  64.701  1.00  0.00    -0.144 A  
HETATM   18  C   UNL     1      -9.486   8.297  66.485  1.00  0.00    -0.284 A  
HETATM   19  C   UNL     1      -8.517  10.357  64.900  1.00  0.00    -0.179 A  
BRANCH  16  20
HETATM   20  C   UNL     1      -9.470  12.082  66.467  1.00  0.00    -0.234 A  
HETATM   21  C   UNL     1      -8.659  12.489  67.555  1.00  0.00    -0.183 A  
HETATM   22  C   UNL     1     -10.420  13.029  65.981  1.00  0.00    -0.289 A  
HETATM   23  C   UNL     1      -8.758  13.760  68.128  1.00  0.00    -0.183 A  
HETATM   24  C   UNL     1     -10.455  14.329  66.536  1.00  0.00    -0.287 A  
HETATM   25  C   UNL     1      -9.641  14.689  67.605  1.00  0.00    -0.212 A  
BRANCH  22  26
HETATM   26  C   UNL     1     -11.445  12.768  64.961  1.00  0.00    -0.321 A  
HETATM   27  N   UNL     1     -11.342  12.979  63.660  1.00  0.00    -0.592 NA 
HETATM   28  H   UNL     1     -10.530  13.347  63.166  1.00  0.00     0.000 HD 
HETATM   29  N   UNL     1     -12.541  12.607  63.102  1.00  0.00    -0.552 NA 
HETATM   30  N   UNL     1     -13.387  12.195  64.032  1.00  0.00    -0.595 NA 
HETATM   31  N   UNL     1     -12.726  12.337  65.189  1.00  0.00    -0.466 NA 
ENDBRANCH  22  26
ENDBRANCH  16  20
ENDBRANCH  13  14
ENDBRANCH   9  13
BRANCH   8  32
HETATM   32  C   UNL     1      -6.491   7.081  68.867  1.00  0.00    -0.029 C  
HETATM   33  O   UNL     1      -5.318   6.796  68.694  1.00  0.00    -0.015 OA 
BRANCH  32  34
HETATM   34  O   UNL     1      -6.997   8.338  68.792  1.00  0.00    -0.064 OA 
BRANCH  34  35
HETATM   35  C   UNL     1      -7.692   8.722  69.988  1.00  0.00    -0.082 C  
HETATM   36  C   UNL     1      -6.702   9.571  70.786  1.00  0.00    -0.105 C  
BRANCH  35  37
HETATM   37  O   UNL     1      -8.799   9.588  69.734  1.00  0.00    -0.165 OA 
BRANCH  37  38
HETATM   38  C   UNL     1      -9.995   9.177  70.211  1.00  0.00    -0.208 C  
HETATM   39  O   UNL     1     -10.376   8.024  70.314  1.00  0.00    -0.205 OA 
BRANCH  38  40
HETATM   40  O   UNL     1     -10.666  10.286  70.574  1.00  0.00    -0.283 OA 
BRANCH  40  41
HETATM   41  C   UNL     1     -11.867  10.761  69.924  1.00  0.00    -0.335 C  
HETATM   42  C   UNL     1     -13.241  13.041  71.256  1.00  0.00    -0.186 C  
HETATM   43  C   UNL     1     -13.015  10.569  70.918  1.00  0.00    -0.455 C  
HETATM   44  C   UNL     1     -13.062  11.695  71.945  1.00  0.00    -0.490 C  
HETATM   45  C   UNL     1     -12.142  13.321  70.236  1.00  0.00    -0.405 C  
HETATM   46  C   UNL     1     -11.873  12.153  69.282  1.00  0.00    -0.370 C  
ENDBRANCH  40  41
ENDBRANCH  38  40
ENDBRANCH  37  38
ENDBRANCH  35  37
ENDBRANCH  34  35
ENDBRANCH  32  34
ENDBRANCH   8  32
ENDBRANCH   3   4
ENDBRANCH   2   3
TORSDOF 13
ENDMDL
MODEL       66
REMARK 921   NORMALIZED FREE ENERGY PREDICTED BY IDOCK:   -6.60 KCAL/MOL
REMARK 922        TOTAL FREE ENERGY PREDICTED BY IDOCK:  -14.06 KCAL/MOL
REMARK 923 INTER-LIGAND FREE ENERGY PREDICTED BY IDOCK:   -9.91 KCAL/MOL
REMARK 924 INTRA-LIGAND FREE ENERGY PREDICTED BY IDOCK:   -4.15 KCAL/MOL
REMARK 927      BINDING AFFINITY PREDICTED BY RF-SCORE:    0.00 PKD
ROOT
HETATM    1  C   UNL     1     -13.846   9.625  72.369  1.00  0.00    -0.270 C  
HETATM    2  C   UNL     1     -13.257   8.275  71.998  1.00  0.00    -0.319 C  
ENDROOT
BRANCH   2   3
HETATM    3  O   UNL     1     -11.913   8.235  72.489  1.00  0.00    -0.387 OA 
BRANCH   3   4
HETATM    4  C   UNL     1     -11.202   7.185  72.086  1.00  0.00    -0.255 A  
HETATM    5  N   UNL     1     -11.362   5.962  72.533  1.00  0.00    -0.294 NA 
HETATM    6  C   UNL     1     -10.434   5.219  71.863  1.00  0.00    -0.219 A  
HETATM    7  C   UNL     1      -9.720   5.985  70.919  1.00  0.00    -0.174 A  
HETATM    8  C   UNL     1      -8.801   5.347  70.051  1.00  0.00    -0.141 A  
HETATM    9  N   UNL     1     -10.169   7.274  71.178  1.00  0.00    -0.191 NA 
HETATM   10  C   UNL     1      -9.216   3.233  71.237  1.00  0.00    -0.192 A  
HETATM   11  C   UNL     1     -10.161   3.853  72.044  1.00  0.00    -0.220 A  
HETATM   12  C   UNL     1      -8.578   3.964  70.242  1.00  0.00    -0.108 A  
BRANCH   9  13
HETATM   13  C   UNL     1      -9.603   8.565  70.783  1.00  0.00    -0.180 C  
BRANCH  13  14
HETATM   14  C   UNL     1     -10.406   9.264  69.715  1.00  0.00    -0.232 A  
HETATM   15  C   UNL     1     -11.665  11.168  68.913  1.00  0.00    -0.406 A  
HETATM   16  C   UNL     1     -11.298  10.879  67.587  1.00  0.00    -0.345 A  
HETATM   17  C   UNL     1     -10.346   8.791  68.403  1.00  0.00    -0.242 A  
HETATM   18  C   UNL     1     -11.169  10.401  69.975  1.00  0.00    -0.385 A  
HETATM   19  C   UNL     1     -10.768   9.601  67.349  1.00  0.00    -0.308 A  
BRANCH  16  20
HETATM   20  C   UNL     1     -11.311  11.910  66.507  1.00  0.00    -0.403 A  
HETATM   21  C   UNL     1     -11.140  11.503  65.162  1.00  0.00    -0.260 A  
HETATM   22  C   UNL     1     -11.382  13.315  66.753  1.00  0.00    -0.359 A  
HETATM   23  C   UNL     1     -11.058  12.418  64.107  1.00  0.00    -0.425 A  
HETATM   24  C   UNL     1     -11.362  14.214  65.663  1.00  0.00    -0.319 A  
HETATM   25  C   UNL     1     -11.191  13.774  64.354  1.00  0.00    -0.364 A  
BRANCH  22  26
HETATM   26  C   UNL     1     -11.418  13.952  68.077  1.00  0.00    -0.307 A  
HETATM   27  N   UNL     1     -12.479  14.118  68.848  1.00  0.00    -0.490 NA 
HETATM   28  H   UNL     1     -13.432  13.820  68.644  1.00  0.00     0.000 HD 
HETATM   29  N   UNL     1     -12.049  14.771  69.977  1.00  0.00    -0.310 NA 
HETATM   30  N   UNL     1     -10.753  15.032  69.908  1.00  0.00    -0.242 NA 
HETATM   31  N   UNL     1     -10.370  14.566  68.711  1.00  0.00    -0.240 NA 
ENDBRANCH  22  26
ENDBRANCH  16  20
ENDBRANCH  13  14
ENDBRANCH   9  13
BRANCH   8  32
HETATM   32  C   UNL     1      -7.945   6.041  69.059  1.00  0.00    -0.104 C  
HETATM   33  O   UNL     1      -6.910   6.615  69.355  1.00  0.00    -0.060 OA 
BRANCH  32  34
HETATM   34  O   UNL     1      -8.335   5.762  67.789  1.00  0.00    -0.105 OA 
BRANCH  34  35
HETATM   35  C   UNL     1      -7.334   6.105  66.820  1.00  0.00    -0.079 C  
HETATM   36  C   UNL     1      -6.977   4.795  66.116  1.00  0.00    -0.070 C  
BRANCH  35  37
HETATM   37  O   UNL     1      -7.830   6.956  65.785  1.00  0.00    -0.094 OA 
BRANCH  37  38
HETATM   38  C   UNL     1      -7.116   8.079  65.548  1.00  0.00    -0.060 C  
HETATM   39  O   UNL     1      -6.418   8.300  64.575  1.00  0.00    -0.064 OA 
BRANCH  38  40
HETATM   40  O   UNL     1      -7.350   8.909  66.582  1.00  0.00    -0.084 OA 
BRANCH  40  41
HETATM   41  C   UNL     1      -6.406   9.892  67.067  1.00  0.00    -0.065 C  
HETATM   42  C   UNL     1      -7.589  12.225  68.486  1.00  0.00    -0.118 C  
HETATM   43  C   UNL     1      -6.738  11.209  66.361  1.00  0.00    -0.102 C  
HETATM   44  C   UNL     1      -7.908  11.925  67.028  1.00  0.00    -0.152 C  
HETATM   45  C   UNL     1      -7.239  10.968  69.275  1.00  0.00    -0.124 C  
HETATM   46  C   UNL     1      -6.215  10.067  68.577  1.00  0.00    -0.045 C  
ENDBRANCH  40  41
ENDBRANCH  38  40
ENDBRANCH  37  38
ENDBRANCH  35  37
ENDBRANCH  34  35
ENDBRANCH  32  34
ENDBRANCH   8  32
ENDBRANCH   3   4
ENDBRANCH   2   3
TORSDOF 13
ENDMDL
MODEL       67
REMARK 921   NORMALIZED FREE ENERGY PREDICTED BY IDOCK:   -6.60 KCAL/MOL
REMARK 922        TOTAL FREE ENERGY PREDICTED BY IDOCK:  -14.06 KCAL/MOL
REMARK 923 INTER-LIGAND FREE ENERGY PREDICTED BY IDOCK:  -11.29 KCAL/MOL
REMARK 924 INTRA-LIGAND FREE ENERGY PREDICTED BY IDOCK:   -2.77 KCAL/MOL
REMARK 927      BINDING AFFINITY PREDICTED BY RF-SCORE:    0.00 PKD
ROOT
HETATM    1  C   UNL     1     -12.909  14.706  73.216  1.00  0.00    -0.580 C  
HETATM    2  C   UNL     1     -13.064  14.843  71.712  1.00  0.00    -0.339 C  
ENDROOT
BRANCH   2   3
HETATM    3  O   UNL     1     -12.424  13.717  71.103  1.00  0.00    -0.354 OA 
BRANCH   3   4
HETATM    4  C   UNL     1     -11.822  13.977  69.945  1.00  0.00    -0.329 A  
HETATM    5  N   UNL     1     -11.408  15.165  69.571  1.00  0.00    -0.266 NA 
HETATM    6  C   UNL     1     -10.865  14.974  68.334  1.00  0.00    -0.256 A  
HETATM    7  C   UNL     1     -10.875  13.617  67.952  1.00  0.00    -0.250 A  
HETATM    8  C   UNL     1     -10.240  13.223  66.748  1.00  0.00    -0.254 A  
HETATM    9  N   UNL     1     -11.606  13.023  68.973  1.00  0.00    -0.299 NA 
HETATM   10  C   UNL     1      -9.776  15.591  66.271  1.00  0.00    -0.328 A  
HETATM   11  C   UNL     1     -10.346  15.963  67.482  1.00  0.00    -0.283 A  
HETATM   12  C   UNL     1      -9.700  14.245  65.934  1.00  0.00    -0.289 A  
BRANCH   9  13
HETATM   13  C   UNL     1     -12.253  11.712  69.028  1.00  0.00    -0.099 C  
BRANCH  13  14
HETATM   14  C   UNL     1     -11.752  10.849  70.159  1.00  0.00    -0.433 A  
HETATM   15  C   UNL     1     -12.145   9.398  72.055  1.00  0.00    -0.379 A  
HETATM   16  C   UNL     1     -10.935   8.724  71.818  1.00  0.00    -0.415 A  
HETATM   17  C   UNL     1     -10.422  10.425  70.151  1.00  0.00    -0.185 A  
HETATM   18  C   UNL     1     -12.580  10.412  71.191  1.00  0.00    -0.512 A  
HETATM   19  C   UNL     1     -10.025   9.359  70.957  1.00  0.00    -0.334 A  
BRANCH  16  20
HETATM   20  C   UNL     1     -10.675   7.340  72.313  1.00  0.00    -0.266 A  
HETATM   21  C   UNL     1     -10.516   7.123  73.704  1.00  0.00    -0.412 A  
HETATM   22  C   UNL     1     -10.469   6.217  71.457  1.00  0.00    -0.268 A  
HETATM   23  C   UNL     1     -10.189   5.871  74.234  1.00  0.00    -0.299 A  
HETATM   24  C   UNL     1     -10.203   4.949  72.023  1.00  0.00    -0.263 A  
HETATM   25  C   UNL     1     -10.053   4.777  73.395  1.00  0.00    -0.197 A  
BRANCH  22  26
HETATM   26  C   UNL     1     -10.447   6.253  69.988  1.00  0.00    -0.218 A  
HETATM   27  N   UNL     1     -11.490   6.358  69.182  1.00  0.00    -0.608 NA 
HETATM   28  H   UNL     1     -12.468   6.441  69.460  1.00  0.00     0.000 HD 
HETATM   29  N   UNL     1     -11.002   6.334  67.898  1.00  0.00    -0.330 NA 
HETATM   30  N   UNL     1      -9.686   6.192  67.896  1.00  0.00    -0.114 NA 
HETATM   31  N   UNL     1      -9.346   6.095  69.188  1.00  0.00    -0.126 NA 
ENDBRANCH  22  26
ENDBRANCH  16  20
ENDBRANCH  13  14
ENDBRANCH   9  13
BRANCH   8  32
HETATM   32  C   UNL     1     -10.231  11.845  66.203  1.00  0.00    -0.226 C  
HETATM   33  O   UNL     1     -10.763  11.540  65.149  1.00  0.00    -0.287 OA 
BRANCH  32  34
HETATM   34  O   UNL     1      -9.380  11.046  66.896  1.00  0.00    -0.170 OA 
BRANCH  34  35
HETATM   35  C   UNL     1      -8.229  10.670  66.125  1.00  0.00    -0.156 C  
HETATM   36  C   UNL     1      -7.025  11.235  66.880  1.00  0.00    -0.137 C  
BRANCH  35  37
HETATM   37  O   UNL     1      -8.017   9.258  66.096  1.00  0.00    -0.105 OA 
BRANCH  37  38
HETATM   38  C   UNL     1      -8.280   8.643  64.922  1.00  0.00    -0.157 C  
HETATM   39  O   UNL     1      -8.325   9.169  63.824  1.00  0.00    -0.166 OA 
BRANCH  38  40
HETATM   40  O   UNL     1      -8.453   7.338  65.201  1.00  0.00    -0.115 OA 
BRANCH  40  41
HETATM   41  C   UNL     1      -7.759   6.262  64.530  1.00  0.00    -0.106 C  
HETATM   42  C   UNL     1      -6.886   4.008  66.266  1.00  0.00    -0.058 C  
HETATM   43  C   UNL     1      -6.360   6.185  65.145  1.00  0.00    -0.038 C  
HETATM   44  C   UNL     1      -6.369   5.425  66.468  1.00  0.00    -0.039 C  
HETATM   45  C   UNL     1      -8.280   3.980  65.648  1.00  0.00    -0.105 C  
HETATM   46  C   UNL     1      -8.430   4.888  64.423  1.00  0.00    -0.137 C  
ENDBRANCH  40  41
ENDBRANCH  38  40
ENDBRANCH  37  38
ENDBRANCH  35  37
ENDBRANCH  34  35
ENDBRANCH  32  34
ENDBRANCH   8  32
ENDBRANCH   3   4
ENDBRANCH   2   3
TORSDOF 13
ENDMDL
MODEL       68
REMARK 921   NORMALIZED FREE ENERGY PREDICTED BY IDOCK:   -6.58 KCAL/MOL
REMARK 922        TOTAL FREE ENERGY PREDICTED BY IDOCK:  -14.04 KCAL/MOL
REMARK 923 INTER-LIGAND FREE ENERGY PREDICTED BY IDOCK:  -10.91 KCAL/MOL
REMARK 924 INTRA-LIGAND FREE ENERGY PREDICTED BY IDOCK:   -3.13 KCAL/MOL
REMARK 927      BINDING AFFINITY PREDICTED BY RF-SCORE:    0.00 PKD
ROOT
HETATM    1  C   UNL     1     -13.531  11.920  72.072  1.00  0.00    -0.336 C  
HETATM    2  C   UNL     1     -13.103  10.463  72.043  1.00  0.00    -0.416 C  
ENDROOT
BRANCH   2   3
HETATM    3  O   UNL     1     -12.685  10.156  70.709  1.00  0.00    -0.328 OA 
BRANCH   3   4
HETATM    4  C   UNL     1     -11.480   9.600  70.616  1.00  0.00    -0.306 A  
HETATM    5  N   UNL     1     -10.805   9.111  71.630  1.00  0.00    -0.360 NA 
HETATM    6  C   UNL     1      -9.639   8.655  71.088  1.00  0.00    -0.220 A  
HETATM    7  C   UNL     1      -9.611   8.799  69.687  1.00  0.00    -0.171 A  
HETATM    8  C   UNL     1      -8.525   8.267  68.949  1.00  0.00    -0.128 A  
HETATM    9  N   UNL     1     -10.773   9.519  69.436  1.00  0.00    -0.226 NA 
HETATM   10  C   UNL     1      -7.452   7.636  71.071  1.00  0.00    -0.075 A  
HETATM   11  C   UNL     1      -8.548   8.105  71.783  1.00  0.00    -0.191 A  
HETATM   12  C   UNL     1      -7.462   7.691  69.682  1.00  0.00    -0.091 A  
BRANCH   9  13
HETATM   13  C   UNL     1     -11.178  10.268  68.246  1.00  0.00    -0.232 C  
BRANCH  13  14
HETATM   14  C   UNL     1     -10.845  11.736  68.327  1.00  0.00    -0.259 A  
HETATM   15  C   UNL     1      -9.405  13.616  67.829  1.00  0.00    -0.218 A  
HETATM   16  C   UNL     1     -10.506  14.490  67.843  1.00  0.00    -0.242 A  
HETATM   17  C   UNL     1     -11.847  12.640  68.684  1.00  0.00    -0.342 A  
HETATM   18  C   UNL     1      -9.585  12.238  68.007  1.00  0.00    -0.206 A  
HETATM   19  C   UNL     1     -11.686  14.000  68.424  1.00  0.00    -0.389 A  
BRANCH  16  20
HETATM   20  C   UNL     1     -10.492  15.809  67.143  1.00  0.00    -0.309 A  
HETATM   21  C   UNL     1     -10.212  16.982  67.886  1.00  0.00    -0.317 A  
HETATM   22  C   UNL     1     -10.852  15.984  65.773  1.00  0.00    -0.236 A  
HETATM   23  C   UNL     1     -10.264  18.259  67.318  1.00  0.00    -0.387 A  
HETATM   24  C   UNL     1     -10.834  17.279  65.207  1.00  0.00    -0.001 A  
HETATM   25  C   UNL     1     -10.553  18.407  65.972  1.00  0.00    -0.339 A  
BRANCH  22  26
HETATM   26  C   UNL     1     -11.313  14.923  64.867  1.00  0.00    -0.413 A  
HETATM   27  N   UNL     1     -10.585  13.943  64.359  1.00  0.00    -0.589 NA 
HETATM   28  H   UNL     1      -9.595  13.769  64.528  1.00  0.00     0.000 HD 
HETATM   29  N   UNL     1     -11.421  13.202  63.559  1.00  0.00    -0.341 NA 
HETATM   30  N   UNL     1     -12.640  13.718  63.544  1.00  0.00    -0.808 NA 
HETATM   31  N   UNL     1     -12.563  14.810  64.317  1.00  0.00    -0.730 NA 
ENDBRANCH  22  26
ENDBRANCH  16  20
ENDBRANCH  13  14
ENDBRANCH   9  13
BRANCH   8  32
HETATM   32  C   UNL     1      -8.344   8.402  67.484  1.00  0.00    -0.129 C  
HETATM   33  O   UNL     1      -9.274   8.441  66.697  1.00  0.00    -0.157 OA 
BRANCH  32  34
HETATM   34  O   UNL     1      -7.057   8.701  67.172  1.00  0.00    -0.074 OA 
BRANCH  34  35
HETATM   35  C   UNL     1      -6.553   7.896  66.096  1.00  0.00    -0.050 C  
HETATM   36  C   UNL     1      -5.170   8.463  65.770  1.00  0.00    -0.031 C  
BRANCH  35  37
HETATM   37  O   UNL     1      -6.315   6.541  66.478  1.00  0.00    -0.039 OA 
BRANCH  37  38
HETATM   38  C   UNL     1      -7.109   5.613  65.900  1.00  0.00    -0.067 C  
HETATM   39  O   UNL     1      -7.625   5.688  64.799  1.00  0.00    -0.075 OA 
BRANCH  38  40
HETATM   40  O   UNL     1      -7.192   4.584  66.764  1.00  0.00    -0.076 OA 
BRANCH  40  41
HETATM   41  C   UNL     1      -8.407   3.853  67.045  1.00  0.00    -0.100 C  
HETATM   42  C   UNL     1      -9.847   4.646  69.526  1.00  0.00    -0.286 C  
HETATM   43  C   UNL     1      -8.198   3.145  68.385  1.00  0.00    -0.082 C  
HETATM   44  C   UNL     1      -8.431   4.088  69.561  1.00  0.00    -0.088 C  
HETATM   45  C   UNL     1     -10.154   5.369  68.218  1.00  0.00    -0.225 C  
HETATM   46  C   UNL     1      -9.755   4.578  66.968  1.00  0.00    -0.227 C  
ENDBRANCH  40  41
ENDBRANCH  38  40
ENDBRANCH  37  38
ENDBRANCH  35  37
ENDBRANCH  34  35
ENDBRANCH  32  34
ENDBRANCH   8  32
ENDBRANCH   3   4
ENDBRANCH   2   3
TORSDOF 13
ENDMDL
MODEL       69
REMARK 921   NORMALIZED FREE ENERGY PREDICTED BY IDOCK:   -6.57 KCAL/MOL
REMARK 922        TOTAL FREE ENERGY PREDICTED BY IDOCK:  -14.01 KCAL/MOL
REMARK 923 INTER-LIGAND FREE ENERGY PREDICTED BY IDOCK:   -9.85 KCAL/MOL
REMARK 924 INTRA-LIGAND FREE ENERGY PREDICTED BY IDOCK:   -4.17 KCAL/MOL
REMARK 927      BINDING AFFINITY PREDICTED BY RF-SCORE:    0.00 PKD
ROOT
HETATM    1  C   UNL     1     -13.060  10.886  71.695  1.00  0.00    -0.538 C  
HETATM    2  C   UNL     1     -12.152   9.933  70.937  1.00  0.00    -0.341 C  
ENDROOT
BRANCH   2   3
HETATM    3  O   UNL     1     -11.082   9.561  71.812  1.00  0.00    -0.352 OA 
BRANCH   3   4
HETATM    4  C   UNL     1     -10.888   8.250  71.929  1.00  0.00    -0.283 A  
HETATM    5  N   UNL     1     -11.594   7.459  72.703  1.00  0.00    -0.282 NA 
HETATM    6  C   UNL     1     -11.057   6.218  72.521  1.00  0.00    -0.272 A  
HETATM    7  C   UNL     1     -10.031   6.219  71.555  1.00  0.00    -0.184 A  
HETATM    8  C   UNL     1      -9.445   4.993  71.154  1.00  0.00    -0.212 A  
HETATM    9  N   UNL     1      -9.877   7.573  71.281  1.00  0.00    -0.179 NA 
HETATM   10  C   UNL     1     -10.811   3.840  72.843  1.00  0.00    -0.157 A  
HETATM   11  C   UNL     1     -11.424   5.037  73.188  1.00  0.00    -0.362 A  
HETATM   12  C   UNL     1      -9.865   3.822  71.825  1.00  0.00    -0.244 A  
BRANCH   9  13
HETATM   13  C   UNL     1      -8.780   8.281  70.620  1.00  0.00    -0.138 C  
BRANCH  13  14
HETATM   14  C   UNL     1      -8.972   8.413  69.130  1.00  0.00    -0.147 A  
HETATM   15  C   UNL     1     -10.393   8.533  67.176  1.00  0.00    -0.377 A  
HETATM   16  C   UNL     1      -9.445   9.327  66.508  1.00  0.00    -0.259 A  
HETATM   17  C   UNL     1      -7.914   8.884  68.350  1.00  0.00    -0.105 A  
HETATM   18  C   UNL     1     -10.184   8.133  68.502  1.00  0.00    -0.233 A  
HETATM   19  C   UNL     1      -8.154   9.356  67.060  1.00  0.00    -0.105 A  
BRANCH  16  20
HETATM   20  C   UNL     1      -9.806  10.222  65.369  1.00  0.00    -0.362 A  
HETATM   21  C   UNL     1      -9.402   9.869  64.058  1.00  0.00    -0.280 A  
HETATM   22  C   UNL     1     -10.451  11.485  65.527  1.00  0.00    -0.327 A  
HETATM   23  C   UNL     1      -9.631  10.697  62.955  1.00  0.00    -0.379 A  
HETATM   24  C   UNL     1     -10.728  12.273  64.387  1.00  0.00    -0.369 A  
HETATM   25  C   UNL     1     -10.314  11.891  63.115  1.00  0.00    -0.330 A  
BRANCH  22  26
HETATM   26  C   UNL     1     -10.823  12.103  66.808  1.00  0.00    -0.248 A  
HETATM   27  N   UNL     1     -12.005  12.057  67.397  1.00  0.00    -0.585 NA 
HETATM   28  H   UNL     1     -12.837  11.575  67.055  1.00  0.00     0.000 HD 
HETATM   29  N   UNL     1     -11.898  12.781  68.558  1.00  0.00    -0.320 NA 
HETATM   30  N   UNL     1     -10.684  13.293  68.685  1.00  0.00    -0.259 NA 
HETATM   31  N   UNL     1     -10.030  12.912  67.579  1.00  0.00    -0.212 NA 
ENDBRANCH  22  26
ENDBRANCH  16  20
ENDBRANCH  13  14
ENDBRANCH   9  13
BRANCH   8  32
HETATM   32  C   UNL     1      -8.321   4.860  70.196  1.00  0.00    -0.080 C  
HETATM   33  O   UNL     1      -7.266   5.461  70.316  1.00  0.00    -0.062 OA 
BRANCH  32  34
HETATM   34  O   UNL     1      -8.532   3.839  69.327  1.00  0.00    -0.066 OA 
BRANCH  34  35
HETATM   35  C   UNL     1      -8.139   4.168  67.987  1.00  0.00    -0.089 C  
HETATM   36  C   UNL     1      -6.953   3.257  67.669  1.00  0.00    -0.050 C  
BRANCH  35  37
HETATM   37  O   UNL     1      -9.132   3.832  67.017  1.00  0.00    -0.136 OA 
BRANCH  37  38
HETATM   38  C   UNL     1      -9.727   4.873  66.392  1.00  0.00    -0.189 C  
HETATM   39  O   UNL     1     -10.916   4.990  66.154  1.00  0.00    -0.242 OA 
BRANCH  38  40
HETATM   40  O   UNL     1      -8.754   5.760  66.112  1.00  0.00    -0.129 OA 
BRANCH  40  41
HETATM   41  C   UNL     1      -8.233   6.006  64.786  1.00  0.00    -0.123 C  
HETATM   42  C   UNL     1      -5.544   4.861  64.223  1.00  0.00    -0.017 C  
HETATM   43  C   UNL     1      -6.940   6.806  64.960  1.00  0.00    -0.051 C  
HETATM   44  C   UNL     1      -5.763   5.902  65.312  1.00  0.00    -0.024 C  
HETATM   45  C   UNL     1      -6.787   4.013  63.972  1.00  0.00    -0.045 C  
HETATM   46  C   UNL     1      -8.072   4.833  63.814  1.00  0.00    -0.105 C  
ENDBRANCH  40  41
ENDBRANCH  38  40
ENDBRANCH  37  38
ENDBRANCH  35  37
ENDBRANCH  34  35
ENDBRANCH  32  34
ENDBRANCH   8  32
ENDBRANCH   3   4
ENDBRANCH   2   3
TORSDOF 13
ENDMDL
MODEL       70
REMARK 921   NORMALIZED FREE ENERGY PREDICTED BY IDOCK:   -6.55 KCAL/MOL
REMARK 922        TOTAL FREE ENERGY PREDICTED BY IDOCK:  -13.98 KCAL/MOL
REMARK 923 INTER-LIGAND FREE ENERGY PREDICTED BY IDOCK:  -10.94 KCAL/MOL
REMARK 924 INTRA-LIGAND FREE ENERGY PREDICTED BY IDOCK:   -3.04 KCAL/MOL
REMARK 927      BINDING AFFINITY PREDICTED BY RF-SCORE:    0.00 PKD
ROOT
HETATM    1  C   UNL     1     -12.257  13.060  63.102  1.00  0.00    -0.305 C  
HETATM    2  C   UNL     1     -11.665  13.293  64.481  1.00  0.00    -0.378 C  
ENDROOT
BRANCH   2   3
HETATM    3  O   UNL     1     -11.811  12.081  65.229  1.00  0.00    -0.324 OA 
BRANCH   3   4
HETATM    4  C   UNL     1     -10.694  11.370  65.364  1.00  0.00    -0.253 A  
HETATM    5  N   UNL     1     -10.258  10.497  64.487  1.00  0.00    -0.337 NA 
HETATM    6  C   UNL     1      -9.103  10.007  65.024  1.00  0.00    -0.211 A  
HETATM    7  C   UNL     1      -8.770  10.642  66.237  1.00  0.00    -0.156 A  
HETATM    8  C   UNL     1      -7.539  10.341  66.871  1.00  0.00    -0.105 A  
HETATM    9  N   UNL     1      -9.885  11.435  66.478  1.00  0.00    -0.203 NA 
HETATM   10  C   UNL     1      -7.115   8.644  65.141  1.00  0.00    -0.086 A  
HETATM   11  C   UNL     1      -8.295   8.988  64.493  1.00  0.00    -0.182 A  
HETATM   12  C   UNL     1      -6.737   9.333  66.287  1.00  0.00    -0.074 A  
BRANCH   9  13
HETATM   13  C   UNL     1     -10.325  12.093  67.709  1.00  0.00    -0.206 C  
BRANCH  13  14
HETATM   14  C   UNL     1      -9.972  13.558  67.758  1.00  0.00    -0.232 A  
HETATM   15  C   UNL     1      -9.886  15.682  68.914  1.00  0.00    -0.219 A  
HETATM   16  C   UNL     1      -8.749  16.060  68.179  1.00  0.00    -0.173 A  
HETATM   17  C   UNL     1      -9.088  14.075  66.809  1.00  0.00    -0.250 A  
HETATM   18  C   UNL     1     -10.455  14.412  68.748  1.00  0.00    -0.244 A  
HETATM   19  C   UNL     1      -8.467  15.304  67.031  1.00  0.00    -0.258 A  
BRANCH  16  20
HETATM   20  C   UNL     1      -7.791  17.100  68.660  1.00  0.00    -0.265 A  
HETATM   21  C   UNL     1      -6.708  16.712  69.485  1.00  0.00    -0.189 A  
HETATM   22  C   UNL     1      -7.956  18.498  68.425  1.00  0.00    -0.337 A  
HETATM   23  C   UNL     1      -5.820  17.639  70.041  1.00  0.00    -0.229 A  
HETATM   24  C   UNL     1      -7.007  19.408  68.945  1.00  0.00    -0.384 A  
HETATM   25  C   UNL     1      -5.956  18.987  69.753  1.00  0.00    -0.284 A  
BRANCH  22  26
HETATM   26  C   UNL     1      -9.084  19.121  67.720  1.00  0.00    -0.299 A  
HETATM   27  N   UNL     1     -10.288  19.365  68.208  1.00  0.00    -0.416 NA 
HETATM   28  H   UNL     1     -10.612  19.167  69.155  1.00  0.00     0.000 HD 
HETATM   29  N   UNL     1     -11.018  19.938  67.196  1.00  0.00    -0.276 NA 
HETATM   30  N   UNL     1     -10.299  20.029  66.088  1.00  0.00    -0.472 NA 
HETATM   31  N   UNL     1      -9.116  19.481  66.398  1.00  0.00    -0.358 NA 
ENDBRANCH  22  26
ENDBRANCH  16  20
ENDBRANCH  13  14
ENDBRANCH   9  13
BRANCH   8  32
HETATM   32  C   UNL     1      -7.097  10.889  68.175  1.00  0.00    -0.077 C  
HETATM   33  O   UNL     1      -6.322  11.825  68.279  1.00  0.00    -0.049 OA 
BRANCH  32  34
HETATM   34  O   UNL     1      -7.826  10.375  69.198  1.00  0.00    -0.111 OA 
BRANCH  34  35
HETATM   35  C   UNL     1      -7.428   9.039  69.539  1.00  0.00    -0.076 C  
HETATM   36  C   UNL     1      -6.485   9.182  70.735  1.00  0.00    -0.069 C  
BRANCH  35  37
HETATM   37  O   UNL     1      -8.512   8.241  70.018  1.00  0.00    -0.119 OA 
BRANCH  37  38
HETATM   38  C   UNL     1      -9.465   7.931  69.111  1.00  0.00    -0.155 C  
HETATM   39  O   UNL     1      -9.282   7.468  67.999  1.00  0.00    -0.137 OA 
BRANCH  38  40
HETATM   40  O   UNL     1     -10.649   8.207  69.688  1.00  0.00    -0.227 OA 
BRANCH  40  41
HETATM   41  C   UNL     1     -10.815   8.554  71.082  1.00  0.00    -0.243 C  
HETATM   42  C   UNL     1     -13.513   9.546  71.853  1.00  0.00    -0.502 C  
HETATM   43  C   UNL     1     -11.167  10.043  71.129  1.00  0.00    -0.339 C  
HETATM   44  C   UNL     1     -12.646  10.280  70.840  1.00  0.00    -0.465 C  
HETATM   45  C   UNL     1     -13.228   8.048  71.885  1.00  0.00    -0.327 C  
HETATM   46  C   UNL     1     -11.738   7.704  71.963  1.00  0.00    -0.340 C  
ENDBRANCH  40  41
ENDBRANCH  38  40
ENDBRANCH  37  38
ENDBRANCH  35  37
ENDBRANCH  34  35
ENDBRANCH  32  34
ENDBRANCH   8  32
ENDBRANCH   3   4
ENDBRANCH   2   3
TORSDOF 13
ENDMDL
MODEL       71
REMARK 921   NORMALIZED FREE ENERGY PREDICTED BY IDOCK:   -6.55 KCAL/MOL
REMARK 922        TOTAL FREE ENERGY PREDICTED BY IDOCK:  -13.98 KCAL/MOL
REMARK 923 INTER-LIGAND FREE ENERGY PREDICTED BY IDOCK:  -10.47 KCAL/MOL
REMARK 924 INTRA-LIGAND FREE ENERGY PREDICTED BY IDOCK:   -3.50 KCAL/MOL
REMARK 927      BINDING AFFINITY PREDICTED BY RF-SCORE:    0.00 PKD
ROOT
HETATM    1  C   UNL     1     -12.217  14.187  64.989  1.00  0.00    -0.450 C  
HETATM    2  C   UNL     1     -12.046  13.606  66.382  1.00  0.00    -0.433 C  
ENDROOT
BRANCH   2   3
HETATM    3  O   UNL     1     -11.679  12.230  66.240  1.00  0.00    -0.426 OA 
BRANCH   3   4
HETATM    4  C   UNL     1     -11.384  11.610  67.380  1.00  0.00    -0.300 A  
HETATM    5  N   UNL     1     -12.266  11.266  68.290  1.00  0.00    -0.548 NA 
HETATM    6  C   UNL     1     -11.536  10.672  69.278  1.00  0.00    -0.275 A  
HETATM    7  C   UNL     1     -10.169  10.580  68.948  1.00  0.00    -0.208 A  
HETATM    8  C   UNL     1      -9.286   9.883  69.809  1.00  0.00    -0.248 A  
HETATM    9  N   UNL     1     -10.097  11.301  67.763  1.00  0.00    -0.177 NA 
HETATM   10  C   UNL     1     -11.147   9.564  71.385  1.00  0.00    -0.438 A  
HETATM   11  C   UNL     1     -12.019  10.195  70.508  1.00  0.00    -0.400 A  
HETATM   12  C   UNL     1      -9.818   9.387  71.022  1.00  0.00    -0.317 A  
BRANCH   9  13
HETATM   13  C   UNL     1      -8.935  11.860  67.070  1.00  0.00    -0.190 C  
BRANCH  13  14
HETATM   14  C   UNL     1      -8.277  12.986  67.828  1.00  0.00    -0.168 A  
HETATM   15  C   UNL     1      -6.438  14.520  68.175  1.00  0.00    -0.143 A  
HETATM   16  C   UNL     1      -7.310  15.474  68.726  1.00  0.00    -0.141 A  
HETATM   17  C   UNL     1      -9.053  13.773  68.681  1.00  0.00    -0.063 A  
HETATM   18  C   UNL     1      -6.931  13.309  67.671  1.00  0.00    -0.164 A  
HETATM   19  C   UNL     1      -8.581  15.014  69.107  1.00  0.00    -0.188 A  
BRANCH  16  20
HETATM   20  C   UNL     1      -6.985  16.931  68.767  1.00  0.00    -0.204 A  
HETATM   21  C   UNL     1      -6.036  17.400  69.707  1.00  0.00    -0.228 A  
HETATM   22  C   UNL     1      -7.654  17.915  67.978  1.00  0.00    -0.238 A  
HETATM   23  C   UNL     1      -5.742  18.759  69.860  1.00  0.00    -0.253 A  
HETATM   24  C   UNL     1      -7.291  19.275  68.108  1.00  0.00    -0.316 A  
HETATM   25  C   UNL     1      -6.354  19.696  69.045  1.00  0.00    -0.332 A  
BRANCH  22  26
HETATM   26  C   UNL     1      -8.764  17.659  67.050  1.00  0.00    -0.242 A  
HETATM   27  N   UNL     1      -8.754  16.847  66.006  1.00  0.00    -0.517 NA 
HETATM   28  H   UNL     1      -7.975  16.268  65.694  1.00  0.00     0.000 HD 
HETATM   29  N   UNL     1      -9.994  16.935  65.424  1.00  0.00    -0.546 NA 
HETATM   30  N   UNL     1     -10.760  17.800  66.071  1.00  0.00    -0.230 NA 
HETATM   31  N   UNL     1      -9.984  18.284  67.050  1.00  0.00    -0.325 NA 
ENDBRANCH  22  26
ENDBRANCH  16  20
ENDBRANCH  13  14
ENDBRANCH   9  13
BRANCH   8  32
HETATM   32  C   UNL     1      -7.822   9.764  69.611  1.00  0.00    -0.142 C  
HETATM   33  O   UNL     1      -7.021  10.575  70.045  1.00  0.00    -0.145 OA 
BRANCH  32  34
HETATM   34  O   UNL     1      -7.490   8.551  69.101  1.00  0.00    -0.084 OA 
BRANCH  34  35
HETATM   35  C   UNL     1      -7.183   8.610  67.701  1.00  0.00    -0.084 C  
HETATM   36  C   UNL     1      -5.713   8.204  67.584  1.00  0.00    -0.039 C  
BRANCH  35  37
HETATM   37  O   UNL     1      -7.895   7.638  66.933  1.00  0.00    -0.107 OA 
BRANCH  37  38
HETATM   38  C   UNL     1      -9.035   8.066  66.346  1.00  0.00    -0.169 C  
HETATM   39  O   UNL     1     -10.151   7.610  66.515  1.00  0.00    -0.220 OA 
BRANCH  38  40
HETATM   40  O   UNL     1      -8.696   9.108  65.563  1.00  0.00    -0.158 OA 
BRANCH  40  41
HETATM   41  C   UNL     1      -8.287   8.989  64.181  1.00  0.00    -0.173 C  
HETATM   42  C   UNL     1      -5.350   9.009  63.700  1.00  0.00    -0.062 C  
HETATM   43  C   UNL     1      -7.513  10.264  63.837  1.00  0.00    -0.077 C  
HETATM   44  C   UNL     1      -6.070  10.195  64.326  1.00  0.00    -0.137 C  
HETATM   45  C   UNL     1      -6.053   7.686  63.984  1.00  0.00    -0.049 C  
HETATM   46  C   UNL     1      -7.562   7.720  63.720  1.00  0.00    -0.118 C  
ENDBRANCH  40  41
ENDBRANCH  38  40
ENDBRANCH  37  38
ENDBRANCH  35  37
ENDBRANCH  34  35
ENDBRANCH  32  34
ENDBRANCH   8  32
ENDBRANCH   3   4
ENDBRANCH   2   3
TORSDOF 13
ENDMDL
MODEL       72
REMARK 921   NORMALIZED FREE ENERGY PREDICTED BY IDOCK:   -6.54 KCAL/MOL
REMARK 922        TOTAL FREE ENERGY PREDICTED BY IDOCK:  -13.96 KCAL/MOL
REMARK 923 INTER-LIGAND FREE ENERGY PREDICTED BY IDOCK:  -11.03 KCAL/MOL
REMARK 924 INTRA-LIGAND FREE ENERGY PREDICTED BY IDOCK:   -2.93 KCAL/MOL
REMARK 927      BINDING AFFINITY PREDICTED BY RF-SCORE:    0.00 PKD
ROOT
HETATM    1  C   UNL     1      -5.646   9.167  63.351  1.00  0.00    -0.071 C  
HETATM    2  C   UNL     1      -7.080   8.770  63.045  1.00  0.00    -0.089 C  
ENDROOT
BRANCH   2   3
HETATM    3  O   UNL     1      -7.797   8.734  64.283  1.00  0.00    -0.118 OA 
BRANCH   3   4
HETATM    4  C   UNL     1      -8.678   9.718  64.446  1.00  0.00    -0.206 A  
HETATM    5  N   UNL     1      -9.704   9.938  63.657  1.00  0.00     0.013 NA 
HETATM    6  C   UNL     1     -10.325  11.032  64.185  1.00  0.00    -0.369 A  
HETATM    7  C   UNL     1      -9.711  11.469  65.376  1.00  0.00    -0.233 A  
HETATM    8  C   UNL     1     -10.299  12.521  66.122  1.00  0.00    -0.274 A  
HETATM    9  N   UNL     1      -8.583  10.662  65.447  1.00  0.00    -0.180 NA 
HETATM   10  C   UNL     1     -11.985  12.775  64.350  1.00  0.00    -0.464 A  
HETATM   11  C   UNL     1     -11.440  11.703  63.655  1.00  0.00    -0.458 A  
HETATM   12  C   UNL     1     -11.440  13.149  65.572  1.00  0.00    -0.343 A  
BRANCH   9  13
HETATM   13  C   UNL     1      -7.367  10.811  66.247  1.00  0.00    -0.138 C  
BRANCH  13  14
HETATM   14  C   UNL     1      -7.462  10.150  67.599  1.00  0.00    -0.090 A  
HETATM   15  C   UNL     1      -7.647  10.266  70.009  1.00  0.00    -0.116 A  
HETATM   16  C   UNL     1      -8.318   9.032  70.039  1.00  0.00    -0.144 A  
HETATM   17  C   UNL     1      -7.797   8.797  67.671  1.00  0.00    -0.102 A  
HETATM   18  C   UNL     1      -7.278  10.851  68.790  1.00  0.00    -0.091 A  
HETATM   19  C   UNL     1      -8.241   8.251  68.875  1.00  0.00    -0.116 A  
BRANCH  16  20
HETATM   20  C   UNL     1      -9.201   8.625  71.172  1.00  0.00    -0.269 A  
HETATM   21  C   UNL     1      -8.698   7.737  72.154  1.00  0.00    -0.169 A  
HETATM   22  C   UNL     1     -10.576   8.993  71.277  1.00  0.00    -0.378 A  
HETATM   23  C   UNL     1      -9.491   7.247  73.197  1.00  0.00    -0.228 A  
HETATM   24  C   UNL     1     -11.337   8.535  72.377  1.00  0.00    -0.412 A  
HETATM   25  C   UNL     1     -10.806   7.663  73.322  1.00  0.00    -0.379 A  
BRANCH  22  26
HETATM   26  C   UNL     1     -11.329   9.784  70.295  1.00  0.00    -0.272 A  
HETATM   27  N   UNL     1     -11.323   9.631  68.981  1.00  0.00    -0.460 NA 
HETATM   28  H   UNL     1     -10.803   8.931  68.453  1.00  0.00     0.000 HD 
HETATM   29  N   UNL     1     -12.155  10.595  68.466  1.00  0.00    -0.354 NA 
HETATM   30  N   UNL     1     -12.652  11.354  69.430  1.00  0.00    -0.140 NA 
HETATM   31  N   UNL     1     -12.105  10.882  70.559  1.00  0.00    -0.340 NA 
ENDBRANCH  22  26
ENDBRANCH  16  20
ENDBRANCH  13  14
ENDBRANCH   9  13
BRANCH   8  32
HETATM   32  C   UNL     1      -9.725  13.113  67.354  1.00  0.00    -0.220 C  
HETATM   33  O   UNL     1      -9.903  12.646  68.466  1.00  0.00    -0.216 OA 
BRANCH  32  34
HETATM   34  O   UNL     1      -8.817  14.078  67.060  1.00  0.00    -0.217 OA 
BRANCH  34  35
HETATM   35  C   UNL     1      -8.064  14.491  68.210  1.00  0.00    -0.140 C  
HETATM   36  C   UNL     1      -6.604  14.178  67.881  1.00  0.00    -0.174 C  
BRANCH  35  37
HETATM   37  O   UNL     1      -8.099  15.903  68.420  1.00  0.00    -0.140 OA 
BRANCH  37  38
HETATM   38  C   UNL     1      -9.328  16.456  68.527  1.00  0.00    -0.225 C  
HETATM   39  O   UNL     1     -10.129  16.270  69.426  1.00  0.00    -0.249 OA 
BRANCH  38  40
HETATM   40  O   UNL     1      -9.478  17.269  67.464  1.00  0.00    -0.241 OA 
BRANCH  40  41
HETATM   41  C   UNL     1      -9.804  18.675  67.554  1.00  0.00    -0.320 C  
HETATM   42  C   UNL     1      -7.516  20.552  67.239  1.00  0.00    -0.384 C  
HETATM   43  C   UNL     1      -9.023  19.236  68.745  1.00  0.00    -0.399 C  
HETATM   44  C   UNL     1      -7.575  19.540  68.375  1.00  0.00    -0.365 C  
HETATM   45  C   UNL     1      -8.275  20.083  66.002  1.00  0.00    -0.265 C  
HETATM   46  C   UNL     1      -9.681  19.555  66.305  1.00  0.00    -0.481 C  
ENDBRANCH  40  41
ENDBRANCH  38  40
ENDBRANCH  37  38
ENDBRANCH  35  37
ENDBRANCH  34  35
ENDBRANCH  32  34
ENDBRANCH   8  32
ENDBRANCH   3   4
ENDBRANCH   2   3
TORSDOF 13
ENDMDL
MODEL       73
REMARK 921   NORMALIZED FREE ENERGY PREDICTED BY IDOCK:   -6.54 KCAL/MOL
REMARK 922        TOTAL FREE ENERGY PREDICTED BY IDOCK:  -13.96 KCAL/MOL
REMARK 923 INTER-LIGAND FREE ENERGY PREDICTED BY IDOCK:  -11.89 KCAL/MOL
REMARK 924 INTRA-LIGAND FREE ENERGY PREDICTED BY IDOCK:   -2.06 KCAL/MOL
REMARK 927      BINDING AFFINITY PREDICTED BY RF-SCORE:    0.00 PKD
ROOT
HETATM    1  C   UNL     1     -14.148  15.356  71.740  1.00  0.00    -0.630 C  
HETATM    2  C   UNL     1     -12.642  15.490  71.881  1.00  0.00    -0.405 C  
ENDROOT
BRANCH   2   3
HETATM    3  O   UNL     1     -12.043  14.333  71.289  1.00  0.00    -0.342 OA 
BRANCH   3   4
HETATM    4  C   UNL     1     -11.110  14.592  70.377  1.00  0.00     0.007 A  
HETATM    5  N   UNL     1     -10.221  15.553  70.473  1.00  0.00    -0.057 NA 
HETATM    6  C   UNL     1      -9.480  15.461  69.332  1.00  0.00    -0.267 A  
HETATM    7  C   UNL     1      -9.869  14.369  68.531  1.00  0.00    -0.233 A  
HETATM    8  C   UNL     1      -9.126  14.054  67.366  1.00  0.00    -0.209 A  
HETATM    9  N   UNL     1     -11.001  13.903  69.188  1.00  0.00    -0.241 NA 
HETATM   10  C   UNL     1      -7.748  16.053  67.759  1.00  0.00    -0.154 A  
HETATM   11  C   UNL     1      -8.442  16.320  68.932  1.00  0.00    -0.253 A  
HETATM   12  C   UNL     1      -8.068  14.924  67.015  1.00  0.00    -0.200 A  
BRANCH   9  13
HETATM   13  C   UNL     1     -12.061  13.009  68.719  1.00  0.00    -0.162 C  
BRANCH  13  14
HETATM   14  C   UNL     1     -11.700  11.550  68.834  1.00  0.00    -0.403 A  
HETATM   15  C   UNL     1     -11.025   9.447  67.845  1.00  0.00    -0.122 A  
HETATM   16  C   UNL     1     -10.377   9.071  69.034  1.00  0.00    -0.233 A  
HETATM   17  C   UNL     1     -11.374  11.028  70.087  1.00  0.00    -0.335 A  
HETATM   18  C   UNL     1     -11.627  10.706  67.726  1.00  0.00    -0.063 A  
HETATM   19  C   UNL     1     -10.700   9.811  70.182  1.00  0.00    -0.339 A  
BRANCH  16  20
HETATM   20  C   UNL     1      -9.286   8.052  69.066  1.00  0.00    -0.147 A  
HETATM   21  C   UNL     1      -8.310   8.052  68.040  1.00  0.00    -0.126 A  
HETATM   22  C   UNL     1      -9.219   6.993  70.022  1.00  0.00    -0.148 A  
HETATM   23  C   UNL     1      -7.309   7.079  67.959  1.00  0.00    -0.097 A  
HETATM   24  C   UNL     1      -8.159   6.061  69.954  1.00  0.00    -0.117 A  
HETATM   25  C   UNL     1      -7.219   6.094  68.929  1.00  0.00    -0.084 A  
BRANCH  22  26
HETATM   26  C   UNL     1     -10.207   6.728  71.076  1.00  0.00    -0.197 A  
HETATM   27  N   UNL     1     -10.026   6.847  72.381  1.00  0.00    -0.165 NA 
HETATM   28  H   UNL     1      -9.174   7.153  72.851  1.00  0.00     0.000 HD 
HETATM   29  N   UNL     1     -11.206   6.481  72.980  1.00  0.00    -0.194 NA 
HETATM   30  N   UNL     1     -12.101   6.116  72.075  1.00  0.00    -0.283 NA 
HETATM   31  N   UNL     1     -11.469   6.224  70.899  1.00  0.00    -0.330 NA 
ENDBRANCH  22  26
ENDBRANCH  16  20
ENDBRANCH  13  14
ENDBRANCH   9  13
BRANCH   8  32
HETATM   32  C   UNL     1      -9.464  12.975  66.408  1.00  0.00    -0.224 C  
HETATM   33  O   UNL     1      -8.759  11.996  66.228  1.00  0.00    -0.144 OA 
BRANCH  32  34
HETATM   34  O   UNL     1     -10.733  13.105  65.946  1.00  0.00    -0.270 OA 
BRANCH  34  35
HETATM   35  C   UNL     1     -10.899  14.265  65.117  1.00  0.00    -0.378 C  
HETATM   36  C   UNL     1     -12.100  13.962  64.220  1.00  0.00    -0.477 C  
BRANCH  35  37
HETATM   37  O   UNL     1     -11.276  15.427  65.856  1.00  0.00    -0.290 OA 
BRANCH  37  38
HETATM   38  C   UNL     1     -11.035  16.615  65.258  1.00  0.00    -0.120 C  
HETATM   39  O   UNL     1     -11.406  16.955  64.148  1.00  0.00    -1.208 OA 
BRANCH  38  40
HETATM   40  O   UNL     1     -10.330  17.352  66.136  1.00  0.00    -0.355 OA 
BRANCH  40  41
HETATM   41  C   UNL     1     -10.306  18.798  66.152  1.00  0.00    -0.448 C  
HETATM   42  C   UNL     1      -8.854  20.041  68.433  1.00  0.00    -0.151 C  
HETATM   43  C   UNL     1     -11.008  19.239  67.438  1.00  0.00    -0.445 C  
HETATM   44  C   UNL     1     -10.076  19.158  68.643  1.00  0.00    -0.471 C  
HETATM   45  C   UNL     1      -8.087  19.680  67.164  1.00  0.00    -0.315 C  
HETATM   46  C   UNL     1      -8.978  19.529  65.927  1.00  0.00    -0.068 C  
ENDBRANCH  40  41
ENDBRANCH  38  40
ENDBRANCH  37  38
ENDBRANCH  35  37
ENDBRANCH  34  35
ENDBRANCH  32  34
ENDBRANCH   8  32
ENDBRANCH   3   4
ENDBRANCH   2   3
TORSDOF 13
ENDMDL
MODEL       74
REMARK 921   NORMALIZED FREE ENERGY PREDICTED BY IDOCK:   -6.53 KCAL/MOL
REMARK 922        TOTAL FREE ENERGY PREDICTED BY IDOCK:  -13.94 KCAL/MOL
REMARK 923 INTER-LIGAND FREE ENERGY PREDICTED BY IDOCK:  -10.98 KCAL/MOL
REMARK 924 INTRA-LIGAND FREE ENERGY PREDICTED BY IDOCK:   -2.96 KCAL/MOL
REMARK 927      BINDING AFFINITY PREDICTED BY RF-SCORE:    0.00 PKD
ROOT
HETATM    1  C   UNL     1      -6.474   7.731  73.624  1.00  0.00    -0.085 C  
HETATM    2  C   UNL     1      -7.551   7.136  72.734  1.00  0.00    -0.083 C  
ENDROOT
BRANCH   2   3
HETATM    3  O   UNL     1      -7.855   8.093  71.714  1.00  0.00    -0.094 OA 
BRANCH   3   4
HETATM    4  C   UNL     1      -9.127   8.479  71.672  1.00  0.00    -0.229 A  
HETATM    5  N   UNL     1     -10.077   7.999  72.440  1.00  0.00    -0.240 NA 
HETATM    6  C   UNL     1     -11.206   8.663  72.058  1.00  0.00    -0.364 A  
HETATM    7  C   UNL     1     -10.944   9.636  71.073  1.00  0.00    -0.361 A  
HETATM    8  C   UNL     1     -11.983  10.501  70.649  1.00  0.00    -0.455 A  
HETATM    9  N   UNL     1      -9.608   9.404  70.770  1.00  0.00    -0.269 NA 
HETATM   10  C   UNL     1     -13.545   9.255  72.083  1.00  0.00    -0.536 A  
HETATM   11  C   UNL     1     -12.509   8.450  72.539  1.00  0.00    -0.337 A  
HETATM   12  C   UNL     1     -13.274  10.277  71.181  1.00  0.00    -0.429 A  
BRANCH   9  13
HETATM   13  C   UNL     1      -8.814   9.840  69.621  1.00  0.00    -0.211 C  
BRANCH  13  14
HETATM   14  C   UNL     1      -8.847   8.864  68.472  1.00  0.00    -0.134 A  
HETATM   15  C   UNL     1      -7.756   7.285  66.998  1.00  0.00    -0.111 A  
HETATM   16  C   UNL     1      -8.957   6.573  66.837  1.00  0.00    -0.128 A  
HETATM   17  C   UNL     1     -10.078   8.375  68.032  1.00  0.00    -0.245 A  
HETATM   18  C   UNL     1      -7.689   8.386  67.861  1.00  0.00    -0.103 A  
HETATM   19  C   UNL     1     -10.132   7.228  67.241  1.00  0.00    -0.291 A  
BRANCH  16  20
HETATM   20  C   UNL     1      -8.992   5.142  66.414  1.00  0.00    -0.125 A  
HETATM   21  C   UNL     1      -9.180   4.831  65.045  1.00  0.00    -0.136 A  
HETATM   22  C   UNL     1      -8.952   4.044  67.326  1.00  0.00    -0.148 A  
HETATM   23  C   UNL     1      -9.306   3.516  64.586  1.00  0.00    -0.150 A  
HETATM   24  C   UNL     1      -9.017   2.722  66.828  1.00  0.00    -0.168 A  
HETATM   25  C   UNL     1      -9.203   2.459  65.475  1.00  0.00    -0.062 A  
BRANCH  22  26
HETATM   26  C   UNL     1      -8.905   4.148  68.790  1.00  0.00    -0.103 A  
HETATM   27  N   UNL     1      -7.878   3.867  69.573  1.00  0.00    -0.052 NA 
HETATM   28  H   UNL     1      -6.958   3.543  69.277  1.00  0.00     0.000 HD 
HETATM   29  N   UNL     1      -8.289   4.094  70.864  1.00  0.00    -0.077 NA 
HETATM   30  N   UNL     1      -9.554   4.485  70.895  1.00  0.00    -0.166 NA 
HETATM   31  N   UNL     1      -9.950   4.475  69.615  1.00  0.00    -0.218 NA 
ENDBRANCH  22  26
ENDBRANCH  16  20
ENDBRANCH  13  14
ENDBRANCH   9  13
BRANCH   8  32
HETATM   32  C   UNL     1     -11.857  11.522  69.582  1.00  0.00    -0.354 C  
HETATM   33  O   UNL     1     -12.260  11.352  68.443  1.00  0.00    -0.571 OA 
BRANCH  32  34
HETATM   34  O   UNL     1     -11.457  12.717  70.087  1.00  0.00    -0.125 OA 
BRANCH  34  35
HETATM   35  C   UNL     1     -12.328  13.792  69.708  1.00  0.00    -0.255 C  
HETATM   36  C   UNL     1     -13.043  14.216  70.992  1.00  0.00    -0.370 C  
BRANCH  35  37
HETATM   37  O   UNL     1     -11.621  14.956  69.278  1.00  0.00    -0.273 OA 
BRANCH  37  38
HETATM   38  C   UNL     1     -11.338  15.025  67.959  1.00  0.00    -0.327 C  
HETATM   39  O   UNL     1     -12.013  14.575  67.049  1.00  0.00    -0.404 OA 
BRANCH  38  40
HETATM   40  O   UNL     1     -10.183  15.708  67.848  1.00  0.00    -0.234 OA 
BRANCH  40  41
HETATM   41  C   UNL     1      -9.943  16.749  66.874  1.00  0.00    -0.273 C  
HETATM   42  C   UNL     1      -8.471  19.136  67.871  1.00  0.00    -0.335 C  
HETATM   43  C   UNL     1     -10.652  18.006  67.384  1.00  0.00    -0.378 C  
HETATM   44  C   UNL     1      -9.824  18.729  68.440  1.00  0.00    -0.429 C  
HETATM   45  C   UNL     1      -7.687  17.945  67.329  1.00  0.00    -0.218 C  
HETATM   46  C   UNL     1      -8.508  17.031  66.414  1.00  0.00    -0.318 C  
ENDBRANCH  40  41
ENDBRANCH  38  40
ENDBRANCH  37  38
ENDBRANCH  35  37
ENDBRANCH  34  35
ENDBRANCH  32  34
ENDBRANCH   8  32
ENDBRANCH   3   4
ENDBRANCH   2   3
TORSDOF 13
ENDMDL
MODEL       75
REMARK 921   NORMALIZED FREE ENERGY PREDICTED BY IDOCK:   -6.52 KCAL/MOL
REMARK 922        TOTAL FREE ENERGY PREDICTED BY IDOCK:  -13.93 KCAL/MOL
REMARK 923 INTER-LIGAND FREE ENERGY PREDICTED BY IDOCK:  -10.75 KCAL/MOL
REMARK 924 INTRA-LIGAND FREE ENERGY PREDICTED BY IDOCK:   -3.19 KCAL/MOL
REMARK 927      BINDING AFFINITY PREDICTED BY RF-SCORE:    0.00 PKD
ROOT
HETATM    1  C   UNL     1     -13.755  13.773  72.214  1.00  0.00    -0.673 C  
HETATM    2  C   UNL     1     -13.353  12.319  72.045  1.00  0.00    -0.386 C  
ENDROOT
BRANCH   2   3
HETATM    3  O   UNL     1     -13.136  12.084  70.650  1.00  0.00     0.088 OA 
BRANCH   3   4
HETATM    4  C   UNL     1     -12.085  11.318  70.370  1.00  0.00    -0.384 A  
HETATM    5  N   UNL     1     -11.477  10.541  71.236  1.00  0.00    -0.075 NA 
HETATM    6  C   UNL     1     -10.466   9.954  70.532  1.00  0.00    -0.264 A  
HETATM    7  C   UNL     1     -10.484  10.320  69.171  1.00  0.00    -0.224 A  
HETATM    8  C   UNL     1      -9.577   9.709  68.270  1.00  0.00    -0.153 A  
HETATM    9  N   UNL     1     -11.476  11.292  69.133  1.00  0.00    -0.267 NA 
HETATM   10  C   UNL     1      -8.553   8.530  70.170  1.00  0.00    -0.132 A  
HETATM   11  C   UNL     1      -9.484   9.086  71.037  1.00  0.00    -0.342 A  
HETATM   12  C   UNL     1      -8.625   8.815  68.812  1.00  0.00    -0.137 A  
BRANCH   9  13
HETATM   13  C   UNL     1     -11.773  12.294  68.110  1.00  0.00    -0.349 C  
BRANCH  13  14
HETATM   14  C   UNL     1     -10.849  13.485  68.158  1.00  0.00    -0.271 A  
HETATM   15  C   UNL     1      -9.445  15.126  67.068  1.00  0.00    -0.237 A  
HETATM   16  C   UNL     1      -9.703  16.056  68.088  1.00  0.00    -0.217 A  
HETATM   17  C   UNL     1     -10.810  14.266  69.314  1.00  0.00    -0.241 A  
HETATM   18  C   UNL     1     -10.066  13.870  67.071  1.00  0.00    -0.256 A  
HETATM   19  C   UNL     1     -10.262  15.548  69.272  1.00  0.00    -0.252 A  
BRANCH  16  20
HETATM   20  C   UNL     1      -9.549  17.528  67.891  1.00  0.00    -0.277 A  
HETATM   21  C   UNL     1     -10.634  18.271  67.363  1.00  0.00    -0.425 A  
HETATM   22  C   UNL     1      -8.326  18.233  68.103  1.00  0.00    -0.296 A  
HETATM   23  C   UNL     1     -10.536  19.636  67.073  1.00  0.00    -0.602 A  
HETATM   24  C   UNL     1      -8.274  19.625  67.863  1.00  0.00    -0.344 A  
HETATM   25  C   UNL     1      -9.362  20.319  67.344  1.00  0.00    -0.531 A  
BRANCH  22  26
HETATM   26  C   UNL     1      -7.050  17.630  68.508  1.00  0.00    -0.239 A  
HETATM   27  N   UNL     1      -6.306  16.797  67.800  1.00  0.00    -0.138 NA 
HETATM   28  H   UNL     1      -6.502  16.456  66.860  1.00  0.00     0.000 HD 
HETATM   29  N   UNL     1      -5.217  16.481  68.576  1.00  0.00    -0.107 NA 
HETATM   30  N   UNL     1      -5.286  17.080  69.754  1.00  0.00    -0.167 NA 
HETATM   31  N   UNL     1      -6.444  17.756  69.731  1.00  0.00    -0.139 NA 
ENDBRANCH  22  26
ENDBRANCH  16  20
ENDBRANCH  13  14
ENDBRANCH   9  13
BRANCH   8  32
HETATM   32  C   UNL     1      -9.450  10.045  66.832  1.00  0.00    -0.166 C  
HETATM   33  O   UNL     1     -10.388  10.416  66.147  1.00  0.00    -0.242 OA 
BRANCH  32  34
HETATM   34  O   UNL     1      -8.148  10.106  66.453  1.00  0.00    -0.117 OA 
BRANCH  34  35
HETATM   35  C   UNL     1      -7.872   9.291  65.304  1.00  0.00    -0.105 C  
HETATM   36  C   UNL     1      -6.837  10.067  64.488  1.00  0.00    -0.127 C  
BRANCH  35  37
HETATM   37  O   UNL     1      -7.230   8.059  65.637  1.00  0.00    -0.068 OA 
BRANCH  37  38
HETATM   38  C   UNL     1      -7.927   6.934  65.362  1.00  0.00    -0.125 C  
HETATM   39  O   UNL     1      -8.182   6.493  64.256  1.00  0.00    -0.091 OA 
BRANCH  38  40
HETATM   40  O   UNL     1      -8.258   6.387  66.547  1.00  0.00    -0.108 OA 
BRANCH  40  41
HETATM   41  C   UNL     1      -9.367   5.481  66.745  1.00  0.00    -0.132 C  
HETATM   42  C   UNL     1     -10.497   5.405  69.497  1.00  0.00    -0.343 C  
HETATM   43  C   UNL     1      -8.922   4.460  67.794  1.00  0.00    -0.136 C  
HETATM   44  C   UNL     1      -9.054   5.014  69.209  1.00  0.00    -0.142 C  
HETATM   45  C   UNL     1     -11.035   6.421  68.494  1.00  0.00    -0.396 C  
HETATM   46  C   UNL     1     -10.760   6.050  67.033  1.00  0.00    -0.412 C  
ENDBRANCH  40  41
ENDBRANCH  38  40
ENDBRANCH  37  38
ENDBRANCH  35  37
ENDBRANCH  34  35
ENDBRANCH  32  34
ENDBRANCH   8  32
ENDBRANCH   3   4
ENDBRANCH   2   3
TORSDOF 13
ENDMDL
MODEL       76
REMARK 921   NORMALIZED FREE ENERGY PREDICTED BY IDOCK:   -6.51 KCAL/MOL
REMARK 922        TOTAL FREE ENERGY PREDICTED BY IDOCK:  -13.92 KCAL/MOL
REMARK 923 INTER-LIGAND FREE ENERGY PREDICTED BY IDOCK:  -11.76 KCAL/MOL
REMARK 924 INTRA-LIGAND FREE ENERGY PREDICTED BY IDOCK:   -2.16 KCAL/MOL
REMARK 927      BINDING AFFINITY PREDICTED BY RF-SCORE:    0.00 PKD
ROOT
HETATM    1  C   UNL     1     -12.243  12.020  64.062  1.00  0.00    -0.505 C  
HETATM    2  C   UNL     1     -12.367  12.390  65.530  1.00  0.00    -0.176 C  
ENDROOT
BRANCH   2   3
HETATM    3  O   UNL     1     -11.062  12.312  66.112  1.00  0.00    -0.284 OA 
BRANCH   3   4
HETATM    4  C   UNL     1     -11.010  11.680  67.282  1.00  0.00    -0.267 A  
HETATM    5  N   UNL     1     -12.060  11.343  67.994  1.00  0.00    -0.615 NA 
HETATM    6  C   UNL     1     -11.550  10.731  69.102  1.00  0.00    -0.305 A  
HETATM    7  C   UNL     1     -10.147  10.619  69.050  1.00  0.00    -0.213 A  
HETATM    8  C   UNL     1      -9.463   9.902  70.063  1.00  0.00    -0.246 A  
HETATM    9  N   UNL     1      -9.829  11.348  67.910  1.00  0.00    -0.175 NA 
HETATM   10  C   UNL     1     -11.606   9.602  71.233  1.00  0.00    -0.466 A  
HETATM   11  C   UNL     1     -12.276  10.253  70.206  1.00  0.00    -0.298 A  
HETATM   12  C   UNL     1     -10.233   9.407  71.141  1.00  0.00    -0.361 A  
BRANCH   9  13
HETATM   13  C   UNL     1      -8.545  11.893  67.469  1.00  0.00    -0.160 C  
BRANCH  13  14
HETATM   14  C   UNL     1      -8.355  13.341  67.842  1.00  0.00    -0.163 A  
HETATM   15  C   UNL     1      -7.526  15.564  67.365  1.00  0.00    -0.235 A  
HETATM   16  C   UNL     1      -8.556  16.136  68.132  1.00  0.00    -0.177 A  
HETATM   17  C   UNL     1      -9.134  13.886  68.864  1.00  0.00     0.094 A  
HETATM   18  C   UNL     1      -7.465  14.178  67.170  1.00  0.00     0.080 A  
HETATM   19  C   UNL     1      -9.249  15.270  68.992  1.00  0.00    -0.223 A  
BRANCH  16  20
HETATM   20  C   UNL     1      -9.010  17.545  67.942  1.00  0.00    -0.251 A  
HETATM   21  C   UNL     1      -8.624  18.528  68.886  1.00  0.00    -0.181 A  
HETATM   22  C   UNL     1      -9.910  17.957  66.913  1.00  0.00    -0.321 A  
HETATM   23  C   UNL     1      -9.079  19.849  68.820  1.00  0.00    -0.133 A  
HETATM   24  C   UNL     1     -10.302  19.312  66.832  1.00  0.00    -0.524 A  
HETATM   25  C   UNL     1      -9.902  20.248  67.780  1.00  0.00    -0.534 A  
BRANCH  22  26
HETATM   26  C   UNL     1     -10.540  17.073  65.923  1.00  0.00    -0.216 A  
HETATM   27  N   UNL     1     -10.654  15.757  65.992  1.00  0.00    -0.321 NA 
HETATM   28  H   UNL     1     -10.329  15.158  66.751  1.00  0.00     0.000 HD 
HETATM   29  N   UNL     1     -11.294  15.353  64.847  1.00  0.00    -0.389 NA 
HETATM   30  N   UNL     1     -11.555  16.387  64.062  1.00  0.00    -1.082 NA 
HETATM   31  N   UNL     1     -11.048  17.447  64.706  1.00  0.00    -0.883 NA 
ENDBRANCH  22  26
ENDBRANCH  16  20
ENDBRANCH  13  14
ENDBRANCH   9  13
BRANCH   8  32
HETATM   32  C   UNL     1      -7.991   9.762  70.160  1.00  0.00    -0.186 C  
HETATM   33  O   UNL     1      -7.237   9.962  69.223  1.00  0.00    -0.062 OA 
BRANCH  32  34
HETATM   34  O   UNL     1      -7.593   9.611  71.449  1.00  0.00    -0.260 OA 
BRANCH  34  35
HETATM   35  C   UNL     1      -6.643   8.548  71.610  1.00  0.00    -0.073 C  
HETATM   36  C   UNL     1      -6.051   8.733  73.009  1.00  0.00    -0.066 C  
BRANCH  35  37
HETATM   37  O   UNL     1      -7.251   7.257  71.635  1.00  0.00    -0.073 OA 
BRANCH  37  38
HETATM   38  C   UNL     1      -6.847   6.392  70.678  1.00  0.00    -0.063 C  
HETATM   39  O   UNL     1      -5.796   6.434  70.063  1.00  0.00    -0.017 OA 
BRANCH  38  40
HETATM   40  O   UNL     1      -7.817   5.466  70.561  1.00  0.00    -0.088 OA 
BRANCH  40  41
HETATM   41  C   UNL     1      -8.407   5.059  69.305  1.00  0.00    -0.082 C  
HETATM   42  C   UNL     1     -10.734   6.672  68.389  1.00  0.00    -0.314 C  
HETATM   43  C   UNL     1      -9.855   4.665  69.603  1.00  0.00    -0.293 C  
HETATM   44  C   UNL     1     -10.763   5.888  69.693  1.00  0.00    -0.415 C  
HETATM   45  C   UNL     1      -9.323   7.105  68.002  1.00  0.00    -0.129 C  
HETATM   46  C   UNL     1      -8.287   5.980  68.086  1.00  0.00    -0.113 C  
ENDBRANCH  40  41
ENDBRANCH  38  40
ENDBRANCH  37  38
ENDBRANCH  35  37
ENDBRANCH  34  35
ENDBRANCH  32  34
ENDBRANCH   8  32
ENDBRANCH   3   4
ENDBRANCH   2   3
TORSDOF 13
ENDMDL
MODEL       77
REMARK 921   NORMALIZED FREE ENERGY PREDICTED BY IDOCK:   -6.50 KCAL/MOL
REMARK 922        TOTAL FREE ENERGY PREDICTED BY IDOCK:  -13.89 KCAL/MOL
REMARK 923 INTER-LIGAND FREE ENERGY PREDICTED BY IDOCK:  -11.67 KCAL/MOL
REMARK 924 INTRA-LIGAND FREE ENERGY PREDICTED BY IDOCK:   -2.22 KCAL/MOL
REMARK 927      BINDING AFFINITY PREDICTED BY RF-SCORE:    0.00 PKD
ROOT
HETATM    1  C   UNL     1     -10.436  12.075  63.989  1.00  0.00    -0.410 C  
HETATM    2  C   UNL     1      -9.501  11.208  64.814  1.00  0.00    -0.218 C  
ENDROOT
BRANCH   2   3
HETATM    3  O   UNL     1      -9.356  11.821  66.099  1.00  0.00    -0.221 OA 
BRANCH   3   4
HETATM    4  C   UNL     1      -8.715  11.082  67.001  1.00  0.00    -0.141 A  
HETATM    5  N   UNL     1      -7.412  10.935  67.052  1.00  0.00    -0.115 NA 
HETATM    6  C   UNL     1      -7.194  10.103  68.112  1.00  0.00    -0.081 A  
HETATM    7  C   UNL     1      -8.388   9.776  68.785  1.00  0.00    -0.113 A  
HETATM    8  C   UNL     1      -8.333   9.018  69.981  1.00  0.00    -0.144 A  
HETATM    9  N   UNL     1      -9.359  10.337  67.965  1.00  0.00    -0.138 NA 
HETATM   10  C   UNL     1      -5.903   8.792  69.672  1.00  0.00    -0.029 A  
HETATM   11  C   UNL     1      -5.958   9.586  68.535  1.00  0.00    -0.043 A  
HETATM   12  C   UNL     1      -7.066   8.544  70.392  1.00  0.00    -0.038 A  
BRANCH   9  13
HETATM   13  C   UNL     1     -10.801  10.093  67.911  1.00  0.00    -0.284 C  
BRANCH  13  14
HETATM   14  C   UNL     1     -11.599  11.063  68.746  1.00  0.00    -0.386 A  
HETATM   15  C   UNL     1     -12.586  11.740  70.849  1.00  0.00    -0.384 A  
HETATM   16  C   UNL     1     -12.459  13.094  70.497  1.00  0.00    -0.322 A  
HETATM   17  C   UNL     1     -11.805  12.359  68.269  1.00  0.00    -0.364 A  
HETATM   18  C   UNL     1     -12.099  10.733  70.004  1.00  0.00    -0.423 A  
HETATM   19  C   UNL     1     -12.209  13.368  69.143  1.00  0.00    -0.207 A  
BRANCH  16  20
HETATM   20  C   UNL     1     -12.430  14.189  71.512  1.00  0.00    -0.423 A  
HETATM   21  C   UNL     1     -13.305  14.124  72.623  1.00  0.00    -0.638 A  
HETATM   22  C   UNL     1     -11.638  15.370  71.382  1.00  0.00    -0.461 A  
HETATM   23  C   UNL     1     -13.393  15.151  73.569  1.00  0.00    -0.172 A  
HETATM   24  C   UNL     1     -11.699  16.363  72.386  1.00  0.00    -0.459 A  
HETATM   25  C   UNL     1     -12.573  16.262  73.463  1.00  0.00    -0.622 A  
BRANCH  22  26
HETATM   26  C   UNL     1     -10.775  15.700  70.240  1.00  0.00    -0.338 A  
HETATM   27  N   UNL     1      -9.566  15.223  69.995  1.00  0.00    -0.449 NA 
HETATM   28  H   UNL     1      -9.055  14.543  70.558  1.00  0.00     0.000 HD 
HETATM   29  N   UNL     1      -9.133  15.817  68.835  1.00  0.00    -0.209 NA 
HETATM   30  N   UNL     1     -10.036  16.668  68.375  1.00  0.00    -0.244 NA 
HETATM   31  N   UNL     1     -11.034  16.631  69.268  1.00  0.00    -0.297 NA 
ENDBRANCH  22  26
ENDBRANCH  16  20
ENDBRANCH  13  14
ENDBRANCH   9  13
BRANCH   8  32
HETATM   32  C   UNL     1      -9.512   8.555  70.751  1.00  0.00    -0.178 C  
HETATM   33  O   UNL     1      -9.784   8.964  71.867  1.00  0.00    -0.307 OA 
BRANCH  32  34
HETATM   34  O   UNL     1     -10.347   7.815  69.977  1.00  0.00    -0.210 OA 
BRANCH  34  35
HETATM   35  C   UNL     1     -10.769   6.607  70.626  1.00  0.00    -0.241 C  
HETATM   36  C   UNL     1     -12.216   6.855  71.057  1.00  0.00    -0.427 C  
BRANCH  35  37
HETATM   37  O   UNL     1     -10.836   5.492  69.736  1.00  0.00    -0.331 OA 
BRANCH  37  38
HETATM   38  C   UNL     1      -9.756   4.679  69.721  1.00  0.00    -0.209 C  
HETATM   39  O   UNL     1      -9.463   3.882  68.848  1.00  0.00    -0.161 OA 
BRANCH  38  40
HETATM   40  O   UNL     1      -9.059   4.945  70.842  1.00  0.00    -0.133 OA 
BRANCH  40  41
HETATM   41  C   UNL     1      -8.798   3.979  71.886  1.00  0.00    -0.113 C  
HETATM   42  C   UNL     1     -10.475   4.235  74.331  1.00  0.00    -0.300 C  
HETATM   43  C   UNL     1      -8.350   4.769  73.118  1.00  0.00    -0.100 C  
HETATM   44  C   UNL     1      -9.540   5.347  73.877  1.00  0.00    -0.142 C  
HETATM   45  C   UNL     1     -10.973   3.384  73.167  1.00  0.00    -0.213 C  
HETATM   46  C   UNL     1      -9.860   2.926  72.218  1.00  0.00    -0.234 C  
ENDBRANCH  40  41
ENDBRANCH  38  40
ENDBRANCH  37  38
ENDBRANCH  35  37
ENDBRANCH  34  35
ENDBRANCH  32  34
ENDBRANCH   8  32
ENDBRANCH   3   4
ENDBRANCH   2   3
TORSDOF 13
ENDMDL
MODEL       78
REMARK 921   NORMALIZED FREE ENERGY PREDICTED BY IDOCK:   -6.49 KCAL/MOL
REMARK 922        TOTAL FREE ENERGY PREDICTED BY IDOCK:  -13.88 KCAL/MOL
REMARK 923 INTER-LIGAND FREE ENERGY PREDICTED BY IDOCK:  -11.44 KCAL/MOL
REMARK 924 INTRA-LIGAND FREE ENERGY PREDICTED BY IDOCK:   -2.44 KCAL/MOL
REMARK 927      BINDING AFFINITY PREDICTED BY RF-SCORE:    0.00 PKD
ROOT
HETATM    1  C   UNL     1      -7.686  10.320  66.456  1.00  0.00    -0.113 C  
HETATM    2  C   UNL     1      -7.146  10.270  67.875  1.00  0.00    -0.084 C  
ENDROOT
BRANCH   2   3
HETATM    3  O   UNL     1      -8.173  10.745  68.751  1.00  0.00    -0.129 OA 
BRANCH   3   4
HETATM    4  C   UNL     1      -8.324  10.039  69.869  1.00  0.00    -0.151 A  
HETATM    5  N   UNL     1      -7.360   9.778  70.721  1.00  0.00    -0.318 NA 
HETATM    6  C   UNL     1      -7.950   9.034  71.700  1.00  0.00     0.081 A  
HETATM    7  C   UNL     1      -9.336   8.883  71.493  1.00  0.00    -0.265 A  
HETATM    8  C   UNL     1     -10.126   8.241  72.477  1.00  0.00    -0.376 A  
HETATM    9  N   UNL     1      -9.515   9.452  70.237  1.00  0.00    -0.233 NA 
HETATM   10  C   UNL     1      -8.074   7.763  73.748  1.00  0.00    -0.234 A  
HETATM   11  C   UNL     1      -7.315   8.448  72.808  1.00  0.00    -0.113 A  
HETATM   12  C   UNL     1      -9.454   7.693  73.595  1.00  0.00    -0.340 A  
BRANCH   9  13
HETATM   13  C   UNL     1     -10.636   9.338  69.304  1.00  0.00    -0.222 C  
BRANCH  13  14
HETATM   14  C   UNL     1     -11.180  10.674  68.863  1.00  0.00    -0.333 A  
HETATM   15  C   UNL     1     -11.845  12.952  69.331  1.00  0.00    -0.371 A  
HETATM   16  C   UNL     1     -11.522  13.339  68.019  1.00  0.00    -0.344 A  
HETATM   17  C   UNL     1     -11.203  10.981  67.502  1.00  0.00    -0.372 A  
HETATM   18  C   UNL     1     -11.615  11.641  69.767  1.00  0.00    -0.389 A  
HETATM   19  C   UNL     1     -11.350  12.304  67.087  1.00  0.00    -0.398 A  
BRANCH  16  20
HETATM   20  C   UNL     1     -11.216  14.753  67.651  1.00  0.00    -0.332 A  
HETATM   21  C   UNL     1     -10.616  15.026  66.397  1.00  0.00    -0.310 A  
HETATM   22  C   UNL     1     -11.394  15.859  68.536  1.00  0.00    -0.374 A  
HETATM   23  C   UNL     1     -10.225  16.314  66.018  1.00  0.00    -0.376 A  
HETATM   24  C   UNL     1     -11.050  17.160  68.102  1.00  0.00    -0.118 A  
HETATM   25  C   UNL     1     -10.462  17.386  66.862  1.00  0.00    -0.279 A  
BRANCH  22  26
HETATM   26  C   UNL     1     -11.864  15.777  69.925  1.00  0.00    -0.344 A  
HETATM   27  N   UNL     1     -13.120  15.769  70.339  1.00  0.00    -0.743 NA 
HETATM   28  H   UNL     1     -13.953  15.807  69.752  1.00  0.00     0.000 HD 
HETATM   29  N   UNL     1     -13.085  15.697  71.710  1.00  0.00    -0.462 NA 
HETATM   30  N   UNL     1     -11.837  15.686  72.151  1.00  0.00    -0.428 NA 
HETATM   31  N   UNL     1     -11.080  15.782  71.049  1.00  0.00    -0.326 NA 
ENDBRANCH  22  26
ENDBRANCH  16  20
ENDBRANCH  13  14
ENDBRANCH   9  13
BRANCH   8  32
HETATM   32  C   UNL     1     -11.577   7.964  72.356  1.00  0.00    -0.380 C  
HETATM   33  O   UNL     1     -12.414   8.839  72.204  1.00  0.00    -0.351 OA 
BRANCH  32  34
HETATM   34  O   UNL     1     -11.816   6.636  72.209  1.00  0.00    -0.291 OA 
BRANCH  34  35
HETATM   35  C   UNL     1     -10.914   6.016  71.281  1.00  0.00    -0.278 C  
HETATM   36  C   UNL     1     -10.693   4.597  71.806  1.00  0.00     0.013 C  
BRANCH  35  37
HETATM   37  O   UNL     1     -11.482   5.845  69.982  1.00  0.00    -0.300 OA 
BRANCH  37  38
HETATM   38  C   UNL     1     -10.616   5.881  68.946  1.00  0.00    -0.288 C  
HETATM   39  O   UNL     1     -10.896   5.778  67.764  1.00  0.00    -0.252 OA 
BRANCH  38  40
HETATM   40  O   UNL     1      -9.394   6.081  69.472  1.00  0.00    -0.134 OA 
BRANCH  40  41
HETATM   41  C   UNL     1      -8.193   5.415  69.020  1.00  0.00    -0.094 C  
HETATM   42  C   UNL     1      -6.915   3.583  70.988  1.00  0.00    -0.033 C  
HETATM   43  C   UNL     1      -7.062   5.859  69.952  1.00  0.00    -0.068 C  
HETATM   44  C   UNL     1      -7.070   5.073  71.259  1.00  0.00    -0.056 C  
HETATM   45  C   UNL     1      -7.999   3.046  70.058  1.00  0.00    -0.051 C  
HETATM   46  C   UNL     1      -8.213   3.898  68.803  1.00  0.00    -0.083 C  
ENDBRANCH  40  41
ENDBRANCH  38  40
ENDBRANCH  37  38
ENDBRANCH  35  37
ENDBRANCH  34  35
ENDBRANCH  32  34
ENDBRANCH   8  32
ENDBRANCH   3   4
ENDBRANCH   2   3
TORSDOF 13
ENDMDL
MODEL       79
REMARK 921   NORMALIZED FREE ENERGY PREDICTED BY IDOCK:   -6.48 KCAL/MOL
REMARK 922        TOTAL FREE ENERGY PREDICTED BY IDOCK:  -13.86 KCAL/MOL
REMARK 923 INTER-LIGAND FREE ENERGY PREDICTED BY IDOCK:  -10.34 KCAL/MOL
REMARK 924 INTRA-LIGAND FREE ENERGY PREDICTED BY IDOCK:   -3.53 KCAL/MOL
REMARK 927      BINDING AFFINITY PREDICTED BY RF-SCORE:    0.00 PKD
ROOT
HETATM    1  C   UNL     1     -12.437   8.824  71.927  1.00  0.00    -0.434 C  
HETATM    2  C   UNL     1     -13.465   9.693  71.225  1.00  0.00    -0.289 C  
ENDROOT
BRANCH   2   3
HETATM    3  O   UNL     1     -12.768  10.538  70.304  1.00  0.00    -0.310 OA 
BRANCH   3   4
HETATM    4  C   UNL     1     -12.648  11.806  70.691  1.00  0.00    -0.201 A  
HETATM    5  N   UNL     1     -12.969  12.255  71.881  1.00  0.00    -0.352 NA 
HETATM    6  C   UNL     1     -12.693  13.591  71.838  1.00  0.00    -0.200 A  
HETATM    7  C   UNL     1     -12.118  13.976  70.611  1.00  0.00    -0.354 A  
HETATM    8  C   UNL     1     -11.658  15.305  70.440  1.00  0.00    -0.341 A  
HETATM    9  N   UNL     1     -12.212  12.813  69.857  1.00  0.00    -0.226 NA 
HETATM   10  C   UNL     1     -12.542  15.851  72.670  1.00  0.00    -0.562 A  
HETATM   11  C   UNL     1     -12.935  14.532  72.854  1.00  0.00    -0.582 A  
HETATM   12  C   UNL     1     -11.889  16.215  71.498  1.00  0.00    -0.528 A  
BRANCH   9  13
HETATM   13  C   UNL     1     -12.097  12.617  68.411  1.00  0.00    -0.087 C  
BRANCH  13  14
HETATM   14  C   UNL     1     -10.707  12.231  67.973  1.00  0.00    -0.245 A  
HETATM   15  C   UNL     1      -8.643  11.011  68.296  1.00  0.00    -0.143 A  
HETATM   16  C   UNL     1      -8.438  10.947  66.907  1.00  0.00    -0.135 A  
HETATM   17  C   UNL     1     -10.322  12.470  66.652  1.00  0.00    -0.244 A  
HETATM   18  C   UNL     1      -9.804  11.594  68.821  1.00  0.00    -0.129 A  
HETATM   19  C   UNL     1      -9.211  11.817  66.121  1.00  0.00    -0.218 A  
BRANCH  16  20
HETATM   20  C   UNL     1      -7.571   9.913  66.270  1.00  0.00    -0.102 A  
HETATM   21  C   UNL     1      -6.488  10.325  65.456  1.00  0.00    -0.121 A  
HETATM   22  C   UNL     1      -7.826   8.510  66.342  1.00  0.00    -0.099 A  
HETATM   23  C   UNL     1      -5.684   9.415  64.760  1.00  0.00    -0.064 A  
HETATM   24  C   UNL     1      -6.960   7.609  65.682  1.00  0.00    -0.060 A  
HETATM   25  C   UNL     1      -5.906   8.055  64.890  1.00  0.00    -0.045 A  
BRANCH  22  26
HETATM   26  C   UNL     1      -8.974   7.882  67.011  1.00  0.00    -0.128 A  
HETATM   27  N   UNL     1      -9.137   7.710  68.312  1.00  0.00    -0.137 NA 
HETATM   28  H   UNL     1      -8.494   7.997  69.049  1.00  0.00     0.000 HD 
HETATM   29  N   UNL     1     -10.341   7.070  68.479  1.00  0.00    -0.180 NA 
HETATM   30  N   UNL     1     -10.911   6.822  67.310  1.00  0.00    -0.348 NA 
HETATM   31  N   UNL     1     -10.044   7.283  66.398  1.00  0.00    -0.070 NA 
ENDBRANCH  22  26
ENDBRANCH  16  20
ENDBRANCH  13  14
ENDBRANCH   9  13
BRANCH   8  32
HETATM   32  C   UNL     1     -11.092  15.854  69.185  1.00  0.00    -0.302 C  
HETATM   33  O   UNL     1     -11.556  15.618  68.082  1.00  0.00    -0.353 OA 
BRANCH  32  34
HETATM   34  O   UNL     1     -10.161  16.809  69.440  1.00  0.00    -0.272 OA 
BRANCH  34  35
HETATM   35  C   UNL     1      -9.883  17.625  68.293  1.00  0.00    -0.324 C  
HETATM   36  C   UNL     1     -10.370  19.028  68.657  1.00  0.00    -0.273 C  
BRANCH  35  37
HETATM   37  O   UNL     1      -8.485  17.774  68.041  1.00  0.00    -0.240 OA 
BRANCH  37  38
HETATM   38  C   UNL     1      -8.031  17.246  66.883  1.00  0.00    -0.225 C  
HETATM   39  O   UNL     1      -8.677  17.078  65.863  1.00  0.00    -0.524 OA 
BRANCH  38  40
HETATM   40  O   UNL     1      -6.727  16.972  67.070  1.00  0.00    -0.163 OA 
BRANCH  40  41
HETATM   41  C   UNL     1      -6.204  15.652  67.343  1.00  0.00    -0.075 C  
HETATM   42  C   UNL     1      -6.558  14.675  70.132  1.00  0.00    -0.143 C  
HETATM   43  C   UNL     1      -5.129  15.816  68.420  1.00  0.00    -0.095 C  
HETATM   44  C   UNL     1      -5.741  15.919  69.813  1.00  0.00    -0.140 C  
HETATM   45  C   UNL     1      -7.657  14.423  69.104  1.00  0.00    -0.072 C  
HETATM   46  C   UNL     1      -7.176  14.508  67.652  1.00  0.00    -0.206 C  
ENDBRANCH  40  41
ENDBRANCH  38  40
ENDBRANCH  37  38
ENDBRANCH  35  37
ENDBRANCH  34  35
ENDBRANCH  32  34
ENDBRANCH   8  32
ENDBRANCH   3   4
ENDBRANCH   2   3
TORSDOF 13
ENDMDL
MODEL       80
REMARK 921   NORMALIZED FREE ENERGY PREDICTED BY IDOCK:   -6.48 KCAL/MOL
REMARK 922        TOTAL FREE ENERGY PREDICTED BY IDOCK:  -13.86 KCAL/MOL
REMARK 923 INTER-LIGAND FREE ENERGY PREDICTED BY IDOCK:  -10.66 KCAL/MOL
REMARK 924 INTRA-LIGAND FREE ENERGY PREDICTED BY IDOCK:   -3.20 KCAL/MOL
REMARK 927      BINDING AFFINITY PREDICTED BY RF-SCORE:    0.00 PKD
ROOT
HETATM    1  C   UNL     1     -12.283  12.867  63.448  1.00  0.00    -0.574 C  
HETATM    2  C   UNL     1     -12.144  13.285  64.901  1.00  0.00    -0.397 C  
ENDROOT
BRANCH   2   3
HETATM    3  O   UNL     1     -12.160  12.098  65.701  1.00  0.00    -0.545 OA 
BRANCH   3   4
HETATM    4  C   UNL     1     -11.000  11.450  65.762  1.00  0.00    -0.194 A  
HETATM    5  N   UNL     1     -10.613  10.532  64.907  1.00  0.00    -0.157 NA 
HETATM    6  C   UNL     1      -9.383  10.138  65.349  1.00  0.00    -0.216 A  
HETATM    7  C   UNL     1      -8.958  10.878  66.470  1.00  0.00    -0.168 A  
HETATM    8  C   UNL     1      -7.653  10.681  66.985  1.00  0.00    -0.110 A  
HETATM    9  N   UNL     1     -10.082  11.636  66.774  1.00  0.00    -0.210 NA 
HETATM   10  C   UNL     1      -7.325   8.879  65.344  1.00  0.00    -0.085 A  
HETATM   11  C   UNL     1      -8.583   9.119  64.806  1.00  0.00    -0.209 A  
HETATM   12  C   UNL     1      -6.865   9.669  66.390  1.00  0.00    -0.084 A  
BRANCH   9  13
HETATM   13  C   UNL     1     -10.423  12.365  67.996  1.00  0.00    -0.217 C  
BRANCH  13  14
HETATM   14  C   UNL     1     -10.025  13.819  67.951  1.00  0.00    -0.240 A  
HETATM   15  C   UNL     1      -9.811  15.993  68.990  1.00  0.00    -0.239 A  
HETATM   16  C   UNL     1      -8.707  16.298  68.175  1.00  0.00    -0.182 A  
HETATM   17  C   UNL     1      -9.182  14.260  66.929  1.00  0.00    -0.268 A  
HETATM   18  C   UNL     1     -10.425  14.736  68.921  1.00  0.00    -0.249 A  
HETATM   19  C   UNL     1      -8.513  15.477  67.053  1.00  0.00    -0.266 A  
BRANCH  16  20
HETATM   20  C   UNL     1      -7.693  17.328  68.548  1.00  0.00    -0.261 A  
HETATM   21  C   UNL     1      -6.640  16.975  69.427  1.00  0.00    -0.225 A  
HETATM   22  C   UNL     1      -7.774  18.698  68.155  1.00  0.00    -0.302 A  
HETATM   23  C   UNL     1      -5.703  17.906  69.886  1.00  0.00    -0.247 A  
HETATM   24  C   UNL     1      -6.777  19.605  68.582  1.00  0.00    -0.332 A  
HETATM   25  C   UNL     1      -5.758  19.219  69.446  1.00  0.00    -0.258 A  
BRANCH  22  26
HETATM   26  C   UNL     1      -8.859  19.301  67.369  1.00  0.00    -0.296 A  
HETATM   27  N   UNL     1      -8.749  19.901  66.196  1.00  0.00    -0.462 NA 
HETATM   28  H   UNL     1      -7.894  20.027  65.654  1.00  0.00     0.000 HD 
HETATM   29  N   UNL     1     -10.009  20.322  65.847  1.00  0.00    -0.338 NA 
HETATM   30  N   UNL     1     -10.887  20.017  66.789  1.00  0.00    -0.265 NA 
HETATM   31  N   UNL     1     -10.168  19.425  67.753  1.00  0.00    -0.393 NA 
ENDBRANCH  22  26
ENDBRANCH  16  20
ENDBRANCH  13  14
ENDBRANCH   9  13
BRANCH   8  32
HETATM   32  C   UNL     1      -7.105  11.347  68.191  1.00  0.00    -0.075 C  
HETATM   33  O   UNL     1      -6.304  12.265  68.142  1.00  0.00    -0.054 OA 
BRANCH  32  34
HETATM   34  O   UNL     1      -7.769  10.963  69.311  1.00  0.00    -0.135 OA 
BRANCH  34  35
HETATM   35  C   UNL     1      -7.296   9.709  69.827  1.00  0.00    -0.104 C  
HETATM   36  C   UNL     1      -6.195  10.065  70.827  1.00  0.00    -0.084 C  
BRANCH  35  37
HETATM   37  O   UNL     1      -8.282   9.016  70.593  1.00  0.00    -0.144 OA 
BRANCH  37  38
HETATM   38  C   UNL     1      -9.560   9.147  70.173  1.00  0.00    -0.206 C  
HETATM   39  O   UNL     1     -10.415   9.858  70.670  1.00  0.00    -0.292 OA 
BRANCH  38  40
HETATM   40  O   UNL     1      -9.691   8.360  69.089  1.00  0.00    -0.166 OA 
BRANCH  40  41
HETATM   41  C   UNL     1      -9.646   6.915  69.120  1.00  0.00    -0.144 C  
HETATM   42  C   UNL     1      -9.877   5.560  66.481  1.00  0.00    -0.194 C  
HETATM   43  C   UNL     1     -10.980   6.419  68.559  1.00  0.00    -0.396 C  
HETATM   44  C   UNL     1     -10.990   6.438  67.034  1.00  0.00    -0.463 C  
HETATM   45  C   UNL     1      -8.501   5.975  66.992  1.00  0.00    -0.108 C  
HETATM   46  C   UNL     1      -8.444   6.188  68.508  1.00  0.00    -0.114 C  
ENDBRANCH  40  41
ENDBRANCH  38  40
ENDBRANCH  37  38
ENDBRANCH  35  37
ENDBRANCH  34  35
ENDBRANCH  32  34
ENDBRANCH   8  32
ENDBRANCH   3   4
ENDBRANCH   2   3
TORSDOF 13
ENDMDL
MODEL       81
REMARK 921   NORMALIZED FREE ENERGY PREDICTED BY IDOCK:   -6.48 KCAL/MOL
REMARK 922        TOTAL FREE ENERGY PREDICTED BY IDOCK:  -13.86 KCAL/MOL
REMARK 923 INTER-LIGAND FREE ENERGY PREDICTED BY IDOCK:  -10.58 KCAL/MOL
REMARK 924 INTRA-LIGAND FREE ENERGY PREDICTED BY IDOCK:   -3.28 KCAL/MOL
REMARK 927      BINDING AFFINITY PREDICTED BY RF-SCORE:    0.00 PKD
ROOT
HETATM    1  C   UNL     1     -12.402  14.194  65.197  1.00  0.00    -0.460 C  
HETATM    2  C   UNL     1     -12.232  13.534  66.554  1.00  0.00    -0.380 C  
ENDROOT
BRANCH   2   3
HETATM    3  O   UNL     1     -11.569  12.282  66.351  1.00  0.00    -0.366 OA 
BRANCH   3   4
HETATM    4  C   UNL     1     -11.270  11.621  67.466  1.00  0.00    -0.293 A  
HETATM    5  N   UNL     1     -12.155  11.180  68.330  1.00  0.00    -0.603 NA 
HETATM    6  C   UNL     1     -11.420  10.578  69.309  1.00  0.00    -0.256 A  
HETATM    7  C   UNL     1     -10.041  10.580  69.017  1.00  0.00    -0.217 A  
HETATM    8  C   UNL     1      -9.143   9.890  69.868  1.00  0.00    -0.241 A  
HETATM    9  N   UNL     1      -9.978  11.366  67.872  1.00  0.00    -0.174 NA 
HETATM   10  C   UNL     1     -11.026   9.384  71.368  1.00  0.00    -0.443 A  
HETATM   11  C   UNL     1     -11.908  10.010  70.498  1.00  0.00    -0.387 A  
HETATM   12  C   UNL     1      -9.678   9.302  71.038  1.00  0.00    -0.341 A  
BRANCH   9  13
HETATM   13  C   UNL     1      -8.832  12.025  67.245  1.00  0.00    -0.183 C  
BRANCH  13  14
HETATM   14  C   UNL     1      -8.294  13.178  68.054  1.00  0.00    -0.162 A  
HETATM   15  C   UNL     1      -6.504  14.684  68.671  1.00  0.00    -0.085 A  
HETATM   16  C   UNL     1      -7.431  15.691  68.989  1.00  0.00    -0.181 A  
HETATM   17  C   UNL     1      -9.192  14.033  68.696  1.00  0.00    -0.119 A  
HETATM   18  C   UNL     1      -6.932  13.457  68.147  1.00  0.00    -0.116 A  
HETATM   19  C   UNL     1      -8.767  15.286  69.138  1.00  0.00    -0.238 A  
BRANCH  16  20
HETATM   20  C   UNL     1      -7.068  17.139  69.013  1.00  0.00    -0.232 A  
HETATM   21  C   UNL     1      -6.102  17.593  69.944  1.00  0.00    -0.178 A  
HETATM   22  C   UNL     1      -7.715  18.132  68.219  1.00  0.00    -0.291 A  
HETATM   23  C   UNL     1      -5.772  18.945  70.082  1.00  0.00    -0.259 A  
HETATM   24  C   UNL     1      -7.317  19.484  68.332  1.00  0.00    -0.352 A  
HETATM   25  C   UNL     1      -6.364  19.890  69.261  1.00  0.00    -0.365 A  
BRANCH  22  26
HETATM   26  C   UNL     1      -8.836  17.896  67.299  1.00  0.00    -0.243 A  
HETATM   27  N   UNL     1      -8.762  17.465  66.051  1.00  0.00    -0.531 NA 
HETATM   28  H   UNL     1      -7.912  17.222  65.542  1.00  0.00     0.000 HD 
HETATM   29  N   UNL     1     -10.048  17.409  65.573  1.00  0.00    -0.579 NA 
HETATM   30  N   UNL     1     -10.911  17.818  66.490  1.00  0.00    -0.079 NA 
HETATM   31  N   UNL     1     -10.158  18.164  67.543  1.00  0.00    -0.332 NA 
ENDBRANCH  22  26
ENDBRANCH  16  20
ENDBRANCH  13  14
ENDBRANCH   9  13
BRANCH   8  32
HETATM   32  C   UNL     1      -7.670   9.865  69.709  1.00  0.00    -0.155 C  
HETATM   33  O   UNL     1      -6.900  10.319  70.539  1.00  0.00    -0.259 OA 
BRANCH  32  34
HETATM   34  O   UNL     1      -7.300   9.086  68.661  1.00  0.00    -0.075 OA 
BRANCH  34  35
HETATM   35  C   UNL     1      -7.451   7.686  68.937  1.00  0.00    -0.096 C  
HETATM   36  C   UNL     1      -7.672   7.020  67.578  1.00  0.00    -0.111 C  
BRANCH  35  37
HETATM   37  O   UNL     1      -6.260   7.089  69.451  1.00  0.00    -0.032 OA 
BRANCH  37  38
HETATM   38  C   UNL     1      -6.280   6.761  70.762  1.00  0.00    -0.035 C  
HETATM   39  O   UNL     1      -5.313   6.660  71.497  1.00  0.00    -0.026 OA 
BRANCH  38  40
HETATM   40  O   UNL     1      -7.573   6.596  71.098  1.00  0.00    -0.087 OA 
BRANCH  40  41
HETATM   41  C   UNL     1      -8.155   5.335  71.500  1.00  0.00    -0.116 C  
HETATM   42  C   UNL     1      -9.657   3.875  69.385  1.00  0.00    -0.239 C  
HETATM   43  C   UNL     1      -9.669   5.468  71.318  1.00  0.00    -0.215 C  
HETATM   44  C   UNL     1     -10.081   5.256  69.865  1.00  0.00    -0.333 C  
HETATM   45  C   UNL     1      -8.156   3.644  69.533  1.00  0.00    -0.063 C  
HETATM   46  C   UNL     1      -7.605   4.032  70.909  1.00  0.00    -0.047 C  
ENDBRANCH  40  41
ENDBRANCH  38  40
ENDBRANCH  37  38
ENDBRANCH  35  37
ENDBRANCH  34  35
ENDBRANCH  32  34
ENDBRANCH   8  32
ENDBRANCH   3   4
ENDBRANCH   2   3
TORSDOF 13
ENDMDL
MODEL       82
REMARK 921   NORMALIZED FREE ENERGY PREDICTED BY IDOCK:   -6.48 KCAL/MOL
REMARK 922        TOTAL FREE ENERGY PREDICTED BY IDOCK:  -13.85 KCAL/MOL
REMARK 923 INTER-LIGAND FREE ENERGY PREDICTED BY IDOCK:  -10.00 KCAL/MOL
REMARK 924 INTRA-LIGAND FREE ENERGY PREDICTED BY IDOCK:   -3.85 KCAL/MOL
REMARK 927      BINDING AFFINITY PREDICTED BY RF-SCORE:    0.00 PKD
ROOT
HETATM    1  C   UNL     1     -10.378   6.801  73.887  1.00  0.00    -0.397 C  
HETATM    2  C   UNL     1     -10.645   5.309  73.805  1.00  0.00    -0.287 C  
ENDROOT
BRANCH   2   3
HETATM    3  O   UNL     1     -11.135   5.024  72.491  1.00  0.00    -0.215 OA 
BRANCH   3   4
HETATM    4  C   UNL     1     -10.202   4.975  71.544  1.00  0.00    -0.204 A  
HETATM    5  N   UNL     1      -8.974   4.548  71.730  1.00  0.00    -0.123 NA 
HETATM    6  C   UNL     1      -8.370   4.678  70.514  1.00  0.00    -0.090 A  
HETATM    7  C   UNL     1      -9.262   5.133  69.522  1.00  0.00    -0.119 A  
HETATM    8  C   UNL     1      -8.832   5.209  68.174  1.00  0.00    -0.107 A  
HETATM    9  N   UNL     1     -10.406   5.422  70.256  1.00  0.00    -0.271 NA 
HETATM   10  C   UNL     1      -6.578   4.547  68.904  1.00  0.00    -0.045 A  
HETATM   11  C   UNL     1      -7.023   4.416  70.213  1.00  0.00    -0.038 A  
HETATM   12  C   UNL     1      -7.477   4.906  67.906  1.00  0.00    -0.078 A  
BRANCH   9  13
HETATM   13  C   UNL     1     -11.577   6.222  69.898  1.00  0.00    -0.291 C  
BRANCH  13  14
HETATM   14  C   UNL     1     -11.613   7.564  70.586  1.00  0.00    -0.272 A  
HETATM   15  C   UNL     1     -10.748   9.798  70.926  1.00  0.00    -0.375 A  
HETATM   16  C   UNL     1     -12.023  10.258  71.296  1.00  0.00    -0.457 A  
HETATM   17  C   UNL     1     -12.764   7.938  71.281  1.00  0.00    -0.251 A  
HETATM   18  C   UNL     1     -10.559   8.473  70.512  1.00  0.00    -0.238 A  
HETATM   19  C   UNL     1     -12.975   9.276  71.612  1.00  0.00    -0.447 A  
BRANCH  16  20
HETATM   20  C   UNL     1     -12.413  11.697  71.210  1.00  0.00    -0.371 A  
HETATM   21  C   UNL     1     -13.259  12.244  72.206  1.00  0.00    -0.345 A  
HETATM   22  C   UNL     1     -12.070  12.548  70.116  1.00  0.00    -0.368 A  
HETATM   23  C   UNL     1     -13.733  13.558  72.147  1.00  0.00    -0.654 A  
HETATM   24  C   UNL     1     -12.510  13.891  70.114  1.00  0.00    -0.355 A  
HETATM   25  C   UNL     1     -13.341  14.390  71.111  1.00  0.00    -0.392 A  
BRANCH  22  26
HETATM   26  C   UNL     1     -11.326  12.141  68.916  1.00  0.00    -0.283 A  
HETATM   27  N   UNL     1     -10.084  12.470  68.604  1.00  0.00    -0.378 NA 
HETATM   28  H   UNL     1      -9.451  13.048  69.156  1.00  0.00     0.000 HD 
HETATM   29  N   UNL     1      -9.811  11.882  67.393  1.00  0.00    -0.182 NA 
HETATM   30  N   UNL     1     -10.864  11.220  66.941  1.00  0.00    -0.270 NA 
HETATM   31  N   UNL     1     -11.818  11.418  67.861  1.00  0.00    -0.632 NA 
ENDBRANCH  22  26
ENDBRANCH  16  20
ENDBRANCH  13  14
ENDBRANCH   9  13
BRANCH   8  32
HETATM   32  C   UNL     1      -9.646   5.727  67.049  1.00  0.00    -0.135 C  
HETATM   33  O   UNL     1     -10.464   5.049  66.450  1.00  0.00    -0.276 OA 
BRANCH  32  34
HETATM   34  O   UNL     1      -9.529   7.074  66.934  1.00  0.00    -0.147 OA 
BRANCH  34  35
HETATM   35  C   UNL     1      -8.386   7.461  66.157  1.00  0.00    -0.139 C  
HETATM   36  C   UNL     1      -8.500   6.687  64.843  1.00  0.00     0.033 C  
BRANCH  35  37
HETATM   37  O   UNL     1      -8.412   8.838  65.778  1.00  0.00    -0.131 OA 
BRANCH  37  38
HETATM   38  C   UNL     1      -7.229   9.489  65.831  1.00  0.00    -0.096 C  
HETATM   39  O   UNL     1      -6.455   9.661  64.905  1.00  0.00    -0.081 OA 
BRANCH  38  40
HETATM   40  O   UNL     1      -7.090   9.932  67.095  1.00  0.00    -0.084 OA 
BRANCH  40  41
HETATM   41  C   UNL     1      -5.952   9.642  67.938  1.00  0.00    -0.051 C  
HETATM   42  C   UNL     1      -6.525   9.438  70.852  1.00  0.00    -0.096 C  
HETATM   43  C   UNL     1      -5.799  10.825  68.897  1.00  0.00    -0.040 C  
HETATM   44  C   UNL     1      -6.764  10.724  70.073  1.00  0.00    -0.149 C  
HETATM   45  C   UNL     1      -6.650   8.196  69.975  1.00  0.00    -0.036 C  
HETATM   46  C   UNL     1      -5.875   8.291  68.657  1.00  0.00    -0.040 C  
ENDBRANCH  40  41
ENDBRANCH  38  40
ENDBRANCH  37  38
ENDBRANCH  35  37
ENDBRANCH  34  35
ENDBRANCH  32  34
ENDBRANCH   8  32
ENDBRANCH   3   4
ENDBRANCH   2   3
TORSDOF 13
ENDMDL
MODEL       83
REMARK 921   NORMALIZED FREE ENERGY PREDICTED BY IDOCK:   -6.46 KCAL/MOL
REMARK 922        TOTAL FREE ENERGY PREDICTED BY IDOCK:  -13.82 KCAL/MOL
REMARK 923 INTER-LIGAND FREE ENERGY PREDICTED BY IDOCK:  -11.62 KCAL/MOL
REMARK 924 INTRA-LIGAND FREE ENERGY PREDICTED BY IDOCK:   -2.20 KCAL/MOL
REMARK 927      BINDING AFFINITY PREDICTED BY RF-SCORE:    0.00 PKD
ROOT
HETATM    1  C   UNL     1     -10.970  11.635  63.532  1.00  0.00    -0.485 C  
HETATM    2  C   UNL     1      -9.692  11.168  64.207  1.00  0.00    -0.271 C  
ENDROOT
BRANCH   2   3
HETATM    3  O   UNL     1      -9.527  11.931  65.406  1.00  0.00    -0.207 OA 
BRANCH   3   4
HETATM    4  C   UNL     1      -9.437  11.208  66.520  1.00  0.00    -0.193 A  
HETATM    5  N   UNL     1      -8.449  10.390  66.798  1.00  0.00    -0.124 NA 
HETATM    6  C   UNL     1      -8.763   9.862  68.017  1.00  0.00    -0.125 A  
HETATM    7  C   UNL     1      -9.945  10.417  68.548  1.00  0.00    -0.167 A  
HETATM    8  C   UNL     1     -10.353  10.071  69.859  1.00  0.00    -0.315 A  
HETATM    9  N   UNL     1     -10.409  11.198  67.497  1.00  0.00    -0.189 NA 
HETATM   10  C   UNL     1      -8.476   8.486  69.977  1.00  0.00    -0.125 A  
HETATM   11  C   UNL     1      -8.047   8.876  68.715  1.00  0.00    -0.114 A  
HETATM   12  C   UNL     1      -9.587   9.098  70.543  1.00  0.00    -0.293 A  
BRANCH   9  13
HETATM   13  C   UNL     1     -11.733  11.778  67.268  1.00  0.00    -0.217 C  
BRANCH  13  14
HETATM   14  C   UNL     1     -11.751  13.281  67.384  1.00  0.00    -0.419 A  
HETATM   15  C   UNL     1     -11.514  15.313  68.677  1.00  0.00    -0.350 A  
HETATM   16  C   UNL     1     -11.096  16.017  67.535  1.00  0.00    -0.207 A  
HETATM   17  C   UNL     1     -11.685  14.052  66.222  1.00  0.00    -0.401 A  
HETATM   18  C   UNL     1     -11.778  13.938  68.613  1.00  0.00    -0.396 A  
HETATM   19  C   UNL     1     -11.339  15.401  66.297  1.00  0.00    -0.081 A  
BRANCH  16  20
HETATM   20  C   UNL     1     -10.295  17.274  67.615  1.00  0.00    -0.350 A  
HETATM   21  C   UNL     1     -10.935  18.517  67.389  1.00  0.00    -0.202 A  
HETATM   22  C   UNL     1      -8.880  17.301  67.804  1.00  0.00    -0.234 A  
HETATM   23  C   UNL     1     -10.234  19.727  67.365  1.00  0.00    -0.575 A  
HETATM   24  C   UNL     1      -8.206  18.543  67.840  1.00  0.00    -0.277 A  
HETATM   25  C   UNL     1      -8.872  19.744  67.612  1.00  0.00    -0.393 A  
BRANCH  22  26
HETATM   26  C   UNL     1      -8.008  16.124  67.915  1.00  0.00    -0.141 A  
HETATM   27  N   UNL     1      -7.830  15.366  68.983  1.00  0.00    -0.176 NA 
HETATM   28  H   UNL     1      -8.281  15.479  69.891  1.00  0.00     0.000 HD 
HETATM   29  N   UNL     1      -6.921  14.397  68.635  1.00  0.00    -0.095 NA 
HETATM   30  N   UNL     1      -6.517  14.556  67.385  1.00  0.00    -0.308 NA 
HETATM   31  N   UNL     1      -7.154  15.653  66.952  1.00  0.00    -0.211 NA 
ENDBRANCH  22  26
ENDBRANCH  16  20
ENDBRANCH  13  14
ENDBRANCH   9  13
BRANCH   8  32
HETATM   32  C   UNL     1     -11.602  10.533  70.512  1.00  0.00    -0.350 C  
HETATM   33  O   UNL     1     -11.800  11.694  70.827  1.00  0.00    -0.271 OA 
BRANCH  32  34
HETATM   34  O   UNL     1     -12.553   9.564  70.498  1.00  0.00    -0.075 OA 
BRANCH  34  35
HETATM   35  C   UNL     1     -12.994   9.210  71.817  1.00  0.00    -0.380 C  
HETATM   36  C   UNL     1     -14.322   8.476  71.624  1.00  0.00    -0.497 C  
BRANCH  35  37
HETATM   37  O   UNL     1     -12.138   8.262  72.455  1.00  0.00    -0.360 OA 
BRANCH  37  38
HETATM   38  C   UNL     1     -12.058   7.047  71.868  1.00  0.00    -0.323 C  
HETATM   39  O   UNL     1     -12.105   6.815  70.673  1.00  0.00    -0.392 OA 
BRANCH  38  40
HETATM   40  O   UNL     1     -11.891   6.151  72.860  1.00  0.00    -0.073 OA 
BRANCH  40  41
HETATM   41  C   UNL     1     -10.604   5.737  73.373  1.00  0.00    -0.258 C  
HETATM   42  C   UNL     1      -9.454   3.282  72.144  1.00  0.00    -0.194 C  
HETATM   43  C   UNL     1     -10.796   4.342  73.974  1.00  0.00    -0.301 C  
HETATM   44  C   UNL     1     -10.775   3.260  72.900  1.00  0.00    -0.173 C  
HETATM   45  C   UNL     1      -9.170   4.641  71.511  1.00  0.00    -0.186 C  
HETATM   46  C   UNL     1      -9.371   5.821  72.467  1.00  0.00    -0.149 C  
ENDBRANCH  40  41
ENDBRANCH  38  40
ENDBRANCH  37  38
ENDBRANCH  35  37
ENDBRANCH  34  35
ENDBRANCH  32  34
ENDBRANCH   8  32
ENDBRANCH   3   4
ENDBRANCH   2   3
TORSDOF 13
ENDMDL
MODEL       84
REMARK 921   NORMALIZED FREE ENERGY PREDICTED BY IDOCK:   -6.45 KCAL/MOL
REMARK 922        TOTAL FREE ENERGY PREDICTED BY IDOCK:  -13.81 KCAL/MOL
REMARK 923 INTER-LIGAND FREE ENERGY PREDICTED BY IDOCK:  -11.12 KCAL/MOL
REMARK 924 INTRA-LIGAND FREE ENERGY PREDICTED BY IDOCK:   -2.69 KCAL/MOL
REMARK 927      BINDING AFFINITY PREDICTED BY RF-SCORE:    0.00 PKD
ROOT
HETATM    1  C   UNL     1     -13.483   9.387  72.125  1.00  0.00    -0.543 C  
HETATM    2  C   UNL     1     -12.119   8.772  71.862  1.00  0.00    -0.363 C  
ENDROOT
BRANCH   2   3
HETATM    3  O   UNL     1     -11.456   9.580  70.884  1.00  0.00    -0.283 OA 
BRANCH   3   4
HETATM    4  C   UNL     1     -10.199   9.228  70.629  1.00  0.00    -0.272 A  
HETATM    5  N   UNL     1      -9.217   9.292  71.498  1.00  0.00    -0.295 NA 
HETATM    6  C   UNL     1      -8.119   8.848  70.820  1.00  0.00    -0.156 A  
HETATM    7  C   UNL     1      -8.435   8.429  69.513  1.00  0.00    -0.124 A  
HETATM    8  C   UNL     1      -7.435   7.826  68.709  1.00  0.00    -0.096 A  
HETATM    9  N   UNL     1      -9.769   8.799  69.392  1.00  0.00    -0.170 NA 
HETATM   10  C   UNL     1      -5.802   8.260  70.496  1.00  0.00    -0.028 A  
HETATM   11  C   UNL     1      -6.800   8.794  71.301  1.00  0.00    -0.082 A  
HETATM   12  C   UNL     1      -6.126   7.760  69.241  1.00  0.00    -0.034 A  
BRANCH   9  13
HETATM   13  C   UNL     1     -10.601   8.944  68.197  1.00  0.00    -0.157 C  
BRANCH  13  14
HETATM   14  C   UNL     1     -10.572  10.336  67.618  1.00  0.00    -0.312 A  
HETATM   15  C   UNL     1     -11.059  12.702  67.756  1.00  0.00    -0.287 A  
HETATM   16  C   UNL     1      -9.954  12.999  66.940  1.00  0.00    -0.243 A  
HETATM   17  C   UNL     1      -9.719  10.607  66.547  1.00  0.00    -0.236 A  
HETATM   18  C   UNL     1     -11.326  11.383  68.144  1.00  0.00    -0.374 A  
HETATM   19  C   UNL     1      -9.398  11.925  66.226  1.00  0.00    -0.234 A  
BRANCH  16  20
HETATM   20  C   UNL     1      -9.294  14.338  66.937  1.00  0.00    -0.268 A  
HETATM   21  C   UNL     1      -8.303  14.622  67.909  1.00  0.00    -0.153 A  
HETATM   22  C   UNL     1      -9.674  15.408  66.072  1.00  0.00    -0.370 A  
HETATM   23  C   UNL     1      -7.702  15.879  68.021  1.00  0.00    -0.139 A  
HETATM   24  C   UNL     1      -9.005  16.649  66.164  1.00  0.00    -0.321 A  
HETATM   25  C   UNL     1      -8.037  16.888  67.133  1.00  0.00    -0.214 A  
BRANCH  22  26
HETATM   26  C   UNL     1     -10.771  15.370  65.094  1.00  0.00    -0.440 A  
HETATM   27  N   UNL     1     -11.037  16.272  64.166  1.00  0.00    -1.202 NA 
HETATM   28  H   UNL     1     -10.513  17.128  63.981  1.00  0.00     0.000 HD 
HETATM   29  N   UNL     1     -12.154  15.836  63.497  1.00  0.00    -0.139 NA 
HETATM   30  N   UNL     1     -12.596  14.698  64.009  1.00  0.00    -0.805 NA 
HETATM   31  N   UNL     1     -11.767  14.432  65.028  1.00  0.00    -0.372 NA 
ENDBRANCH  22  26
ENDBRANCH  16  20
ENDBRANCH  13  14
ENDBRANCH   9  13
BRANCH   8  32
HETATM   32  C   UNL     1      -7.618   7.398  67.302  1.00  0.00    -0.108 C  
HETATM   33  O   UNL     1      -7.367   8.115  66.348  1.00  0.00    -0.077 OA 
BRANCH  32  34
HETATM   34  O   UNL     1      -7.872   6.067  67.221  1.00  0.00    -0.100 OA 
BRANCH  34  35
HETATM   35  C   UNL     1      -9.247   5.754  67.488  1.00  0.00    -0.108 C  
HETATM   36  C   UNL     1      -9.752   5.020  66.245  1.00  0.00    -0.195 C  
BRANCH  35  37
HETATM   37  O   UNL     1      -9.407   4.821  68.558  1.00  0.00    -0.118 OA 
BRANCH  37  38
HETATM   38  C   UNL     1     -10.106   5.259  69.628  1.00  0.00    -0.257 C  
HETATM   39  O   UNL     1     -11.274   5.606  69.637  1.00  0.00    -0.267 OA 
BRANCH  38  40
HETATM   40  O   UNL     1      -9.268   5.212  70.681  1.00  0.00    -0.139 OA 
BRANCH  40  41
HETATM   41  C   UNL     1      -9.633   4.720  71.991  1.00  0.00    -0.149 C  
HETATM   42  C   UNL     1      -8.686   6.353  74.291  1.00  0.00    -0.145 C  
HETATM   43  C   UNL     1      -8.328   4.426  72.733  1.00  0.00    -0.105 C  
HETATM   44  C   UNL     1      -7.717   5.694  73.320  1.00  0.00    -0.099 C  
HETATM   45  C   UNL     1     -10.027   6.681  73.641  1.00  0.00    -0.270 C  
HETATM   46  C   UNL     1     -10.625   5.520  72.842  1.00  0.00    -0.268 C  
ENDBRANCH  40  41
ENDBRANCH  38  40
ENDBRANCH  37  38
ENDBRANCH  35  37
ENDBRANCH  34  35
ENDBRANCH  32  34
ENDBRANCH   8  32
ENDBRANCH   3   4
ENDBRANCH   2   3
TORSDOF 13
ENDMDL
MODEL       85
REMARK 921   NORMALIZED FREE ENERGY PREDICTED BY IDOCK:   -6.45 KCAL/MOL
REMARK 922        TOTAL FREE ENERGY PREDICTED BY IDOCK:  -13.80 KCAL/MOL
REMARK 923 INTER-LIGAND FREE ENERGY PREDICTED BY IDOCK:  -11.93 KCAL/MOL
REMARK 924 INTRA-LIGAND FREE ENERGY PREDICTED BY IDOCK:   -1.87 KCAL/MOL
REMARK 927      BINDING AFFINITY PREDICTED BY RF-SCORE:    0.00 PKD
ROOT
HETATM    1  C   UNL     1      -7.083  11.290  66.454  1.00  0.00    -0.053 C  
HETATM    2  C   UNL     1      -7.289  10.202  67.493  1.00  0.00    -0.089 C  
ENDROOT
BRANCH   2   3
HETATM    3  O   UNL     1      -8.350  10.619  68.359  1.00  0.00    -0.115 OA 
BRANCH   3   4
HETATM    4  C   UNL     1      -8.416   9.965  69.516  1.00  0.00    -0.176 A  
HETATM    5  N   UNL     1      -7.375   9.620  70.238  1.00  0.00    -0.133 NA 
HETATM    6  C   UNL     1      -7.897   8.973  71.320  1.00  0.00    -0.085 A  
HETATM    7  C   UNL     1      -9.306   8.973  71.311  1.00  0.00    -0.254 A  
HETATM    8  C   UNL     1     -10.014   8.449  72.420  1.00  0.00    -0.380 A  
HETATM    9  N   UNL     1      -9.599   9.524  70.069  1.00  0.00    -0.222 NA 
HETATM   10  C   UNL     1      -7.867   7.780  73.416  1.00  0.00    -0.184 A  
HETATM   11  C   UNL     1      -7.178   8.350  72.353  1.00  0.00    -0.113 A  
HETATM   12  C   UNL     1      -9.253   7.860  73.457  1.00  0.00    -0.340 A  
BRANCH   9  13
HETATM   13  C   UNL     1     -10.846   9.511  69.304  1.00  0.00    -0.191 C  
BRANCH  13  14
HETATM   14  C   UNL     1     -11.277  10.882  68.847  1.00  0.00    -0.327 A  
HETATM   15  C   UNL     1     -11.561  13.254  69.229  1.00  0.00    -0.370 A  
HETATM   16  C   UNL     1     -11.402  13.516  67.858  1.00  0.00    -0.320 A  
HETATM   17  C   UNL     1     -11.476  11.111  67.484  1.00  0.00    -0.296 A  
HETATM   18  C   UNL     1     -11.434  11.951  69.727  1.00  0.00    -0.303 A  
HETATM   19  C   UNL     1     -11.516  12.415  66.994  1.00  0.00    -0.423 A  
BRANCH  16  20
HETATM   20  C   UNL     1     -10.979  14.851  67.339  1.00  0.00    -0.314 A  
HETATM   21  C   UNL     1     -10.750  15.907  68.254  1.00  0.00    -0.291 A  
HETATM   22  C   UNL     1     -10.890  15.169  65.950  1.00  0.00    -0.342 A  
HETATM   23  C   UNL     1     -10.433  17.203  67.837  1.00  0.00    -0.369 A  
HETATM   24  C   UNL     1     -10.505  16.471  65.557  1.00  0.00    -0.320 A  
HETATM   25  C   UNL     1     -10.288  17.482  66.488  1.00  0.00    -0.325 A  
BRANCH  22  26
HETATM   26  C   UNL     1     -11.224  14.265  64.841  1.00  0.00    -0.379 A  
HETATM   27  N   UNL     1     -10.401  13.447  64.208  1.00  0.00    -0.635 NA 
HETATM   28  H   UNL     1      -9.409  13.313  64.403  1.00  0.00     0.000 HD 
HETATM   29  N   UNL     1     -11.139  12.813  63.239  1.00  0.00    -0.234 NA 
HETATM   30  N   UNL     1     -12.392  13.239  63.245  1.00  0.00    -0.709 NA 
HETATM   31  N   UNL     1     -12.435  14.172  64.206  1.00  0.00    -0.688 NA 
ENDBRANCH  22  26
ENDBRANCH  16  20
ENDBRANCH  13  14
ENDBRANCH   9  13
BRANCH   8  32
HETATM   32  C   UNL     1     -11.489   8.333  72.512  1.00  0.00    -0.384 C  
HETATM   33  O   UNL     1     -12.252   9.212  72.148  1.00  0.00    -0.367 OA 
BRANCH  32  34
HETATM   34  O   UNL     1     -11.866   7.067  72.827  1.00  0.00    -0.122 OA 
BRANCH  34  35
HETATM   35  C   UNL     1     -11.131   6.077  72.092  1.00  0.00    -0.279 C  
HETATM   36  C   UNL     1     -11.249   4.788  72.907  1.00  0.00    -0.286 C  
BRANCH  35  37
HETATM   37  O   UNL     1     -11.722   5.770  70.829  1.00  0.00     0.049 OA 
BRANCH  37  38
HETATM   38  C   UNL     1     -10.913   5.882  69.752  1.00  0.00    -0.382 C  
HETATM   39  O   UNL     1     -11.262   6.071  68.601  1.00  0.00    -0.307 OA 
BRANCH  38  40
HETATM   40  O   UNL     1      -9.650   5.770  70.207  1.00  0.00    -0.157 OA 
BRANCH  40  41
HETATM   41  C   UNL     1      -8.708   4.770  69.758  1.00  0.00    -0.081 C  
HETATM   42  C   UNL     1      -8.149   2.568  71.681  1.00  0.00    -0.057 C  
HETATM   43  C   UNL     1      -7.529   4.802  70.733  1.00  0.00    -0.064 C  
HETATM   44  C   UNL     1      -7.832   4.021  72.007  1.00  0.00    -0.079 C  
HETATM   45  C   UNL     1      -9.314   2.433  70.705  1.00  0.00    -0.209 C  
HETATM   46  C   UNL     1      -9.201   3.345  69.480  1.00  0.00    -0.225 C  
ENDBRANCH  40  41
ENDBRANCH  38  40
ENDBRANCH  37  38
ENDBRANCH  35  37
ENDBRANCH  34  35
ENDBRANCH  32  34
ENDBRANCH   8  32
ENDBRANCH   3   4
ENDBRANCH   2   3
TORSDOF 13
ENDMDL
MODEL       86
REMARK 921   NORMALIZED FREE ENERGY PREDICTED BY IDOCK:   -6.44 KCAL/MOL
REMARK 922        TOTAL FREE ENERGY PREDICTED BY IDOCK:  -13.79 KCAL/MOL
REMARK 923 INTER-LIGAND FREE ENERGY PREDICTED BY IDOCK:  -10.86 KCAL/MOL
REMARK 924 INTRA-LIGAND FREE ENERGY PREDICTED BY IDOCK:   -2.94 KCAL/MOL
REMARK 927      BINDING AFFINITY PREDICTED BY RF-SCORE:    0.00 PKD
ROOT
HETATM    1  C   UNL     1      -7.018   8.555  65.686  1.00  0.00    -0.071 C  
HETATM    2  C   UNL     1      -6.456   8.481  67.094  1.00  0.00    -0.058 C  
ENDROOT
BRANCH   2   3
HETATM    3  O   UNL     1      -6.995   9.579  67.838  1.00  0.00    -0.077 OA 
BRANCH   3   4
HETATM    4  C   UNL     1      -7.459   9.262  69.044  1.00  0.00    -0.073 A  
HETATM    5  N   UNL     1      -6.711   8.885  70.055  1.00  0.00    -0.041 NA 
HETATM    6  C   UNL     1      -7.589   8.657  71.075  1.00  0.00    -0.100 A  
HETATM    7  C   UNL     1      -8.915   8.966  70.714  1.00  0.00    -0.209 A  
HETATM    8  C   UNL     1      -9.940   8.901  71.691  1.00  0.00    -0.397 A  
HETATM    9  N   UNL     1      -8.801   9.244  69.357  1.00  0.00    -0.142 NA 
HETATM   10  C   UNL     1      -8.290   8.042  73.300  1.00  0.00    -0.269 A  
HETATM   11  C   UNL     1      -7.281   8.165  72.354  1.00  0.00    -0.119 A  
HETATM   12  C   UNL     1      -9.584   8.434  72.977  1.00  0.00    -0.215 A  
BRANCH   9  13
HETATM   13  C   UNL     1      -9.832   9.318  68.322  1.00  0.00    -0.158 C  
BRANCH  13  14
HETATM   14  C   UNL     1     -10.067  10.720  67.817  1.00  0.00    -0.201 A  
HETATM   15  C   UNL     1     -10.568  13.056  68.199  1.00  0.00    -0.257 A  
HETATM   16  C   UNL     1      -9.840  13.422  67.055  1.00  0.00    -0.250 A  
HETATM   17  C   UNL     1      -9.663  11.051  66.523  1.00  0.00    -0.230 A  
HETATM   18  C   UNL     1     -10.627  11.718  68.612  1.00  0.00    -0.250 A  
HETATM   19  C   UNL     1      -9.530  12.389  66.155  1.00  0.00    -0.201 A  
BRANCH  16  20
HETATM   20  C   UNL     1      -9.278  14.792  66.864  1.00  0.00    -0.263 A  
HETATM   21  C   UNL     1      -8.245  15.241  67.722  1.00  0.00    -0.157 A  
HETATM   22  C   UNL     1      -9.793  15.736  65.925  1.00  0.00    -0.381 A  
HETATM   23  C   UNL     1      -7.728  16.538  67.657  1.00  0.00    -0.167 A  
HETATM   24  C   UNL     1      -9.209  17.020  65.837  1.00  0.00    -0.076 A  
HETATM   25  C   UNL     1      -8.195  17.423  66.699  1.00  0.00    -0.290 A  
BRANCH  22  26
HETATM   26  C   UNL     1     -10.949  15.523  65.044  1.00  0.00    -0.440 A  
HETATM   27  N   UNL     1     -11.435  16.372  64.154  1.00  0.00    -1.441 NA 
HETATM   28  H   UNL     1     -11.072  17.300  63.937  1.00  0.00     0.000 HD 
HETATM   29  N   UNL     1     -12.522  15.762  63.577  1.00  0.00    -0.037 NA 
HETATM   30  N   UNL     1     -12.732  14.568  64.109  1.00  0.00    -0.707 NA 
HETATM   31  N   UNL     1     -11.787  14.438  65.050  1.00  0.00    -0.383 NA 
ENDBRANCH  22  26
ENDBRANCH  16  20
ENDBRANCH  13  14
ENDBRANCH   9  13
BRANCH   8  32
HETATM   32  C   UNL     1     -11.380   9.141  71.430  1.00  0.00    -0.344 C  
HETATM   33  O   UNL     1     -11.895  10.244  71.489  1.00  0.00    -0.336 OA 
BRANCH  32  34
HETATM   34  O   UNL     1     -11.976   8.039  70.909  1.00  0.00    -0.278 OA 
BRANCH  34  35
HETATM   35  C   UNL     1     -12.598   7.223  71.913  1.00  0.00    -0.291 C  
HETATM   36  C   UNL     1     -14.096   7.270  71.612  1.00  0.00    -0.522 C  
BRANCH  35  37
HETATM   37  O   UNL     1     -12.243   5.844  71.808  1.00  0.00    -0.032 OA 
BRANCH  37  38
HETATM   38  C   UNL     1     -11.201   5.440  72.568  1.00  0.00    -0.247 C  
HETATM   39  O   UNL     1     -11.223   5.212  73.764  1.00  0.00    -0.258 OA 
BRANCH  38  40
HETATM   40  O   UNL     1     -10.147   5.314  71.739  1.00  0.00    -0.186 OA 
BRANCH  40  41
HETATM   41  C   UNL     1     -10.169   4.567  70.501  1.00  0.00    -0.082 C  
HETATM   42  C   UNL     1      -7.527   4.162  69.193  1.00  0.00    -0.054 C  
HETATM   43  C   UNL     1      -9.632   5.500  69.413  1.00  0.00    -0.196 C  
HETATM   44  C   UNL     1      -8.108   5.551  69.417  1.00  0.00    -0.095 C  
HETATM   45  C   UNL     1      -8.011   3.155  70.231  1.00  0.00    -0.050 C  
HETATM   46  C   UNL     1      -9.526   3.177  70.452  1.00  0.00    -0.227 C  
ENDBRANCH  40  41
ENDBRANCH  38  40
ENDBRANCH  37  38
ENDBRANCH  35  37
ENDBRANCH  34  35
ENDBRANCH  32  34
ENDBRANCH   8  32
ENDBRANCH   3   4
ENDBRANCH   2   3
TORSDOF 13
ENDMDL
MODEL       87
REMARK 921   NORMALIZED FREE ENERGY PREDICTED BY IDOCK:   -6.44 KCAL/MOL
REMARK 922        TOTAL FREE ENERGY PREDICTED BY IDOCK:  -13.79 KCAL/MOL
REMARK 923 INTER-LIGAND FREE ENERGY PREDICTED BY IDOCK:   -9.46 KCAL/MOL
REMARK 924 INTRA-LIGAND FREE ENERGY PREDICTED BY IDOCK:   -4.33 KCAL/MOL
REMARK 927      BINDING AFFINITY PREDICTED BY RF-SCORE:    0.00 PKD
ROOT
HETATM    1  C   UNL     1      -7.581  15.929  67.071  1.00  0.00    -0.264 C  
HETATM    2  C   UNL     1      -9.002  16.101  67.577  1.00  0.00    -0.191 C  
ENDROOT
BRANCH   2   3
HETATM    3  O   UNL     1      -9.478  14.815  67.990  1.00  0.00    -0.197 OA 
BRANCH   3   4
HETATM    4  C   UNL     1     -10.068  14.104  67.032  1.00  0.00    -0.261 A  
HETATM    5  N   UNL     1     -11.228  14.399  66.494  1.00  0.00    -0.332 NA 
HETATM    6  C   UNL     1     -11.448  13.414  65.575  1.00  0.00    -0.305 A  
HETATM    7  C   UNL     1     -10.365  12.517  65.486  1.00  0.00    -0.280 A  
HETATM    8  C   UNL     1     -10.374  11.503  64.497  1.00  0.00    -0.354 A  
HETATM    9  N   UNL     1      -9.544  12.934  66.527  1.00  0.00    -0.256 NA 
HETATM   10  C   UNL     1     -12.638  12.216  63.852  1.00  0.00    -0.545 A  
HETATM   11  C   UNL     1     -12.596  13.246  64.783  1.00  0.00    -0.398 A  
HETATM   12  C   UNL     1     -11.534  11.387  63.696  1.00  0.00    -0.232 A  
BRANCH   9  13
HETATM   13  C   UNL     1      -8.432  12.245  67.182  1.00  0.00    -0.184 C  
BRANCH  13  14
HETATM   14  C   UNL     1      -8.850  11.477  68.410  1.00  0.00    -0.163 A  
HETATM   15  C   UNL     1     -10.550  10.459  69.799  1.00  0.00    -0.302 A  
HETATM   16  C   UNL     1      -9.629   9.504  70.264  1.00  0.00    -0.314 A  
HETATM   17  C   UNL     1      -7.885  10.770  69.130  1.00  0.00    -0.142 A  
HETATM   18  C   UNL     1     -10.177  11.399  68.830  1.00  0.00    -0.209 A  
HETATM   19  C   UNL     1      -8.272   9.779  70.031  1.00  0.00    -0.207 A  
BRANCH  16  20
HETATM   20  C   UNL     1     -10.053   8.190  70.832  1.00  0.00    -0.215 A  
HETATM   21  C   UNL     1     -11.213   7.559  70.323  1.00  0.00    -0.253 A  
HETATM   22  C   UNL     1      -9.415   7.566  71.947  1.00  0.00    -0.173 A  
HETATM   23  C   UNL     1     -11.717   6.370  70.860  1.00  0.00    -0.366 A  
HETATM   24  C   UNL     1      -9.907   6.332  72.429  1.00  0.00    -0.176 A  
HETATM   25  C   UNL     1     -11.052   5.744  71.901  1.00  0.00    -0.308 A  
BRANCH  22  26
HETATM   26  C   UNL     1      -8.289   8.121  72.710  1.00  0.00    -0.181 A  
HETATM   27  N   UNL     1      -7.011   8.088  72.377  1.00  0.00    -0.075 NA 
HETATM   28  H   UNL     1      -6.613   7.679  71.531  1.00  0.00     0.000 HD 
HETATM   29  N   UNL     1      -6.321   8.710  73.388  1.00  0.00    -0.221 NA 
HETATM   30  N   UNL     1      -7.142   9.103  74.348  1.00  0.00    -0.382 NA 
HETATM   31  N   UNL     1      -8.357   8.698  73.952  1.00  0.00    -0.310 NA 
ENDBRANCH  22  26
ENDBRANCH  16  20
ENDBRANCH  13  14
ENDBRANCH   9  13
BRANCH   8  32
HETATM   32  C   UNL     1      -9.331  10.462  64.336  1.00  0.00    -0.272 C  
HETATM   33  O   UNL     1      -8.181  10.712  64.017  1.00  0.00    -0.105 OA 
BRANCH  32  34
HETATM   34  O   UNL     1      -9.758   9.261  64.802  1.00  0.00     0.037 OA 
BRANCH  34  35
HETATM   35  C   UNL     1      -9.137   8.903  66.045  1.00  0.00    -0.214 C  
HETATM   36  C   UNL     1     -10.228   8.216  66.868  1.00  0.00    -0.387 C  
BRANCH  35  37
HETATM   37  O   UNL     1      -8.115   7.917  65.893  1.00  0.00    -0.106 OA 
BRANCH  37  38
HETATM   38  C   UNL     1      -6.904   8.234  66.402  1.00  0.00    -0.066 C  
HETATM   39  O   UNL     1      -6.011   8.832  65.828  1.00  0.00    -0.050 OA 
BRANCH  38  40
HETATM   40  O   UNL     1      -6.891   7.785  67.671  1.00  0.00    -0.065 OA 
BRANCH  40  41
HETATM   41  C   UNL     1      -6.398   6.486  68.071  1.00  0.00    -0.040 C  
HETATM   42  C   UNL     1      -8.394   4.278  68.019  1.00  0.00    -0.097 C  
HETATM   43  C   UNL     1      -7.202   6.068  69.304  1.00  0.00    -0.074 C  
HETATM   44  C   UNL     1      -8.562   5.494  68.921  1.00  0.00    -0.100 C  
HETATM   45  C   UNL     1      -7.596   4.596  66.759  1.00  0.00    -0.087 C  
HETATM   46  C   UNL     1      -6.300   5.367  67.027  1.00  0.00    -0.039 C  
ENDBRANCH  40  41
ENDBRANCH  38  40
ENDBRANCH  37  38
ENDBRANCH  35  37
ENDBRANCH  34  35
ENDBRANCH  32  34
ENDBRANCH   8  32
ENDBRANCH   3   4
ENDBRANCH   2   3
TORSDOF 13
ENDMDL
MODEL       88
REMARK 921   NORMALIZED FREE ENERGY PREDICTED BY IDOCK:   -6.44 KCAL/MOL
REMARK 922        TOTAL FREE ENERGY PREDICTED BY IDOCK:  -13.79 KCAL/MOL
REMARK 923 INTER-LIGAND FREE ENERGY PREDICTED BY IDOCK:   -9.69 KCAL/MOL
REMARK 924 INTRA-LIGAND FREE ENERGY PREDICTED BY IDOCK:   -4.10 KCAL/MOL
REMARK 927      BINDING AFFINITY PREDICTED BY RF-SCORE:    0.00 PKD
ROOT
HETATM    1  C   UNL     1     -12.939  11.751  63.463  1.00  0.00    -0.215 C  
HETATM    2  C   UNL     1     -12.557  12.845  64.445  1.00  0.00    -0.317 C  
ENDROOT
BRANCH   2   3
HETATM    3  O   UNL     1     -12.363  12.235  65.725  1.00  0.00    -0.622 OA 
BRANCH   3   4
HETATM    4  C   UNL     1     -11.528  12.884  66.532  1.00  0.00    -0.341 A  
HETATM    5  N   UNL     1     -11.861  13.914  67.276  1.00  0.00    -0.386 NA 
HETATM    6  C   UNL     1     -10.712  14.262  67.926  1.00  0.00    -0.240 A  
HETATM    7  C   UNL     1      -9.649  13.385  67.635  1.00  0.00    -0.219 A  
HETATM    8  C   UNL     1      -8.416  13.528  68.317  1.00  0.00    -0.168 A  
HETATM    9  N   UNL     1     -10.189  12.577  66.641  1.00  0.00    -0.227 NA 
HETATM   10  C   UNL     1      -9.309  15.539  69.416  1.00  0.00    -0.279 A  
HETATM   11  C   UNL     1     -10.535  15.356  68.790  1.00  0.00    -0.231 A  
HETATM   12  C   UNL     1      -8.287  14.622  69.204  1.00  0.00    -0.055 A  
BRANCH   9  13
HETATM   13  C   UNL     1      -9.526  11.686  65.689  1.00  0.00    -0.209 C  
BRANCH  13  14
HETATM   14  C   UNL     1      -9.336  10.287  66.218  1.00  0.00    -0.206 A  
HETATM   15  C   UNL     1     -10.200   8.104  66.803  1.00  0.00    -0.372 A  
HETATM   16  C   UNL     1      -8.955   7.514  66.530  1.00  0.00    -0.189 A  
HETATM   17  C   UNL     1      -8.045   9.761  66.295  1.00  0.00    -0.113 A  
HETATM   18  C   UNL     1     -10.406   9.473  66.586  1.00  0.00    -0.280 A  
HETATM   19  C   UNL     1      -7.859   8.385  66.428  1.00  0.00    -0.098 A  
BRANCH  16  20
HETATM   20  C   UNL     1      -8.807   6.064  66.205  1.00  0.00    -0.144 A  
HETATM   21  C   UNL     1      -8.597   5.675  64.860  1.00  0.00    -0.086 A  
HETATM   22  C   UNL     1      -8.969   5.017  67.162  1.00  0.00    -0.112 A  
HETATM   23  C   UNL     1      -8.533   4.334  64.469  1.00  0.00    -0.111 A  
HETATM   24  C   UNL     1      -8.835   3.671  66.751  1.00  0.00    -0.137 A  
HETATM   25  C   UNL     1      -8.630   3.330  65.418  1.00  0.00    -0.112 A  
BRANCH  22  26
HETATM   26  C   UNL     1      -9.332   5.196  68.574  1.00  0.00    -0.125 A  
HETATM   27  N   UNL     1      -8.515   5.155  69.614  1.00  0.00    -0.092 NA 
HETATM   28  H   UNL     1      -7.507   5.004  69.590  1.00  0.00     0.000 HD 
HETATM   29  N   UNL     1      -9.287   5.358  70.732  1.00  0.00    -0.155 NA 
HETATM   30  N   UNL     1     -10.563   5.497  70.407  1.00  0.00    -0.287 NA 
HETATM   31  N   UNL     1     -10.598   5.351  69.075  1.00  0.00    -0.192 NA 
ENDBRANCH  22  26
ENDBRANCH  16  20
ENDBRANCH  13  14
ENDBRANCH   9  13
BRANCH   8  32
HETATM   32  C   UNL     1      -7.203  12.714  68.063  1.00  0.00    -0.112 C  
HETATM   33  O   UNL     1      -6.631  12.685  66.986  1.00  0.00    -0.125 OA 
BRANCH  32  34
HETATM   34  O   UNL     1      -6.700  12.206  69.217  1.00  0.00    -0.105 OA 
BRANCH  34  35
HETATM   35  C   UNL     1      -6.813  10.777  69.282  1.00  0.00    -0.092 C  
HETATM   36  C   UNL     1      -5.380  10.255  69.400  1.00  0.00    -0.038 C  
BRANCH  35  37
HETATM   37  O   UNL     1      -7.468  10.324  70.467  1.00  0.00    -0.250 OA 
BRANCH  37  38
HETATM   38  C   UNL     1      -8.325   9.291  70.313  1.00  0.00    -0.186 C  
HETATM   39  O   UNL     1      -8.073   8.210  69.811  1.00  0.00    -0.112 OA 
BRANCH  38  40
HETATM   40  O   UNL     1      -9.498   9.680  70.847  1.00  0.00    -0.189 OA 
BRANCH  40  41
HETATM   41  C   UNL     1     -10.777   9.555  70.183  1.00  0.00    -0.257 C  
HETATM   42  C   UNL     1     -13.111  10.661  71.660  1.00  0.00    -0.555 C  
HETATM   43  C   UNL     1     -11.664   8.698  71.089  1.00  0.00    -0.334 C  
HETATM   44  C   UNL     1     -12.272   9.521  72.220  1.00  0.00    -0.161 C  
HETATM   45  C   UNL     1     -12.311  11.571  70.735  1.00  0.00    -0.472 C  
HETATM   46  C   UNL     1     -11.491  10.816  69.685  1.00  0.00    -0.376 C  
ENDBRANCH  40  41
ENDBRANCH  38  40
ENDBRANCH  37  38
ENDBRANCH  35  37
ENDBRANCH  34  35
ENDBRANCH  32  34
ENDBRANCH   8  32
ENDBRANCH   3   4
ENDBRANCH   2   3
TORSDOF 13
ENDMDL
MODEL       89
REMARK 921   NORMALIZED FREE ENERGY PREDICTED BY IDOCK:   -6.44 KCAL/MOL
REMARK 922        TOTAL FREE ENERGY PREDICTED BY IDOCK:  -13.79 KCAL/MOL
REMARK 923 INTER-LIGAND FREE ENERGY PREDICTED BY IDOCK:  -11.30 KCAL/MOL
REMARK 924 INTRA-LIGAND FREE ENERGY PREDICTED BY IDOCK:   -2.49 KCAL/MOL
REMARK 927      BINDING AFFINITY PREDICTED BY RF-SCORE:    0.00 PKD
ROOT
HETATM    1  C   UNL     1      -6.365   3.724  67.774  1.00  0.00    -0.037 C  
HETATM    2  C   UNL     1      -7.573   3.026  68.372  1.00  0.00    -0.052 C  
ENDROOT
BRANCH   2   3
HETATM    3  O   UNL     1      -8.705   3.885  68.198  1.00  0.00    -0.094 OA 
BRANCH   3   4
HETATM    4  C   UNL     1      -9.319   4.235  69.326  1.00  0.00    -0.162 A  
HETATM    5  N   UNL     1      -9.121   3.662  70.490  1.00  0.00    -0.102 NA 
HETATM    6  C   UNL     1      -9.948   4.322  71.351  1.00  0.00    -0.168 A  
HETATM    7  C   UNL     1     -10.632   5.383  70.724  1.00  0.00    -0.223 A  
HETATM    8  C   UNL     1     -11.442   6.249  71.498  1.00  0.00    -0.351 A  
HETATM    9  N   UNL     1     -10.283   5.218  69.389  1.00  0.00    -0.244 NA 
HETATM   10  C   UNL     1     -10.993   4.839  73.463  1.00  0.00    -0.398 A  
HETATM   11  C   UNL     1     -10.153   4.030  72.710  1.00  0.00    -0.219 A  
HETATM   12  C   UNL     1     -11.596   5.942  72.870  1.00  0.00    -0.164 A  
BRANCH   9  13
HETATM   13  C   UNL     1     -10.893   5.774  68.181  1.00  0.00    -0.162 C  
BRANCH  13  14
HETATM   14  C   UNL     1     -10.161   6.980  67.647  1.00  0.00    -0.245 A  
HETATM   15  C   UNL     1     -10.147   9.157  66.591  1.00  0.00    -0.343 A  
HETATM   16  C   UNL     1      -8.964   9.501  67.267  1.00  0.00    -0.143 A  
HETATM   17  C   UNL     1      -8.833   7.189  68.023  1.00  0.00    -0.129 A  
HETATM   18  C   UNL     1     -10.775   7.927  66.829  1.00  0.00    -0.097 A  
HETATM   19  C   UNL     1      -8.250   8.444  67.854  1.00  0.00    -0.127 A  
BRANCH  16  20
HETATM   20  C   UNL     1      -8.554  10.917  67.498  1.00  0.00    -0.127 A  
HETATM   21  C   UNL     1      -7.791  11.237  68.648  1.00  0.00    -0.139 A  
HETATM   22  C   UNL     1      -8.974  12.008  66.679  1.00  0.00    -0.204 A  
HETATM   23  C   UNL     1      -7.441  12.551  68.973  1.00  0.00     0.088 A  
HETATM   24  C   UNL     1      -8.553  13.320  66.995  1.00  0.00    -0.169 A  
HETATM   25  C   UNL     1      -7.804  13.593  68.135  1.00  0.00    -0.143 A  
BRANCH  22  26
HETATM   26  C   UNL     1      -9.882  11.914  65.527  1.00  0.00    -0.232 A  
HETATM   27  N   UNL     1      -9.555  11.616  64.282  1.00  0.00    -0.414 NA 
HETATM   28  H   UNL     1      -8.621  11.396  63.934  1.00  0.00     0.000 HD 
HETATM   29  N   UNL     1     -10.713  11.659  63.546  1.00  0.00    -0.412 NA 
HETATM   30  N   UNL     1     -11.743  12.001  64.305  1.00  0.00    -0.353 NA 
HETATM   31  N   UNL     1     -11.222  12.204  65.523  1.00  0.00    -0.324 NA 
ENDBRANCH  22  26
ENDBRANCH  16  20
ENDBRANCH  13  14
ENDBRANCH   9  13
BRANCH   8  32
HETATM   32  C   UNL     1     -12.260   7.361  70.956  1.00  0.00    -0.282 C  
HETATM   33  O   UNL     1     -13.429   7.537  71.254  1.00  0.00    -0.331 OA 
BRANCH  32  34
HETATM   34  O   UNL     1     -11.491   8.258  70.288  1.00  0.00    -0.201 OA 
BRANCH  34  35
HETATM   35  C   UNL     1     -11.111   9.373  71.108  1.00  0.00    -0.362 C  
HETATM   36  C   UNL     1      -9.583   9.332  71.176  1.00  0.00    -0.305 C  
BRANCH  35  37
HETATM   37  O   UNL     1     -11.420  10.633  70.512  1.00  0.00    -0.311 OA 
BRANCH  37  38
HETATM   38  C   UNL     1     -12.446  11.316  71.067  1.00  0.00    -0.400 C  
HETATM   39  O   UNL     1     -13.508  10.850  71.439  1.00  0.00    -0.192 OA 
BRANCH  38  40
HETATM   40  O   UNL     1     -12.052  12.601  71.151  1.00  0.00    -0.130 OA 
BRANCH  40  41
HETATM   41  C   UNL     1     -12.955  13.729  71.182  1.00  0.00    -0.298 C  
HETATM   42  C   UNL     1     -12.102  16.019  72.882  1.00  0.00    -0.626 C  
HETATM   43  C   UNL     1     -13.407  13.895  72.634  1.00  0.00    -0.640 C  
HETATM   44  C   UNL     1     -12.366  14.638  73.466  1.00  0.00    -0.378 C  
HETATM   45  C   UNL     1     -11.649  15.957  71.426  1.00  0.00    -0.529 C  
HETATM   46  C   UNL     1     -12.521  15.055  70.547  1.00  0.00    -0.425 C  
ENDBRANCH  40  41
ENDBRANCH  38  40
ENDBRANCH  37  38
ENDBRANCH  35  37
ENDBRANCH  34  35
ENDBRANCH  32  34
ENDBRANCH   8  32
ENDBRANCH   3   4
ENDBRANCH   2   3
TORSDOF 13
ENDMDL
MODEL       90
REMARK 921   NORMALIZED FREE ENERGY PREDICTED BY IDOCK:   -6.41 KCAL/MOL
REMARK 922        TOTAL FREE ENERGY PREDICTED BY IDOCK:  -13.74 KCAL/MOL
REMARK 923 INTER-LIGAND FREE ENERGY PREDICTED BY IDOCK:  -10.72 KCAL/MOL
REMARK 924 INTRA-LIGAND FREE ENERGY PREDICTED BY IDOCK:   -3.03 KCAL/MOL
REMARK 927      BINDING AFFINITY PREDICTED BY RF-SCORE:    0.00 PKD
ROOT
HETATM    1  C   UNL     1      -6.698   2.988  63.093  1.00  0.00    -0.027 C  
HETATM    2  C   UNL     1      -6.947   4.480  63.221  1.00  0.00    -0.043 C  
ENDROOT
BRANCH   2   3
HETATM    3  O   UNL     1      -7.012   4.794  64.617  1.00  0.00    -0.048 OA 
BRANCH   3   4
HETATM    4  C   UNL     1      -6.916   6.089  64.902  1.00  0.00    -0.055 A  
HETATM    5  N   UNL     1      -5.794   6.771  64.903  1.00  0.00    -0.034 NA 
HETATM    6  C   UNL     1      -6.154   8.039  65.253  1.00  0.00    -0.045 A  
HETATM    7  C   UNL     1      -7.548   8.173  65.409  1.00  0.00    -0.089 A  
HETATM    8  C   UNL     1      -8.106   9.452  65.654  1.00  0.00    -0.112 A  
HETATM    9  N   UNL     1      -7.991   6.862  65.285  1.00  0.00    -0.121 NA 
HETATM   10  C   UNL     1      -5.829  10.375  65.762  1.00  0.00    -0.108 A  
HETATM   11  C   UNL     1      -5.293   9.130  65.461  1.00  0.00    -0.037 A  
HETATM   12  C   UNL     1      -7.209  10.531  65.824  1.00  0.00    -0.135 A  
BRANCH   9  13
HETATM   13  C   UNL     1      -9.273   6.262  65.658  1.00  0.00     0.110 C  
BRANCH  13  14
HETATM   14  C   UNL     1      -9.564   6.354  67.135  1.00  0.00    -0.157 A  
HETATM   15  C   UNL     1     -11.089   6.226  69.009  1.00  0.00    -0.446 A  
HETATM   16  C   UNL     1     -10.043   5.834  69.861  1.00  0.00    -0.273 A  
HETATM   17  C   UNL     1      -8.501   6.317  68.039  1.00  0.00    -0.117 A  
HETATM   18  C   UNL     1     -10.861   6.422  67.641  1.00  0.00    -0.425 A  
HETATM   19  C   UNL     1      -8.738   6.038  69.385  1.00  0.00    -0.121 A  
BRANCH  16  20
HETATM   20  C   UNL     1     -10.280   5.095  71.137  1.00  0.00    -0.291 A  
HETATM   21  C   UNL     1      -9.773   3.780  71.278  1.00  0.00    -0.245 A  
HETATM   22  C   UNL     1     -11.087   5.593  72.204  1.00  0.00    -0.300 A  
HETATM   23  C   UNL     1     -10.026   2.997  72.409  1.00  0.00    -0.235 A  
HETATM   24  C   UNL     1     -11.274   4.806  73.363  1.00  0.00    -0.425 A  
HETATM   25  C   UNL     1     -10.759   3.518  73.462  1.00  0.00    -0.307 A  
BRANCH  22  26
HETATM   26  C   UNL     1     -11.820   6.867  72.200  1.00  0.00    -0.281 A  
HETATM   27  N   UNL     1     -13.124   7.031  72.049  1.00  0.00    -0.545 NA 
HETATM   28  H   UNL     1     -13.819   6.296  71.923  1.00  0.00     0.000 HD 
HETATM   29  N   UNL     1     -13.360   8.383  72.096  1.00  0.00    -0.331 NA 
HETATM   30  N   UNL     1     -12.230   9.056  72.246  1.00  0.00    -0.347 NA 
HETATM   31  N   UNL     1     -11.271   8.121  72.265  1.00  0.00    -0.332 NA 
ENDBRANCH  22  26
ENDBRANCH  16  20
ENDBRANCH  13  14
ENDBRANCH   9  13
BRANCH   8  32
HETATM   32  C   UNL     1      -9.544   9.720  65.896  1.00  0.00    -0.250 C  
HETATM   33  O   UNL     1     -10.026   9.825  67.011  1.00  0.00    -0.181 OA 
BRANCH  32  34
HETATM   34  O   UNL     1     -10.184  10.054  64.746  1.00  0.00    -0.237 OA 
BRANCH  34  35
HETATM   35  C   UNL     1     -10.531  11.446  64.695  1.00  0.00    -0.315 C  
HETATM   36  C   UNL     1     -10.044  11.942  63.333  1.00  0.00    -0.464 C  
BRANCH  35  37
HETATM   37  O   UNL     1     -11.941  11.667  64.685  1.00  0.00    -0.140 OA 
BRANCH  37  38
HETATM   38  C   UNL     1     -12.374  12.763  65.347  1.00  0.00    -0.470 C  
HETATM   39  O   UNL     1     -13.070  13.655  64.894  1.00  0.00    -0.713 OA 
BRANCH  38  40
HETATM   40  O   UNL     1     -11.910  12.661  66.607  1.00  0.00    -0.389 OA 
BRANCH  40  41
HETATM   41  C   UNL     1     -11.382  13.768  67.373  1.00  0.00    -0.324 C  
HETATM   42  C   UNL     1      -8.428  14.117  67.267  1.00  0.00    -0.228 C  
HETATM   43  C   UNL     1     -10.440  13.171  68.421  1.00  0.00    -0.261 C  
HETATM   44  C   UNL     1      -9.069  12.857  67.831  1.00  0.00    -0.201 C  
HETATM   45  C   UNL     1      -9.300  14.791  66.212  1.00  0.00    -0.310 C  
HETATM   46  C   UNL     1     -10.762  14.961  66.638  1.00  0.00    -0.312 C  
ENDBRANCH  40  41
ENDBRANCH  38  40
ENDBRANCH  37  38
ENDBRANCH  35  37
ENDBRANCH  34  35
ENDBRANCH  32  34
ENDBRANCH   8  32
ENDBRANCH   3   4
ENDBRANCH   2   3
TORSDOF 13
ENDMDL
MODEL       91
REMARK 921   NORMALIZED FREE ENERGY PREDICTED BY IDOCK:   -6.41 KCAL/MOL
REMARK 922        TOTAL FREE ENERGY PREDICTED BY IDOCK:  -13.73 KCAL/MOL
REMARK 923 INTER-LIGAND FREE ENERGY PREDICTED BY IDOCK:  -10.06 KCAL/MOL
REMARK 924 INTRA-LIGAND FREE ENERGY PREDICTED BY IDOCK:   -3.67 KCAL/MOL
REMARK 927      BINDING AFFINITY PREDICTED BY RF-SCORE:    0.00 PKD
ROOT
HETATM    1  C   UNL     1      -9.192   3.089  63.194  1.00  0.00    -0.094 C  
HETATM    2  C   UNL     1      -9.989   3.843  64.244  1.00  0.00    -0.193 C  
ENDROOT
BRANCH   2   3
HETATM    3  O   UNL     1      -9.153   4.882  64.764  1.00  0.00    -0.154 OA 
BRANCH   3   4
HETATM    4  C   UNL     1      -9.059   4.911  66.091  1.00  0.00    -0.135 A  
HETATM    5  N   UNL     1      -9.664   4.072  66.899  1.00  0.00    -0.213 NA 
HETATM    6  C   UNL     1      -9.298   4.467  68.153  1.00  0.00    -0.146 A  
HETATM    7  C   UNL     1      -8.385   5.539  68.128  1.00  0.00    -0.099 A  
HETATM    8  C   UNL     1      -7.808   5.997  69.338  1.00  0.00    -0.099 A  
HETATM    9  N   UNL     1      -8.346   5.869  66.779  1.00  0.00    -0.109 NA 
HETATM   10  C   UNL     1      -9.230   4.408  70.564  1.00  0.00    -0.192 A  
HETATM   11  C   UNL     1      -9.746   3.923  69.369  1.00  0.00    -0.172 A  
HETATM   12  C   UNL     1      -8.259   5.402  70.539  1.00  0.00    -0.110 A  
BRANCH   9  13
HETATM   13  C   UNL     1      -7.852   7.079  66.120  1.00  0.00    -0.102 C  
BRANCH  13  14
HETATM   14  C   UNL     1      -8.912   8.140  65.955  1.00  0.00    -0.195 A  
HETATM   15  C   UNL     1     -10.695   9.513  66.842  1.00  0.00    -0.184 A  
HETATM   16  C   UNL     1     -10.400  10.531  65.919  1.00  0.00    -0.275 A  
HETATM   17  C   UNL     1      -8.863   8.979  64.841  1.00  0.00    -0.190 A  
HETATM   18  C   UNL     1      -9.914   8.352  66.900  1.00  0.00    -0.341 A  
HETATM   19  C   UNL     1      -9.583  10.173  64.834  1.00  0.00    -0.369 A  
BRANCH  16  20
HETATM   20  C   UNL     1     -10.788  11.955  66.142  1.00  0.00    -0.334 A  
HETATM   21  C   UNL     1     -11.913  12.479  65.461  1.00  0.00    -0.500 A  
HETATM   22  C   UNL     1     -10.027  12.870  66.930  1.00  0.00    -0.238 A  
HETATM   23  C   UNL     1     -12.287  13.823  65.555  1.00  0.00    -0.507 A  
HETATM   24  C   UNL     1     -10.464  14.208  67.060  1.00  0.00    -0.271 A  
HETATM   25  C   UNL     1     -11.575  14.685  66.373  1.00  0.00    -0.343 A  
BRANCH  22  26
HETATM   26  C   UNL     1      -8.755  12.570  67.601  1.00  0.00    -0.177 A  
HETATM   27  N   UNL     1      -8.589  11.869  68.710  1.00  0.00    -0.360 NA 
HETATM   28  H   UNL     1      -9.321  11.422  69.262  1.00  0.00     0.000 HD 
HETATM   29  N   UNL     1      -7.242  11.859  68.975  1.00  0.00    -0.098 NA 
HETATM   30  N   UNL     1      -6.577  12.558  68.069  1.00  0.00    -0.075 NA 
HETATM   31  N   UNL     1      -7.517  13.038  67.243  1.00  0.00    -0.120 NA 
ENDBRANCH  22  26
ENDBRANCH  16  20
ENDBRANCH  13  14
ENDBRANCH   9  13
BRANCH   8  32
HETATM   32  C   UNL     1      -6.884   7.150  69.458  1.00  0.00    -0.050 C  
HETATM   33  O   UNL     1      -5.801   7.200  68.900  1.00  0.00    -0.018 OA 
BRANCH  32  34
HETATM   34  O   UNL     1      -7.488   8.204  70.064  1.00  0.00    -0.063 OA 
BRANCH  34  35
HETATM   35  C   UNL     1      -7.067   8.369  71.426  1.00  0.00    -0.074 C  
HETATM   36  C   UNL     1      -5.933   9.395  71.386  1.00  0.00    -0.069 C  
BRANCH  35  37
HETATM   37  O   UNL     1      -8.071   8.962  72.251  1.00  0.00    -0.376 OA 
BRANCH  37  38
HETATM   38  C   UNL     1      -8.886   8.104  72.903  1.00  0.00    -0.240 C  
HETATM   39  O   UNL     1      -8.541   7.146  73.573  1.00  0.00    -0.126 OA 
BRANCH  38  40
HETATM   40  O   UNL     1     -10.145   8.531  72.689  1.00  0.00    -0.282 OA 
BRANCH  40  41
HETATM   41  C   UNL     1     -10.859   8.369  71.443  1.00  0.00    -0.244 C  
HETATM   42  C   UNL     1     -13.133  10.239  71.006  1.00  0.00    -0.458 C  
HETATM   43  C   UNL     1     -12.304   8.014  71.803  1.00  0.00    -0.352 C  
HETATM   44  C   UNL     1     -13.113   9.254  72.167  1.00  0.00    -0.520 C  
HETATM   45  C   UNL     1     -11.730  10.649  70.568  1.00  0.00    -0.451 C  
HETATM   46  C   UNL     1     -10.773   9.469  70.380  1.00  0.00    -0.341 C  
ENDBRANCH  40  41
ENDBRANCH  38  40
ENDBRANCH  37  38
ENDBRANCH  35  37
ENDBRANCH  34  35
ENDBRANCH  32  34
ENDBRANCH   8  32
ENDBRANCH   3   4
ENDBRANCH   2   3
TORSDOF 13
ENDMDL
MODEL       92
REMARK 921   NORMALIZED FREE ENERGY PREDICTED BY IDOCK:   -6.40 KCAL/MOL
REMARK 922        TOTAL FREE ENERGY PREDICTED BY IDOCK:  -13.72 KCAL/MOL
REMARK 923 INTER-LIGAND FREE ENERGY PREDICTED BY IDOCK:  -10.96 KCAL/MOL
REMARK 924 INTRA-LIGAND FREE ENERGY PREDICTED BY IDOCK:   -2.76 KCAL/MOL
REMARK 927      BINDING AFFINITY PREDICTED BY RF-SCORE:    0.00 PKD
ROOT
HETATM    1  C   UNL     1     -12.106  13.161  64.652  1.00  0.00    -0.462 C  
HETATM    2  C   UNL     1     -12.089  12.876  66.143  1.00  0.00    -0.393 C  
ENDROOT
BRANCH   2   3
HETATM    3  O   UNL     1     -11.129  11.842  66.380  1.00  0.00    -0.287 OA 
BRANCH   3   4
HETATM    4  C   UNL     1     -11.155  11.325  67.606  1.00  0.00    -0.277 A  
HETATM    5  N   UNL     1     -12.225  11.257  68.362  1.00  0.00    -0.555 NA 
HETATM    6  C   UNL     1     -11.800  10.671  69.519  1.00  0.00    -0.273 A  
HETATM    7  C   UNL     1     -10.442  10.299  69.459  1.00  0.00    -0.244 A  
HETATM    8  C   UNL     1      -9.868   9.569  70.529  1.00  0.00    -0.331 A  
HETATM    9  N   UNL     1     -10.034  10.844  68.248  1.00  0.00    -0.170 NA 
HETATM   10  C   UNL     1     -11.992   9.779  71.753  1.00  0.00    -0.388 A  
HETATM   11  C   UNL     1     -12.565  10.441  70.675  1.00  0.00    -0.435 A  
HETATM   12  C   UNL     1     -10.680   9.328  71.661  1.00  0.00    -0.393 A  
BRANCH   9  13
HETATM   13  C   UNL     1      -8.687  11.100  67.737  1.00  0.00    -0.132 C  
BRANCH  13  14
HETATM   14  C   UNL     1      -8.363  12.568  67.625  1.00  0.00    -0.172 A  
HETATM   15  C   UNL     1      -8.547  14.701  66.497  1.00  0.00    -0.023 A  
HETATM   16  C   UNL     1      -8.381  15.383  67.715  1.00  0.00    -0.156 A  
HETATM   17  C   UNL     1      -7.854  13.237  68.739  1.00  0.00     0.008 A  
HETATM   18  C   UNL     1      -8.601  13.301  66.464  1.00  0.00     0.168 A  
HETATM   19  C   UNL     1      -7.884  14.630  68.790  1.00  0.00    -0.146 A  
BRANCH  16  20
HETATM   20  C   UNL     1      -8.850  16.786  67.920  1.00  0.00    -0.218 A  
HETATM   21  C   UNL     1      -8.045  17.857  67.461  1.00  0.00    -0.228 A  
HETATM   22  C   UNL     1     -10.026  17.129  68.653  1.00  0.00    -0.313 A  
HETATM   23  C   UNL     1      -8.378  19.196  67.691  1.00  0.00    -0.321 A  
HETATM   24  C   UNL     1     -10.372  18.490  68.815  1.00  0.00    -0.210 A  
HETATM   25  C   UNL     1      -9.554  19.514  68.349  1.00  0.00    -0.473 A  
BRANCH  22  26
HETATM   26  C   UNL     1     -10.919  16.181  69.332  1.00  0.00    -0.333 A  
HETATM   27  N   UNL     1     -12.043  15.672  68.858  1.00  0.00    -0.584 NA 
HETATM   28  H   UNL     1     -12.455  15.853  67.943  1.00  0.00     0.000 HD 
HETATM   29  N   UNL     1     -12.550  14.851  69.836  1.00  0.00    -0.221 NA 
HETATM   30  N   UNL     1     -11.776  14.862  70.910  1.00  0.00    -0.309 NA 
HETATM   31  N   UNL     1     -10.790  15.722  70.617  1.00  0.00    -0.308 NA 
ENDBRANCH  22  26
ENDBRANCH  16  20
ENDBRANCH  13  14
ENDBRANCH   9  13
BRANCH   8  32
HETATM   32  C   UNL     1      -8.443   9.170  70.619  1.00  0.00    -0.209 C  
HETATM   33  O   UNL     1      -7.525   9.972  70.640  1.00  0.00    -0.302 OA 
BRANCH  32  34
HETATM   34  O   UNL     1      -8.318   7.848  70.901  1.00  0.00    -0.110 OA 
BRANCH  34  35
HETATM   35  C   UNL     1      -8.243   7.039  69.718  1.00  0.00    -0.131 C  
HETATM   36  C   UNL     1      -6.821   7.220  69.185  1.00  0.00    -0.061 C  
BRANCH  35  37
HETATM   37  O   UNL     1      -8.359   5.642  69.991  1.00  0.00    -0.116 OA 
BRANCH  37  38
HETATM   38  C   UNL     1      -9.607   5.128  69.928  1.00  0.00    -0.174 C  
HETATM   39  O   UNL     1     -10.022   4.158  70.538  1.00  0.00    -0.201 OA 
BRANCH  38  40
HETATM   40  O   UNL     1     -10.304   5.911  69.083  1.00  0.00    -0.192 OA 
BRANCH  40  41
HETATM   41  C   UNL     1     -10.569   5.584  67.700  1.00  0.00    -0.164 C  
HETATM   42  C   UNL     1      -8.676   6.739  65.715  1.00  0.00    -0.122 C  
HETATM   43  C   UNL     1     -10.835   6.905  66.975  1.00  0.00    -0.436 C  
HETATM   44  C   UNL     1      -9.536   7.618  66.613  1.00  0.00    -0.255 C  
HETATM   45  C   UNL     1      -8.362   5.389  66.353  1.00  0.00    -0.110 C  
HETATM   46  C   UNL     1      -9.588   4.684  66.940  1.00  0.00    -0.197 C  
ENDBRANCH  40  41
ENDBRANCH  38  40
ENDBRANCH  37  38
ENDBRANCH  35  37
ENDBRANCH  34  35
ENDBRANCH  32  34
ENDBRANCH   8  32
ENDBRANCH   3   4
ENDBRANCH   2   3
TORSDOF 13
ENDMDL
MODEL       93
REMARK 921   NORMALIZED FREE ENERGY PREDICTED BY IDOCK:   -6.37 KCAL/MOL
REMARK 922        TOTAL FREE ENERGY PREDICTED BY IDOCK:  -13.67 KCAL/MOL
REMARK 923 INTER-LIGAND FREE ENERGY PREDICTED BY IDOCK:  -10.26 KCAL/MOL
REMARK 924 INTRA-LIGAND FREE ENERGY PREDICTED BY IDOCK:   -3.41 KCAL/MOL
REMARK 927      BINDING AFFINITY PREDICTED BY RF-SCORE:    0.00 PKD
ROOT
HETATM    1  C   UNL     1      -7.201   6.764  65.574  1.00  0.00    -0.077 C  
HETATM    2  C   UNL     1      -6.298   7.985  65.616  1.00  0.00    -0.042 C  
ENDROOT
BRANCH   2   3
HETATM    3  O   UNL     1      -7.071   9.114  65.196  1.00  0.00    -0.086 OA 
BRANCH   3   4
HETATM    4  C   UNL     1      -6.987  10.176  65.994  1.00  0.00    -0.117 A  
HETATM    5  N   UNL     1      -5.899  10.549  66.625  1.00  0.00    -0.060 NA 
HETATM    6  C   UNL     1      -6.263  11.664  67.323  1.00  0.00    -0.115 A  
HETATM    7  C   UNL     1      -7.596  12.040  67.067  1.00  0.00    -0.111 A  
HETATM    8  C   UNL     1      -8.102  13.245  67.615  1.00  0.00    -0.174 A  
HETATM    9  N   UNL     1      -8.062  10.985  66.291  1.00  0.00    -0.165 NA 
HETATM   10  C   UNL     1      -5.970  13.546  68.803  1.00  0.00    -0.084 A  
HETATM   11  C   UNL     1      -5.460  12.396  68.214  1.00  0.00    -0.058 A  
HETATM   12  C   UNL     1      -7.253  13.972  68.481  1.00  0.00    -0.109 A  
BRANCH   9  13
HETATM   13  C   UNL     1      -9.433  10.593  65.963  1.00  0.00    -0.193 C  
BRANCH  13  14
HETATM   14  C   UNL     1     -10.066   9.711  67.010  1.00  0.00    -0.275 A  
HETATM   15  C   UNL     1     -10.411   7.546  68.034  1.00  0.00    -0.254 A  
HETATM   16  C   UNL     1     -10.634   8.149  69.284  1.00  0.00    -0.191 A  
HETATM   17  C   UNL     1     -10.629  10.301  68.143  1.00  0.00    -0.258 A  
HETATM   18  C   UNL     1     -10.065   8.320  66.919  1.00  0.00    -0.366 A  
HETATM   19  C   UNL     1     -10.889   9.529  69.275  1.00  0.00    -0.211 A  
BRANCH  16  20
HETATM   20  C   UNL     1     -10.459   7.415  70.572  1.00  0.00    -0.227 A  
HETATM   21  C   UNL     1     -11.560   6.717  71.125  1.00  0.00    -0.384 A  
HETATM   22  C   UNL     1      -9.263   7.457  71.352  1.00  0.00    -0.148 A  
HETATM   23  C   UNL     1     -11.494   6.078  72.367  1.00  0.00    -0.357 A  
HETATM   24  C   UNL     1      -9.204   6.749  72.573  1.00  0.00    -0.146 A  
HETATM   25  C   UNL     1     -10.308   6.075  73.083  1.00  0.00    -0.230 A  
BRANCH  22  26
HETATM   26  C   UNL     1      -8.060   8.237  71.032  1.00  0.00    -0.110 A  
HETATM   27  N   UNL     1      -7.351   8.181  69.918  1.00  0.00    -0.064 NA 
HETATM   28  H   UNL     1      -7.540   7.594  69.105  1.00  0.00     0.000 HD 
HETATM   29  N   UNL     1      -6.312   9.067  70.064  1.00  0.00    -0.037 NA 
HETATM   30  N   UNL     1      -6.350   9.648  71.253  1.00  0.00    -0.259 NA 
HETATM   31  N   UNL     1      -7.406   9.101  71.871  1.00  0.00    -0.330 NA 
ENDBRANCH  22  26
ENDBRANCH  16  20
ENDBRANCH  13  14
ENDBRANCH   9  13
BRANCH   8  32
HETATM   32  C   UNL     1      -9.498  13.723  67.474  1.00  0.00    -0.220 C  
HETATM   33  O   UNL     1     -10.100  13.726  66.414  1.00  0.00    -0.279 OA 
BRANCH  32  34
HETATM   34  O   UNL     1     -10.072  13.933  68.686  1.00  0.00    -0.228 OA 
BRANCH  34  35
HETATM   35  C   UNL     1     -11.505  13.871  68.633  1.00  0.00    -0.298 C  
HETATM   36  C   UNL     1     -11.930  13.098  69.883  1.00  0.00    -0.387 C  
BRANCH  35  37
HETATM   37  O   UNL     1     -12.122  15.152  68.764  1.00  0.00    -0.265 OA 
BRANCH  37  38
HETATM   38  C   UNL     1     -11.398  16.096  69.405  1.00  0.00    -0.323 C  
HETATM   39  O   UNL     1     -11.236  16.191  70.608  1.00  0.00    -0.368 OA 
BRANCH  38  40
HETATM   40  O   UNL     1     -10.874  16.891  68.453  1.00  0.00    -0.356 OA 
BRANCH  40  41
HETATM   41  C   UNL     1      -9.862  17.894  68.696  1.00  0.00    -0.374 C  
HETATM   42  C   UNL     1      -8.847  19.314  66.285  1.00  0.00    -0.341 C  
HETATM   43  C   UNL     1      -8.607  17.450  67.940  1.00  0.00    -0.232 C  
HETATM   44  C   UNL     1      -8.685  17.810  66.461  1.00  0.00    -0.281 C  
HETATM   45  C   UNL     1     -10.074  19.855  67.011  1.00  0.00    -0.578 C  
HETATM   46  C   UNL     1     -10.197  19.371  68.460  1.00  0.00    -0.492 C  
ENDBRANCH  40  41
ENDBRANCH  38  40
ENDBRANCH  37  38
ENDBRANCH  35  37
ENDBRANCH  34  35
ENDBRANCH  32  34
ENDBRANCH   8  32
ENDBRANCH   3   4
ENDBRANCH   2   3
TORSDOF 13
ENDMDL
MODEL       94
REMARK 921   NORMALIZED FREE ENERGY PREDICTED BY IDOCK:   -6.37 KCAL/MOL
REMARK 922        TOTAL FREE ENERGY PREDICTED BY IDOCK:  -13.66 KCAL/MOL
REMARK 923 INTER-LIGAND FREE ENERGY PREDICTED BY IDOCK:  -10.21 KCAL/MOL
REMARK 924 INTRA-LIGAND FREE ENERGY PREDICTED BY IDOCK:   -3.45 KCAL/MOL
REMARK 927      BINDING AFFINITY PREDICTED BY RF-SCORE:    0.00 PKD
ROOT
HETATM    1  C   UNL     1     -13.042   9.519  72.158  1.00  0.00    -0.522 C  
HETATM    2  C   UNL     1     -12.188  10.242  71.132  1.00  0.00    -0.397 C  
ENDROOT
BRANCH   2   3
HETATM    3  O   UNL     1     -10.899   9.619  71.117  1.00  0.00    -0.337 OA 
BRANCH   3   4
HETATM    4  C   UNL     1     -10.638   8.902  70.027  1.00  0.00    -0.220 A  
HETATM    5  N   UNL     1     -11.187   7.743  69.749  1.00  0.00    -0.088 NA 
HETATM    6  C   UNL     1     -10.634   7.370  68.558  1.00  0.00    -0.153 A  
HETATM    7  C   UNL     1      -9.767   8.354  68.043  1.00  0.00    -0.158 A  
HETATM    8  C   UNL     1      -9.200   8.183  66.756  1.00  0.00    -0.206 A  
HETATM    9  N   UNL     1      -9.710   9.277  69.079  1.00  0.00    -0.159 NA 
HETATM   10  C   UNL     1     -10.248   5.961  66.638  1.00  0.00    -0.258 A  
HETATM   11  C   UNL     1     -10.849   6.162  67.874  1.00  0.00    -0.406 A  
HETATM   12  C   UNL     1      -9.467   6.968  66.084  1.00  0.00    -0.055 A  
BRANCH   9  13
HETATM   13  C   UNL     1      -8.755  10.358  69.326  1.00  0.00    -0.150 C  
BRANCH  13  14
HETATM   14  C   UNL     1      -9.121  11.644  68.629  1.00  0.00    -0.103 A  
HETATM   15  C   UNL     1     -10.673  13.444  68.175  1.00  0.00    -0.267 A  
HETATM   16  C   UNL     1      -9.609  14.329  67.933  1.00  0.00    -0.221 A  
HETATM   17  C   UNL     1      -8.109  12.414  68.052  1.00  0.00    -0.162 A  
HETATM   18  C   UNL     1     -10.428  12.126  68.583  1.00  0.00    -0.237 A  
HETATM   19  C   UNL     1      -8.347  13.749  67.728  1.00  0.00    -0.180 A  
BRANCH  16  20
HETATM   20  C   UNL     1      -9.757  15.811  68.042  1.00  0.00    -0.212 A  
HETATM   21  C   UNL     1      -8.967  16.646  67.215  1.00  0.00    -0.211 A  
HETATM   22  C   UNL     1     -10.580  16.457  69.014  1.00  0.00    -0.308 A  
HETATM   23  C   UNL     1      -8.990  18.041  67.318  1.00  0.00    -0.251 A  
HETATM   24  C   UNL     1     -10.633  17.869  69.053  1.00  0.00     0.058 A  
HETATM   25  C   UNL     1      -9.840  18.654  68.223  1.00  0.00    -0.410 A  
BRANCH  22  26
HETATM   26  C   UNL     1     -11.365  15.781  70.055  1.00  0.00    -0.351 A  
HETATM   27  N   UNL     1     -10.941  15.406  71.250  1.00  0.00    -0.466 NA 
HETATM   28  H   UNL     1     -10.005  15.539  71.633  1.00  0.00     0.000 HD 
HETATM   29  N   UNL     1     -12.004  14.803  71.877  1.00  0.00    -0.345 NA 
HETATM   30  N   UNL     1     -13.065  14.776  71.086  1.00  0.00    -0.361 NA 
HETATM   31  N   UNL     1     -12.658  15.340  69.941  1.00  0.00    -0.234 NA 
ENDBRANCH  22  26
ENDBRANCH  16  20
ENDBRANCH  13  14
ENDBRANCH   9  13
BRANCH   8  32
HETATM   32  C   UNL     1      -8.229   9.108  66.124  1.00  0.00    -0.111 C  
HETATM   33  O   UNL     1      -7.141   9.369  66.610  1.00  0.00    -0.084 OA 
BRANCH  32  34
HETATM   34  O   UNL     1      -8.607   9.432  64.861  1.00  0.00    -0.155 OA 
BRANCH  34  35
HETATM   35  C   UNL     1      -7.530   9.988  64.092  1.00  0.00    -0.132 C  
HETATM   36  C   UNL     1      -6.892   8.805  63.362  1.00  0.00    -0.089 C  
BRANCH  35  37
HETATM   37  O   UNL     1      -7.980  10.862  63.056  1.00  0.00    -0.034 OA 
BRANCH  37  38
HETATM   38  C   UNL     1      -9.317  10.914  62.863  1.00  0.00    -0.349 C  
HETATM   39  O   UNL     1     -10.019  10.024  62.418  1.00  0.00     0.072 OA 
BRANCH  38  40
HETATM   40  O   UNL     1      -9.719  12.128  63.284  1.00  0.00    -0.370 OA 
BRANCH  40  41
HETATM   41  C   UNL     1     -10.152  12.421  64.632  1.00  0.00    -0.240 C  
HETATM   42  C   UNL     1     -12.731  13.888  64.868  1.00  0.00    -0.315 C  
HETATM   43  C   UNL     1     -10.230  13.945  64.751  1.00  0.00    -0.353 C  
HETATM   44  C   UNL     1     -11.525  14.490  64.160  1.00  0.00    -0.072 C  
HETATM   45  C   UNL     1     -12.739  12.363  64.809  1.00  0.00    -0.324 C  
HETATM   46  C   UNL     1     -11.399  11.724  65.187  1.00  0.00    -0.281 C  
ENDBRANCH  40  41
ENDBRANCH  38  40
ENDBRANCH  37  38
ENDBRANCH  35  37
ENDBRANCH  34  35
ENDBRANCH  32  34
ENDBRANCH   8  32
ENDBRANCH   3   4
ENDBRANCH   2   3
TORSDOF 13
ENDMDL
MODEL       95
REMARK 921   NORMALIZED FREE ENERGY PREDICTED BY IDOCK:   -6.36 KCAL/MOL
REMARK 922        TOTAL FREE ENERGY PREDICTED BY IDOCK:  -13.65 KCAL/MOL
REMARK 923 INTER-LIGAND FREE ENERGY PREDICTED BY IDOCK:  -11.91 KCAL/MOL
REMARK 924 INTRA-LIGAND FREE ENERGY PREDICTED BY IDOCK:   -1.74 KCAL/MOL
REMARK 927      BINDING AFFINITY PREDICTED BY RF-SCORE:    0.00 PKD
ROOT
HETATM    1  C   UNL     1     -12.088  13.101  63.190  1.00  0.00    -0.282 C  
HETATM    2  C   UNL     1     -11.008  12.042  63.315  1.00  0.00    -0.325 C  
ENDROOT
BRANCH   2   3
HETATM    3  O   UNL     1     -10.144  12.422  64.391  1.00  0.00    -0.305 OA 
BRANCH   3   4
HETATM    4  C   UNL     1      -9.987  11.497  65.334  1.00  0.00    -0.248 A  
HETATM    5  N   UNL     1      -9.170  10.474  65.245  1.00  0.00    -0.187 NA 
HETATM    6  C   UNL     1      -9.332   9.791  66.415  1.00  0.00    -0.171 A  
HETATM    7  C   UNL     1     -10.224  10.442  67.291  1.00  0.00    -0.211 A  
HETATM    8  C   UNL     1     -10.416   9.934  68.599  1.00  0.00    -0.231 A  
HETATM    9  N   UNL     1     -10.711  11.480  66.507  1.00  0.00    -0.263 NA 
HETATM   10  C   UNL     1      -8.956   8.039  68.030  1.00  0.00    -0.130 A  
HETATM   11  C   UNL     1      -8.724   8.575  66.770  1.00  0.00    -0.133 A  
HETATM   12  C   UNL     1      -9.760   8.726  68.931  1.00  0.00    -0.174 A  
BRANCH   9  13
HETATM   13  C   UNL     1     -11.891  12.326  66.692  1.00  0.00    -0.289 C  
BRANCH  13  14
HETATM   14  C   UNL     1     -11.557  13.711  67.186  1.00  0.00    -0.392 A  
HETATM   15  C   UNL     1     -10.811  15.223  68.921  1.00  0.00    -0.247 A  
HETATM   16  C   UNL     1     -10.284  16.101  67.959  1.00  0.00    -0.252 A  
HETATM   17  C   UNL     1     -11.358  14.733  66.255  1.00  0.00    -0.334 A  
HETATM   18  C   UNL     1     -11.387  14.005  68.537  1.00  0.00    -0.308 A  
HETATM   19  C   UNL     1     -10.708  15.906  66.635  1.00  0.00    -0.270 A  
BRANCH  16  20
HETATM   20  C   UNL     1      -9.212  17.090  68.276  1.00  0.00    -0.255 A  
HETATM   21  C   UNL     1      -9.530  18.470  68.300  1.00  0.00    -0.360 A  
HETATM   22  C   UNL     1      -7.839  16.741  68.458  1.00  0.00    -0.229 A  
HETATM   23  C   UNL     1      -8.562  19.459  68.507  1.00  0.00    -0.401 A  
HETATM   24  C   UNL     1      -6.893  17.755  68.730  1.00  0.00    -0.247 A  
HETATM   25  C   UNL     1      -7.246  19.101  68.744  1.00  0.00    -0.368 A  
BRANCH  22  26
HETATM   26  C   UNL     1      -7.276  15.390  68.332  1.00  0.00    -0.114 A  
HETATM   27  N   UNL     1      -7.539  14.346  69.098  1.00  0.00    -0.246 NA 
HETATM   28  H   UNL     1      -8.184  14.318  69.888  1.00  0.00     0.000 HD 
HETATM   29  N   UNL     1      -6.779  13.305  68.625  1.00  0.00    -0.089 NA 
HETATM   30  N   UNL     1      -6.035  13.691  67.601  1.00  0.00    -0.301 NA 
HETATM   31  N   UNL     1      -6.307  14.994  67.447  1.00  0.00    -0.321 NA 
ENDBRANCH  22  26
ENDBRANCH  16  20
ENDBRANCH  13  14
ENDBRANCH   9  13
BRANCH   8  32
HETATM   32  C   UNL     1     -11.367  10.485  69.595  1.00  0.00    -0.281 C  
HETATM   33  O   UNL     1     -12.467  10.920  69.299  1.00  0.00    -0.392 OA 
BRANCH  32  34
HETATM   34  O   UNL     1     -10.954  10.232  70.863  1.00  0.00    -0.281 OA 
BRANCH  34  35
HETATM   35  C   UNL     1     -11.978   9.624  71.663  1.00  0.00    -0.394 C  
HETATM   36  C   UNL     1     -12.967  10.745  71.988  1.00  0.00    -0.444 C  
BRANCH  35  37
HETATM   37  O   UNL     1     -12.743   8.655  70.945  1.00  0.00    -0.096 OA 
BRANCH  37  38
HETATM   38  C   UNL     1     -13.118   7.560  71.643  1.00  0.00    -0.358 C  
HETATM   39  O   UNL     1     -14.238   7.084  71.695  1.00  0.00    -0.369 OA 
BRANCH  38  40
HETATM   40  O   UNL     1     -12.009   7.087  72.243  1.00  0.00    -0.276 OA 
BRANCH  40  41
HETATM   41  C   UNL     1     -11.531   5.728  72.117  1.00  0.00    -0.235 C  
HETATM   42  C   UNL     1      -8.616   5.339  72.571  1.00  0.00    -0.121 C  
HETATM   43  C   UNL     1     -10.510   5.722  70.977  1.00  0.00    -0.307 C  
HETATM   44  C   UNL     1      -9.144   6.216  71.444  1.00  0.00    -0.146 C  
HETATM   45  C   UNL     1      -9.574   5.277  73.757  1.00  0.00    -0.139 C  
HETATM   46  C   UNL     1     -11.026   4.992  73.362  1.00  0.00    -0.393 C  
ENDBRANCH  40  41
ENDBRANCH  38  40
ENDBRANCH  37  38
ENDBRANCH  35  37
ENDBRANCH  34  35
ENDBRANCH  32  34
ENDBRANCH   8  32
ENDBRANCH   3   4
ENDBRANCH   2   3
TORSDOF 13
ENDMDL
MODEL       96
REMARK 921   NORMALIZED FREE ENERGY PREDICTED BY IDOCK:   -6.33 KCAL/MOL
REMARK 922        TOTAL FREE ENERGY PREDICTED BY IDOCK:  -13.60 KCAL/MOL
REMARK 923 INTER-LIGAND FREE ENERGY PREDICTED BY IDOCK:  -11.25 KCAL/MOL
REMARK 924 INTRA-LIGAND FREE ENERGY PREDICTED BY IDOCK:   -2.35 KCAL/MOL
REMARK 927      BINDING AFFINITY PREDICTED BY RF-SCORE:    0.00 PKD
ROOT
HETATM    1  C   UNL     1      -6.423   8.338  66.258  1.00  0.00    -0.047 C  
HETATM    2  C   UNL     1      -6.477   8.144  67.763  1.00  0.00    -0.053 C  
ENDROOT
BRANCH   2   3
HETATM    3  O   UNL     1      -7.289   9.189  68.310  1.00  0.00    -0.078 OA 
BRANCH   3   4
HETATM    4  C   UNL     1      -7.926   8.871  69.434  1.00  0.00    -0.100 A  
HETATM    5  N   UNL     1      -7.351   8.752  70.608  1.00  0.00    -0.063 NA 
HETATM    6  C   UNL     1      -8.361   8.413  71.460  1.00  0.00    -0.154 A  
HETATM    7  C   UNL     1      -9.614   8.387  70.817  1.00  0.00    -0.173 A  
HETATM    8  C   UNL     1     -10.789   8.171  71.579  1.00  0.00    -0.290 A  
HETATM    9  N   UNL     1      -9.272   8.576  69.484  1.00  0.00    -0.150 NA 
HETATM   10  C   UNL     1      -9.382   7.832  73.568  1.00  0.00    -0.351 A  
HETATM   11  C   UNL     1      -8.240   8.105  72.826  1.00  0.00    -0.231 A  
HETATM   12  C   UNL     1     -10.628   7.897  72.957  1.00  0.00    -0.406 A  
BRANCH   9  13
HETATM   13  C   UNL     1     -10.051   8.336  68.268  1.00  0.00    -0.198 C  
BRANCH  13  14
HETATM   14  C   UNL     1     -10.487   9.606  67.582  1.00  0.00    -0.317 A  
HETATM   15  C   UNL     1     -11.517  11.795  67.624  1.00  0.00    -0.370 A  
HETATM   16  C   UNL     1     -10.704  12.222  66.560  1.00  0.00    -0.279 A  
HETATM   17  C   UNL     1      -9.955   9.916  66.328  1.00  0.00    -0.322 A  
HETATM   18  C   UNL     1     -11.363  10.515  68.172  1.00  0.00    -0.324 A  
HETATM   19  C   UNL     1     -10.045  11.217  65.835  1.00  0.00    -0.296 A  
BRANCH  16  20
HETATM   20  C   UNL     1     -10.416  13.663  66.298  1.00  0.00    -0.291 A  
HETATM   21  C   UNL     1     -11.268  14.391  65.432  1.00  0.00    -0.335 A  
HETATM   22  C   UNL     1      -9.260  14.342  66.787  1.00  0.00    -0.287 A  
HETATM   23  C   UNL     1     -11.015  15.719  65.074  1.00  0.00    -0.431 A  
HETATM   24  C   UNL     1      -9.062  15.704  66.462  1.00  0.00    -0.337 A  
HETATM   25  C   UNL     1      -9.923  16.384  65.606  1.00  0.00    -0.270 A  
BRANCH  22  26
HETATM   26  C   UNL     1      -8.182  13.735  67.579  1.00  0.00    -0.188 A  
HETATM   27  N   UNL     1      -6.961  13.443  67.164  1.00  0.00    -0.412 NA 
HETATM   28  H   UNL     1      -6.580  13.604  66.232  1.00  0.00     0.000 HD 
HETATM   29  N   UNL     1      -6.304  12.879  68.230  1.00  0.00    -0.076 NA 
HETATM   30  N   UNL     1      -7.100  12.796  69.285  1.00  0.00     0.030 NA 
HETATM   31  N   UNL     1      -8.277  13.283  68.869  1.00  0.00     0.104 NA 
ENDBRANCH  22  26
ENDBRANCH  16  20
ENDBRANCH  13  14
ENDBRANCH   9  13
BRANCH   8  32
HETATM   32  C   UNL     1     -12.157   8.060  71.021  1.00  0.00    -0.217 C  
HETATM   33  O   UNL     1     -12.896   7.115  71.243  1.00  0.00    -0.380 OA 
BRANCH  32  34
HETATM   34  O   UNL     1     -12.548   9.222  70.438  1.00  0.00     0.129 OA 
BRANCH  34  35
HETATM   35  C   UNL     1     -13.387  10.010  71.295  1.00  0.00    -0.330 C  
HETATM   36  C   UNL     1     -13.848   9.064  72.405  1.00  0.00    -0.540 C  
BRANCH  35  37
HETATM   37  O   UNL     1     -12.675  11.049  71.969  1.00  0.00    -0.305 OA 
BRANCH  37  38
HETATM   38  C   UNL     1     -13.256  12.269  71.960  1.00  0.00    -0.403 C  
HETATM   39  O   UNL     1     -14.268  12.593  72.557  1.00  0.00    -0.313 OA 
BRANCH  38  40
HETATM   40  O   UNL     1     -12.484  13.057  71.188  1.00  0.00    -0.361 OA 
BRANCH  40  41
HETATM   41  C   UNL     1     -12.944  14.267  70.544  1.00  0.00    -0.201 C  
HETATM   42  C   UNL     1     -11.015  16.533  70.528  1.00  0.00    -0.072 C  
HETATM   43  C   UNL     1     -12.947  15.364  71.611  1.00  0.00    -0.513 C  
HETATM   44  C   UNL     1     -11.552  15.944  71.824  1.00  0.00    -0.541 C  
HETATM   45  C   UNL     1     -10.980  15.511  69.396  1.00  0.00    -0.276 C  
HETATM   46  C   UNL     1     -12.282  14.720  69.238  1.00  0.00    -0.234 C  
ENDBRANCH  40  41
ENDBRANCH  38  40
ENDBRANCH  37  38
ENDBRANCH  35  37
ENDBRANCH  34  35
ENDBRANCH  32  34
ENDBRANCH   8  32
ENDBRANCH   3   4
ENDBRANCH   2   3
TORSDOF 13
ENDMDL
MODEL       97
REMARK 921   NORMALIZED FREE ENERGY PREDICTED BY IDOCK:   -6.33 KCAL/MOL
REMARK 922        TOTAL FREE ENERGY PREDICTED BY IDOCK:  -13.59 KCAL/MOL
REMARK 923 INTER-LIGAND FREE ENERGY PREDICTED BY IDOCK:  -10.94 KCAL/MOL
REMARK 924 INTRA-LIGAND FREE ENERGY PREDICTED BY IDOCK:   -2.65 KCAL/MOL
REMARK 927      BINDING AFFINITY PREDICTED BY RF-SCORE:    0.00 PKD
ROOT
HETATM    1  C   UNL     1     -14.377  14.293  72.066  1.00  0.00    -0.629 C  
HETATM    2  C   UNL     1     -12.928  13.986  71.730  1.00  0.00    -0.353 C  
ENDROOT
BRANCH   2   3
HETATM    3  O   UNL     1     -12.888  13.470  70.396  1.00  0.00    -0.152 OA 
BRANCH   3   4
HETATM    4  C   UNL     1     -11.778  13.756  69.720  1.00  0.00    -0.302 A  
HETATM    5  N   UNL     1     -11.320  14.970  69.519  1.00  0.00    -0.270 NA 
HETATM    6  C   UNL     1     -10.183  14.799  68.785  1.00  0.00    -0.239 A  
HETATM    7  C   UNL     1      -9.881  13.438  68.581  1.00  0.00    -0.112 A  
HETATM    8  C   UNL     1      -8.670  13.077  67.941  1.00  0.00    -0.189 A  
HETATM    9  N   UNL     1     -11.000  12.800  69.103  1.00  0.00    -0.182 NA 
HETATM   10  C   UNL     1      -8.204  15.464  67.575  1.00  0.00    -0.187 A  
HETATM   11  C   UNL     1      -9.364  15.811  68.257  1.00  0.00    -0.193 A  
HETATM   12  C   UNL     1      -7.855  14.125  67.453  1.00  0.00    -0.195 A  
BRANCH   9  13
HETATM   13  C   UNL     1     -11.472  11.427  68.922  1.00  0.00    -0.298 C  
BRANCH  13  14
HETATM   14  C   UNL     1     -11.165  10.534  70.097  1.00  0.00    -0.389 A  
HETATM   15  C   UNL     1     -11.873   9.110  71.921  1.00  0.00    -0.439 A  
HETATM   16  C   UNL     1     -10.687   8.361  71.824  1.00  0.00    -0.355 A  
HETATM   17  C   UNL     1      -9.873  10.026  70.244  1.00  0.00    -0.144 A  
HETATM   18  C   UNL     1     -12.137  10.149  71.020  1.00  0.00    -0.476 A  
HETATM   19  C   UNL     1      -9.643   8.936  71.083  1.00  0.00    -0.342 A  
BRANCH  16  20
HETATM   20  C   UNL     1     -10.577   6.963  72.336  1.00  0.00    -0.240 A  
HETATM   21  C   UNL     1     -11.701   6.105  72.253  1.00  0.00    -0.352 A  
HETATM   22  C   UNL     1      -9.426   6.454  73.011  1.00  0.00    -0.148 A  
HETATM   23  C   UNL     1     -11.699   4.812  72.786  1.00  0.00    -0.027 A  
HETATM   24  C   UNL     1      -9.428   5.122  73.483  1.00  0.00    -0.136 A  
HETATM   25  C   UNL     1     -10.554   4.311  73.383  1.00  0.00    -0.283 A  
BRANCH  22  26
HETATM   26  C   UNL     1      -8.213   7.219  73.329  1.00  0.00    -0.111 A  
HETATM   27  N   UNL     1      -7.026   7.096  72.760  1.00  0.00    -0.068 NA 
HETATM   28  H   UNL     1      -6.776   6.457  72.005  1.00  0.00     0.000 HD 
HETATM   29  N   UNL     1      -6.193   7.995  73.381  1.00  0.00    -0.076 NA 
HETATM   30  N   UNL     1      -6.834   8.650  74.336  1.00  0.00    -0.290 NA 
HETATM   31  N   UNL     1      -8.072   8.138  74.336  1.00  0.00    -0.252 NA 
ENDBRANCH  22  26
ENDBRANCH  16  20
ENDBRANCH  13  14
ENDBRANCH   9  13
BRANCH   8  32
HETATM   32  C   UNL     1      -8.262  11.691  67.611  1.00  0.00    -0.141 C  
HETATM   33  O   UNL     1      -7.250  11.169  68.050  1.00  0.00    -0.076 OA 
BRANCH  32  34
HETATM   34  O   UNL     1      -9.253  11.026  66.964  1.00  0.00    -0.152 OA 
BRANCH  34  35
HETATM   35  C   UNL     1      -8.762   9.906  66.212  1.00  0.00    -0.139 C  
HETATM   36  C   UNL     1      -8.884   8.699  67.143  1.00  0.00    -0.138 C  
BRANCH  35  37
HETATM   37  O   UNL     1      -9.584   9.589  65.088  1.00  0.00    -0.280 OA 
BRANCH  37  38
HETATM   38  C   UNL     1      -9.472  10.410  64.020  1.00  0.00    -0.299 C  
HETATM   39  O   UNL     1      -8.459  10.630  63.379  1.00  0.00    -0.163 OA 
BRANCH  38  40
HETATM   40  O   UNL     1     -10.700  10.913  63.791  1.00  0.00    -0.315 OA 
BRANCH  40  41
HETATM   41  C   UNL     1     -10.959  12.279  63.393  1.00  0.00    -0.405 C  
HETATM   42  C   UNL     1     -12.578  13.894  65.297  1.00  0.00    -0.508 C  
HETATM   43  C   UNL     1     -12.478  12.424  63.272  1.00  0.00    -0.449 C  
HETATM   44  C   UNL     1     -13.132  12.641  64.632  1.00  0.00    -0.036 C  
HETATM   45  C   UNL     1     -11.062  13.845  65.457  1.00  0.00    -0.304 C  
HETATM   46  C   UNL     1     -10.321  13.426  64.184  1.00  0.00    -0.104 C  
ENDBRANCH  40  41
ENDBRANCH  38  40
ENDBRANCH  37  38
ENDBRANCH  35  37
ENDBRANCH  34  35
ENDBRANCH  32  34
ENDBRANCH   8  32
ENDBRANCH   3   4
ENDBRANCH   2   3
TORSDOF 13
ENDMDL
MODEL       98
REMARK 921   NORMALIZED FREE ENERGY PREDICTED BY IDOCK:   -6.33 KCAL/MOL
REMARK 922        TOTAL FREE ENERGY PREDICTED BY IDOCK:  -13.59 KCAL/MOL
REMARK 923 INTER-LIGAND FREE ENERGY PREDICTED BY IDOCK:  -10.68 KCAL/MOL
REMARK 924 INTRA-LIGAND FREE ENERGY PREDICTED BY IDOCK:   -2.91 KCAL/MOL
REMARK 927      BINDING AFFINITY PREDICTED BY RF-SCORE:    0.00 PKD
ROOT
HETATM    1  C   UNL     1     -12.232  13.508  64.519  1.00  0.00    -0.445 C  
HETATM    2  C   UNL     1     -12.265  13.042  65.964  1.00  0.00    -0.399 C  
ENDROOT
BRANCH   2   3
HETATM    3  O   UNL     1     -11.392  11.914  66.080  1.00  0.00    -0.332 OA 
BRANCH   3   4
HETATM    4  C   UNL     1     -11.300  11.403  67.305  1.00  0.00    -0.275 A  
HETATM    5  N   UNL     1     -12.304  11.295  68.144  1.00  0.00    -0.251 NA 
HETATM    6  C   UNL     1     -11.765  10.732  69.265  1.00  0.00    -0.303 A  
HETATM    7  C   UNL     1     -10.403  10.415  69.098  1.00  0.00    -0.222 A  
HETATM    8  C   UNL     1      -9.716   9.715  70.121  1.00  0.00    -0.301 A  
HETATM    9  N   UNL     1     -10.114  10.971  67.858  1.00  0.00    -0.174 NA 
HETATM   10  C   UNL     1     -11.743   9.845  71.508  1.00  0.00    -0.414 A  
HETATM   11  C   UNL     1     -12.427  10.477  70.478  1.00  0.00    -0.433 A  
HETATM   12  C   UNL     1     -10.426   9.447  71.314  1.00  0.00    -0.385 A  
BRANCH   9  13
HETATM   13  C   UNL     1      -8.823  11.279  67.242  1.00  0.00    -0.150 C  
BRANCH  13  14
HETATM   14  C   UNL     1      -8.493  12.750  67.258  1.00  0.00    -0.194 A  
HETATM   15  C   UNL     1      -8.759  14.994  66.394  1.00  0.00    -0.169 A  
HETATM   16  C   UNL     1      -8.465  15.538  67.656  1.00  0.00    -0.177 A  
HETATM   17  C   UNL     1      -7.867  13.292  68.382  1.00  0.00    -0.137 A  
HETATM   18  C   UNL     1      -8.835  13.607  66.213  1.00  0.00     0.232 A  
HETATM   19  C   UNL     1      -7.873  14.671  68.588  1.00  0.00    -0.138 A  
BRANCH  16  20
HETATM   20  C   UNL     1      -8.893  16.911  68.058  1.00  0.00    -0.216 A  
HETATM   21  C   UNL     1      -8.063  18.014  67.739  1.00  0.00    -0.237 A  
HETATM   22  C   UNL     1     -10.051  17.181  68.848  1.00  0.00    -0.322 A  
HETATM   23  C   UNL     1      -8.357  19.316  68.155  1.00  0.00    -0.358 A  
HETATM   24  C   UNL     1     -10.358  18.514  69.200  1.00  0.00     0.057 A  
HETATM   25  C   UNL     1      -9.517  19.571  68.868  1.00  0.00    -0.426 A  
BRANCH  22  26
HETATM   26  C   UNL     1     -10.963  16.171  69.403  1.00  0.00    -0.333 A  
HETATM   27  N   UNL     1     -11.216  15.948  70.681  1.00  0.00    -0.363 NA 
HETATM   28  H   UNL     1     -10.823  16.452  71.476  1.00  0.00     0.000 HD 
HETATM   29  N   UNL     1     -12.111  14.908  70.732  1.00  0.00    -0.293 NA 
HETATM   30  N   UNL     1     -12.395  14.469  69.516  1.00  0.00    -0.258 NA 
HETATM   31  N   UNL     1     -11.650  15.220  68.694  1.00  0.00    -0.341 NA 
ENDBRANCH  22  26
ENDBRANCH  16  20
ENDBRANCH  13  14
ENDBRANCH   9  13
BRANCH   8  32
HETATM   32  C   UNL     1      -8.273   9.375  70.099  1.00  0.00    -0.168 C  
HETATM   33  O   UNL     1      -7.427  10.015  70.699  1.00  0.00    -0.302 OA 
BRANCH  32  34
HETATM   34  O   UNL     1      -8.061   8.161  69.529  1.00  0.00    -0.114 OA 
BRANCH  34  35
HETATM   35  C   UNL     1      -7.253   8.244  68.346  1.00  0.00    -0.092 C  
HETATM   36  C   UNL     1      -6.005   7.409  68.641  1.00  0.00    -0.027 C  
BRANCH  35  37
HETATM   37  O   UNL     1      -7.857   7.618  67.214  1.00  0.00    -0.113 OA 
BRANCH  37  38
HETATM   38  C   UNL     1      -9.135   7.210  67.374  1.00  0.00    -0.121 C  
HETATM   39  O   UNL     1     -10.121   7.695  66.847  1.00  0.00    -0.232 OA 
BRANCH  38  40
HETATM   40  O   UNL     1      -9.101   6.151  68.204  1.00  0.00    -0.114 OA 
BRANCH  40  41
HETATM   41  C   UNL     1     -10.272   5.445  68.674  1.00  0.00    -0.176 C  
HETATM   42  C   UNL     1     -10.337   4.851  71.590  1.00  0.00    -0.241 C  
HETATM   43  C   UNL     1      -9.784   4.118  69.260  1.00  0.00    -0.219 C  
HETATM   44  C   UNL     1      -9.254   4.291  70.679  1.00  0.00    -0.193 C  
HETATM   45  C   UNL     1     -10.893   6.178  71.083  1.00  0.00    -0.328 C  
HETATM   46  C   UNL     1     -11.262   6.165  69.596  1.00  0.00    -0.488 C  
ENDBRANCH  40  41
ENDBRANCH  38  40
ENDBRANCH  37  38
ENDBRANCH  35  37
ENDBRANCH  34  35
ENDBRANCH  32  34
ENDBRANCH   8  32
ENDBRANCH   3   4
ENDBRANCH   2   3
TORSDOF 13
ENDMDL
MODEL       99
REMARK 921   NORMALIZED FREE ENERGY PREDICTED BY IDOCK:   -6.32 KCAL/MOL
REMARK 922        TOTAL FREE ENERGY PREDICTED BY IDOCK:  -13.58 KCAL/MOL
REMARK 923 INTER-LIGAND FREE ENERGY PREDICTED BY IDOCK:   -9.71 KCAL/MOL
REMARK 924 INTRA-LIGAND FREE ENERGY PREDICTED BY IDOCK:   -3.87 KCAL/MOL
REMARK 927      BINDING AFFINITY PREDICTED BY RF-SCORE:    0.00 PKD
ROOT
HETATM    1  C   UNL     1      -5.432  12.575  70.545  1.00  0.00    -0.162 C  
HETATM    2  C   UNL     1      -5.315  11.154  71.070  1.00  0.00    -0.098 C  
ENDROOT
BRANCH   2   3
HETATM    3  O   UNL     1      -6.600  10.536  70.949  1.00  0.00    -0.347 OA 
BRANCH   3   4
HETATM    4  C   UNL     1      -6.593   9.209  71.046  1.00  0.00    -0.086 A  
HETATM    5  N   UNL     1      -6.432   8.545  72.167  1.00  0.00    -0.074 NA 
HETATM    6  C   UNL     1      -6.485   7.230  71.806  1.00  0.00    -0.043 A  
HETATM    7  C   UNL     1      -6.755   7.065  70.433  1.00  0.00    -0.053 A  
HETATM    8  C   UNL     1      -6.963   5.765  69.911  1.00  0.00    -0.066 A  
HETATM    9  N   UNL     1      -6.703   8.370  69.958  1.00  0.00    -0.042 NA 
HETATM   10  C   UNL     1      -6.436   4.840  72.128  1.00  0.00    -0.034 A  
HETATM   11  C   UNL     1      -6.293   6.120  72.646  1.00  0.00    -0.058 A  
HETATM   12  C   UNL     1      -6.794   4.675  70.796  1.00  0.00    -0.036 A  
BRANCH   9  13
HETATM   13  C   UNL     1      -6.576   8.869  68.588  1.00  0.00    -0.054 C  
BRANCH  13  14
HETATM   14  C   UNL     1      -7.666   9.838  68.205  1.00  0.00    -0.085 A  
HETATM   15  C   UNL     1      -8.424  11.842  67.082  1.00  0.00    -0.173 A  
HETATM   16  C   UNL     1      -9.700  11.282  66.899  1.00  0.00    -0.215 A  
HETATM   17  C   UNL     1      -8.999   9.445  68.335  1.00  0.00    -0.128 A  
HETATM   18  C   UNL     1      -7.396  11.098  67.675  1.00  0.00    -0.095 A  
HETATM   19  C   UNL     1     -10.002  10.148  67.669  1.00  0.00    -0.216 A  
BRANCH  16  20
HETATM   20  C   UNL     1     -10.639  11.752  65.837  1.00  0.00    -0.314 A  
HETATM   21  C   UNL     1     -10.553  11.188  64.541  1.00  0.00    -0.397 A  
HETATM   22  C   UNL     1     -11.563  12.826  66.014  1.00  0.00    -0.432 A  
HETATM   23  C   UNL     1     -11.341  11.635  63.475  1.00  0.00    -0.447 A  
HETATM   24  C   UNL     1     -12.393  13.215  64.937  1.00  0.00    -0.494 A  
HETATM   25  C   UNL     1     -12.277  12.635  63.678  1.00  0.00    -0.624 A  
BRANCH  22  26
HETATM   26  C   UNL     1     -11.709  13.638  67.229  1.00  0.00    -0.380 A  
HETATM   27  N   UNL     1     -11.430  14.923  67.363  1.00  0.00    -0.348 NA 
HETATM   28  H   UNL     1     -11.081  15.548  66.637  1.00  0.00     0.000 HD 
HETATM   29  N   UNL     1     -11.703  15.255  68.667  1.00  0.00    -0.354 NA 
HETATM   30  N   UNL     1     -12.120  14.198  69.346  1.00  0.00    -0.330 NA 
HETATM   31  N   UNL     1     -12.080  13.186  68.469  1.00  0.00    -0.266 NA 
ENDBRANCH  22  26
ENDBRANCH  16  20
ENDBRANCH  13  14
ENDBRANCH   9  13
BRANCH   8  32
HETATM   32  C   UNL     1      -7.193   5.449  68.481  1.00  0.00    -0.074 C  
HETATM   33  O   UNL     1      -6.542   5.940  67.575  1.00  0.00    -0.052 OA 
BRANCH  32  34
HETATM   34  O   UNL     1      -8.042   4.399  68.339  1.00  0.00    -0.081 OA 
BRANCH  34  35
HETATM   35  C   UNL     1      -9.088   4.663  67.393  1.00  0.00    -0.123 C  
HETATM   36  C   UNL     1      -9.244   3.376  66.581  1.00  0.00    -0.186 C  
BRANCH  35  37
HETATM   37  O   UNL     1     -10.359   4.866  68.011  1.00  0.00    -0.085 OA 
BRANCH  37  38
HETATM   38  C   UNL     1     -10.787   6.146  68.083  1.00  0.00    -0.306 C  
HETATM   39  O   UNL     1     -11.403   6.752  67.224  1.00  0.00    -0.300 OA 
BRANCH  38  40
HETATM   40  O   UNL     1     -10.424   6.606  69.295  1.00  0.00    -0.188 OA 
BRANCH  40  41
HETATM   41  C   UNL     1     -11.354   6.971  70.340  1.00  0.00    -0.310 C  
HETATM   42  C   UNL     1     -10.136   7.672  72.963  1.00  0.00    -0.362 C  
HETATM   43  C   UNL     1     -11.175   5.952  71.468  1.00  0.00    -0.290 C  
HETATM   44  C   UNL     1      -9.974   6.290  72.345  1.00  0.00    -0.187 C  
HETATM   45  C   UNL     1     -10.328   8.760  71.912  1.00  0.00    -0.414 C  
HETATM   46  C   UNL     1     -11.378   8.415  70.852  1.00  0.00    -0.298 C  
ENDBRANCH  40  41
ENDBRANCH  38  40
ENDBRANCH  37  38
ENDBRANCH  35  37
ENDBRANCH  34  35
ENDBRANCH  32  34
ENDBRANCH   8  32
ENDBRANCH   3   4
ENDBRANCH   2   3
TORSDOF 13
ENDMDL
MODEL      100
REMARK 921   NORMALIZED FREE ENERGY PREDICTED BY IDOCK:   -6.31 KCAL/MOL
REMARK 922        TOTAL FREE ENERGY PREDICTED BY IDOCK:  -13.55 KCAL/MOL
REMARK 923 INTER-LIGAND FREE ENERGY PREDICTED BY IDOCK:  -10.96 KCAL/MOL
REMARK 924 INTRA-LIGAND FREE ENERGY PREDICTED BY IDOCK:   -2.60 KCAL/MOL
REMARK 927      BINDING AFFINITY PREDICTED BY RF-SCORE:    0.00 PKD
ROOT
HETATM    1  C   UNL     1      -5.432   5.394  63.986  1.00  0.00    -0.013 C  
HETATM    2  C   UNL     1      -5.495   6.705  64.749  1.00  0.00    -0.026 C  
ENDROOT
BRANCH   2   3
HETATM    3  O   UNL     1      -6.503   6.576  65.757  1.00  0.00    -0.040 OA 
BRANCH   3   4
HETATM    4  C   UNL     1      -6.853   7.717  66.345  1.00  0.00    -0.062 A  
HETATM    5  N   UNL     1      -6.018   8.533  66.944  1.00  0.00    -0.052 NA 
HETATM    6  C   UNL     1      -6.795   9.556  67.403  1.00  0.00    -0.083 A  
HETATM    7  C   UNL     1      -8.144   9.411  67.023  1.00  0.00    -0.105 A  
HETATM    8  C   UNL     1      -9.069  10.445  67.313  1.00  0.00    -0.146 A  
HETATM    9  N   UNL     1      -8.158   8.151  66.439  1.00  0.00    -0.103 NA 
HETATM   10  C   UNL     1      -7.287  11.639  68.518  1.00  0.00    -0.102 A  
HETATM   11  C   UNL     1      -6.373  10.650  68.177  1.00  0.00    -0.058 A  
HETATM   12  C   UNL     1      -8.597  11.546  68.065  1.00  0.00    -0.150 A  
BRANCH   9  13
HETATM   13  C   UNL     1      -9.284   7.269  66.129  1.00  0.00    -0.089 C  
BRANCH  13  14
HETATM   14  C   UNL     1      -9.752   6.465  67.315  1.00  0.00    -0.155 A  
HETATM   15  C   UNL     1      -9.339   4.899  69.113  1.00  0.00    -0.184 A  
HETATM   16  C   UNL     1     -10.351   5.489  69.889  1.00  0.00    -0.368 A  
HETATM   17  C   UNL     1     -10.960   6.801  67.929  1.00  0.00    -0.309 A  
HETATM   18  C   UNL     1      -9.000   5.425  67.860  1.00  0.00    -0.109 A  
HETATM   19  C   UNL     1     -11.245   6.335  69.212  1.00  0.00    -0.458 A  
BRANCH  16  20
HETATM   20  C   UNL     1     -10.398   5.367  71.376  1.00  0.00    -0.294 A  
HETATM   21  C   UNL     1     -10.221   4.093  71.970  1.00  0.00    -0.200 A  
HETATM   22  C   UNL     1     -10.719   6.448  72.251  1.00  0.00    -0.253 A  
HETATM   23  C   UNL     1     -10.335   3.887  73.348  1.00  0.00    -0.235 A  
HETATM   24  C   UNL     1     -10.763   6.225  73.646  1.00  0.00    -0.229 A  
HETATM   25  C   UNL     1     -10.584   4.958  74.191  1.00  0.00    -0.345 A  
BRANCH  22  26
HETATM   26  C   UNL     1     -11.076   7.810  71.833  1.00  0.00    -0.257 A  
HETATM   27  N   UNL     1     -10.249   8.821  71.630  1.00  0.00    -0.295 NA 
HETATM   28  H   UNL     1      -9.233   8.804  71.724  1.00  0.00     0.000 HD 
HETATM   29  N   UNL     1     -11.020   9.899  71.269  1.00  0.00    -0.260 NA 
HETATM   30  N   UNL     1     -12.305   9.581  71.269  1.00  0.00    -0.326 NA 
HETATM   31  N   UNL     1     -12.345   8.301  71.663  1.00  0.00    -0.303 NA 
ENDBRANCH  22  26
ENDBRANCH  16  20
ENDBRANCH  13  14
ENDBRANCH   9  13
BRANCH   8  32
HETATM   32  C   UNL     1     -10.521  10.393  67.024  1.00  0.00    -0.251 C  
HETATM   33  O   UNL     1     -11.378  10.452  67.890  1.00  0.00    -0.324 OA 
BRANCH  32  34
HETATM   34  O   UNL     1     -10.763  10.502  65.692  1.00  0.00    -0.125 OA 
BRANCH  34  35
HETATM   35  C   UNL     1     -10.886  11.867  65.266  1.00  0.00    -0.297 C  
HETATM   36  C   UNL     1     -10.604  11.857  63.763  1.00  0.00    -0.475 C  
BRANCH  35  37
HETATM   37  O   UNL     1     -12.217  12.370  65.388  1.00  0.00    -0.533 OA 
BRANCH  37  38
HETATM   38  C   UNL     1     -12.334  13.707  65.541  1.00  0.00    -0.482 C  
HETATM   39  O   UNL     1     -12.300  14.542  64.654  1.00  0.00    -0.474 OA 
BRANCH  38  40
HETATM   40  O   UNL     1     -12.522  13.930  66.855  1.00  0.00    -0.357 OA 
BRANCH  40  41
HETATM   41  C   UNL     1     -11.479  13.844  67.853  1.00  0.00    -0.318 C  
HETATM   42  C   UNL     1     -11.674  15.790  70.096  1.00  0.00    -0.367 C  
HETATM   43  C   UNL     1     -10.749  15.189  67.848  1.00  0.00    -0.268 C  
HETATM   44  C   UNL     1     -11.504  16.242  68.652  1.00  0.00    -0.288 C  
HETATM   45  C   UNL     1     -12.391  14.448  70.204  1.00  0.00    -0.406 C  
HETATM   46  C   UNL     1     -11.831  13.372  69.268  1.00  0.00    -0.385 C  
ENDBRANCH  40  41
ENDBRANCH  38  40
ENDBRANCH  37  38
ENDBRANCH  35  37
ENDBRANCH  34  35
ENDBRANCH  32  34
ENDBRANCH   8  32
ENDBRANCH   3   4
ENDBRANCH   2   3
TORSDOF 13
ENDMDL
MODEL      101
REMARK 921   NORMALIZED FREE ENERGY PREDICTED BY IDOCK:   -6.31 KCAL/MOL
REMARK 922        TOTAL FREE ENERGY PREDICTED BY IDOCK:  -13.55 KCAL/MOL
REMARK 923 INTER-LIGAND FREE ENERGY PREDICTED BY IDOCK:  -10.35 KCAL/MOL
REMARK 924 INTRA-LIGAND FREE ENERGY PREDICTED BY IDOCK:   -3.20 KCAL/MOL
REMARK 927      BINDING AFFINITY PREDICTED BY RF-SCORE:    0.00 PKD
ROOT
HETATM    1  C   UNL     1     -13.436  12.244  71.881  1.00  0.00    -0.339 C  
HETATM    2  C   UNL     1     -13.233  10.742  71.976  1.00  0.00    -0.361 C  
ENDROOT
BRANCH   2   3
HETATM    3  O   UNL     1     -11.933  10.443  71.456  1.00  0.00    -0.333 OA 
BRANCH   3   4
HETATM    4  C   UNL     1     -11.541   9.183  71.625  1.00  0.00    -0.379 A  
HETATM    5  N   UNL     1     -12.220   8.274  72.285  1.00  0.00    -0.362 NA 
HETATM    6  C   UNL     1     -11.456   7.145  72.214  1.00  0.00    -0.271 A  
HETATM    7  C   UNL     1     -10.301   7.333  71.429  1.00  0.00    -0.199 A  
HETATM    8  C   UNL     1      -9.457   6.230  71.149  1.00  0.00    -0.183 A  
HETATM    9  N   UNL     1     -10.337   8.696  71.163  1.00  0.00    -0.214 NA 
HETATM   10  C   UNL     1     -10.865   4.840  72.610  1.00  0.00    -0.244 A  
HETATM   11  C   UNL     1     -11.721   5.911  72.830  1.00  0.00    -0.183 A  
HETATM   12  C   UNL     1      -9.776   4.996  71.761  1.00  0.00    -0.218 A  
BRANCH   9  13
HETATM   13  C   UNL     1      -9.283   9.589  70.679  1.00  0.00    -0.180 C  
BRANCH  13  14
HETATM   14  C   UNL     1      -9.415   9.926  69.216  1.00  0.00    -0.218 A  
HETATM   15  C   UNL     1     -10.588   9.785  67.104  1.00  0.00    -0.298 A  
HETATM   16  C   UNL     1     -10.094  11.044  66.721  1.00  0.00    -0.260 A  
HETATM   17  C   UNL     1      -8.664  10.979  68.691  1.00  0.00    -0.161 A  
HETATM   18  C   UNL     1     -10.301   9.260  68.370  1.00  0.00    -0.244 A  
HETATM   19  C   UNL     1      -9.015  11.545  67.467  1.00  0.00    -0.159 A  
BRANCH  16  20
HETATM   20  C   UNL     1     -10.764  11.890  65.689  1.00  0.00    -0.325 A  
HETATM   21  C   UNL     1     -11.742  12.830  66.094  1.00  0.00    -0.458 A  
HETATM   22  C   UNL     1     -10.556  11.739  64.284  1.00  0.00    -0.386 A  
HETATM   23  C   UNL     1     -12.470  13.596  65.178  1.00  0.00    -0.488 A  
HETATM   24  C   UNL     1     -11.258  12.572  63.383  1.00  0.00    -0.460 A  
HETATM   25  C   UNL     1     -12.213  13.483  63.822  1.00  0.00    -0.449 A  
BRANCH  22  26
HETATM   26  C   UNL     1      -9.696  10.731  63.649  1.00  0.00    -0.327 A  
HETATM   27  N   UNL     1     -10.000   9.969  62.612  1.00  0.00    -0.588 NA 
HETATM   28  H   UNL     1     -10.876   9.975  62.089  1.00  0.00     0.000 HD 
HETATM   29  N   UNL     1      -8.909   9.170  62.374  1.00  0.00    -0.230 NA 
HETATM   30  N   UNL     1      -7.951   9.404  63.256  1.00  0.00    -0.133 NA 
HETATM   31  N   UNL     1      -8.454  10.338  64.075  1.00  0.00    -0.171 NA 
ENDBRANCH  22  26
ENDBRANCH  16  20
ENDBRANCH  13  14
ENDBRANCH   9  13
BRANCH   8  32
HETATM   32  C   UNL     1      -8.185   6.303  70.391  1.00  0.00    -0.121 C  
HETATM   33  O   UNL     1      -8.065   6.915  69.344  1.00  0.00    -0.122 OA 
BRANCH  32  34
HETATM   34  O   UNL     1      -7.150   5.807  71.116  1.00  0.00    -0.064 OA 
BRANCH  34  35
HETATM   35  C   UNL     1      -6.363   4.863  70.375  1.00  0.00    -0.026 C  
HETATM   36  C   UNL     1      -5.161   4.540  71.264  1.00  0.00    -0.003 C  
BRANCH  35  37
HETATM   37  O   UNL     1      -7.027   3.614  70.184  1.00  0.00    -0.037 OA 
BRANCH  37  38
HETATM   38  C   UNL     1      -6.959   3.090  68.939  1.00  0.00    -0.048 C  
HETATM   39  O   UNL     1      -6.705   1.934  68.654  1.00  0.00    -0.029 OA 
BRANCH  38  40
HETATM   40  O   UNL     1      -7.254   4.089  68.086  1.00  0.00    -0.058 OA 
BRANCH  40  41
HETATM   41  C   UNL     1      -8.094   3.941  66.918  1.00  0.00    -0.096 C  
HETATM   42  C   UNL     1     -10.455   5.748  66.789  1.00  0.00    -0.350 C  
HETATM   43  C   UNL     1      -9.480   3.528  67.419  1.00  0.00    -0.234 C  
HETATM   44  C   UNL     1     -10.281   4.730  67.908  1.00  0.00    -0.067 C  
HETATM   45  C   UNL     1      -9.120   6.217  66.218  1.00  0.00    -0.165 C  
HETATM   46  C   UNL     1      -8.154   5.074  65.888  1.00  0.00    -0.108 C  
ENDBRANCH  40  41
ENDBRANCH  38  40
ENDBRANCH  37  38
ENDBRANCH  35  37
ENDBRANCH  34  35
ENDBRANCH  32  34
ENDBRANCH   8  32
ENDBRANCH   3   4
ENDBRANCH   2   3
TORSDOF 13
ENDMDL
MODEL      102
REMARK 921   NORMALIZED FREE ENERGY PREDICTED BY IDOCK:   -6.29 KCAL/MOL
REMARK 922        TOTAL FREE ENERGY PREDICTED BY IDOCK:  -13.52 KCAL/MOL
REMARK 923 INTER-LIGAND FREE ENERGY PREDICTED BY IDOCK:  -11.38 KCAL/MOL
REMARK 924 INTRA-LIGAND FREE ENERGY PREDICTED BY IDOCK:   -2.14 KCAL/MOL
REMARK 927      BINDING AFFINITY PREDICTED BY RF-SCORE:    0.00 PKD
ROOT
HETATM    1  C   UNL     1     -10.145  11.951  63.518  1.00  0.00    -0.464 C  
HETATM    2  C   UNL     1     -10.369  10.770  64.447  1.00  0.00    -0.335 C  
ENDROOT
BRANCH   2   3
HETATM    3  O   UNL     1      -9.207  10.636  65.272  1.00  0.00    -0.178 OA 
BRANCH   3   4
HETATM    4  C   UNL     1      -9.037   9.429  65.804  1.00  0.00    -0.200 A  
HETATM    5  N   UNL     1      -9.389   8.304  65.226  1.00  0.00     0.244 NA 
HETATM    6  C   UNL     1      -9.040   7.329  66.115  1.00  0.00    -0.122 A  
HETATM    7  C   UNL     1      -8.390   7.851  67.250  1.00  0.00    -0.122 A  
HETATM    8  C   UNL     1      -7.853   6.968  68.219  1.00  0.00    -0.118 A  
HETATM    9  N   UNL     1      -8.511   9.223  67.062  1.00  0.00    -0.123 NA 
HETATM   10  C   UNL     1      -8.807   5.082  66.961  1.00  0.00    -0.106 A  
HETATM   11  C   UNL     1      -9.278   5.950  65.985  1.00  0.00    -0.143 A  
HETATM   12  C   UNL     1      -8.083   5.585  68.036  1.00  0.00    -0.096 A  
BRANCH   9  13
HETATM   13  C   UNL     1      -8.341  10.322  68.012  1.00  0.00    -0.114 C  
BRANCH  13  14
HETATM   14  C   UNL     1      -9.648  10.862  68.537  1.00  0.00    -0.187 A  
HETATM   15  C   UNL     1     -11.341  11.016  70.258  1.00  0.00    -0.291 A  
HETATM   16  C   UNL     1     -11.672  12.318  69.846  1.00  0.00    -0.346 A  
HETATM   17  C   UNL     1     -10.214  11.981  67.924  1.00  0.00    -0.203 A  
HETATM   18  C   UNL     1     -10.291  10.318  69.647  1.00  0.00    -0.281 A  
HETATM   19  C   UNL     1     -11.201  12.713  68.583  1.00  0.00    -0.323 A  
BRANCH  16  20
HETATM   20  C   UNL     1     -12.348  13.298  70.746  1.00  0.00    -0.425 A  
HETATM   21  C   UNL     1     -13.379  12.848  71.608  1.00  0.00    -0.358 A  
HETATM   22  C   UNL     1     -12.094  14.703  70.723  1.00  0.00    -0.387 A  
HETATM   23  C   UNL     1     -14.112  13.721  72.417  1.00  0.00    -0.593 A  
HETATM   24  C   UNL     1     -12.806  15.554  71.598  1.00  0.00    -0.518 A  
HETATM   25  C   UNL     1     -13.812  15.073  72.430  1.00  0.00    -0.596 A  
BRANCH  22  26
HETATM   26  C   UNL     1     -11.174  15.391  69.807  1.00  0.00    -0.288 A  
HETATM   27  N   UNL     1      -9.855  15.430  69.890  1.00  0.00    -0.429 NA 
HETATM   28  H   UNL     1      -9.276  14.978  70.597  1.00  0.00     0.000 HD 
HETATM   29  N   UNL     1      -9.414  16.196  68.839  1.00  0.00    -0.232 NA 
HETATM   30  N   UNL     1     -10.433  16.650  68.126  1.00  0.00    -0.305 NA 
HETATM   31  N   UNL     1     -11.525  16.191  68.751  1.00  0.00    -0.364 NA 
ENDBRANCH  22  26
ENDBRANCH  16  20
ENDBRANCH  13  14
ENDBRANCH   9  13
BRANCH   8  32
HETATM   32  C   UNL     1      -7.201   7.386  69.483  1.00  0.00    -0.082 C  
HETATM   33  O   UNL     1      -6.007   7.259  69.693  1.00  0.00    -0.023 OA 
BRANCH  32  34
HETATM   34  O   UNL     1      -8.046   8.115  70.255  1.00  0.00    -0.104 OA 
BRANCH  34  35
HETATM   35  C   UNL     1      -7.538   8.321  71.582  1.00  0.00    -0.096 C  
HETATM   36  C   UNL     1      -6.400   9.333  71.435  1.00  0.00    -0.053 C  
BRANCH  35  37
HETATM   37  O   UNL     1      -8.482   8.951  72.448  1.00  0.00    -0.396 OA 
BRANCH  37  38
HETATM   38  C   UNL     1      -9.173   8.130  73.270  1.00  0.00    -0.246 C  
HETATM   39  O   UNL     1      -8.723   7.509  74.217  1.00  0.00    -0.219 OA 
BRANCH  38  40
HETATM   40  O   UNL     1     -10.453   8.156  72.854  1.00  0.00    -0.340 OA 
BRANCH  40  41
HETATM   41  C   UNL     1     -11.271   6.980  72.662  1.00  0.00    -0.272 C  
HETATM   42  C   UNL     1     -10.831   5.504  70.115  1.00  0.00    -0.299 C  
HETATM   43  C   UNL     1     -12.112   7.225  71.407  1.00  0.00    -0.370 C  
HETATM   44  C   UNL     1     -11.318   6.946  70.135  1.00  0.00    -0.364 C  
HETATM   45  C   UNL     1      -9.984   5.160  71.336  1.00  0.00    -0.252 C  
HETATM   46  C   UNL     1     -10.610   5.597  72.664  1.00  0.00    -0.266 C  
ENDBRANCH  40  41
ENDBRANCH  38  40
ENDBRANCH  37  38
ENDBRANCH  35  37
ENDBRANCH  34  35
ENDBRANCH  32  34
ENDBRANCH   8  32
ENDBRANCH   3   4
ENDBRANCH   2   3
TORSDOF 13
ENDMDL
MODEL      103
REMARK 921   NORMALIZED FREE ENERGY PREDICTED BY IDOCK:   -6.26 KCAL/MOL
REMARK 922        TOTAL FREE ENERGY PREDICTED BY IDOCK:  -13.47 KCAL/MOL
REMARK 923 INTER-LIGAND FREE ENERGY PREDICTED BY IDOCK:  -11.44 KCAL/MOL
REMARK 924 INTRA-LIGAND FREE ENERGY PREDICTED BY IDOCK:   -2.02 KCAL/MOL
REMARK 927      BINDING AFFINITY PREDICTED BY RF-SCORE:    0.00 PKD
ROOT
HETATM    1  C   UNL     1     -12.048  11.994  64.185  1.00  0.00    -0.458 C  
HETATM    2  C   UNL     1     -12.343  12.753  65.466  1.00  0.00    -0.434 C  
ENDROOT
BRANCH   2   3
HETATM    3  O   UNL     1     -11.136  12.804  66.233  1.00  0.00    -0.274 OA 
BRANCH   3   4
HETATM    4  C   UNL     1     -11.130  12.032  67.317  1.00  0.00    -0.285 A  
HETATM    5  N   UNL     1     -12.203  11.682  67.987  1.00  0.00    -0.460 NA 
HETATM    6  C   UNL     1     -11.739  10.908  69.011  1.00  0.00    -0.320 A  
HETATM    7  C   UNL     1     -10.346  10.711  68.940  1.00  0.00    -0.207 A  
HETATM    8  C   UNL     1      -9.715   9.833  69.856  1.00  0.00    -0.273 A  
HETATM    9  N   UNL     1      -9.976  11.549  67.896  1.00  0.00    -0.179 NA 
HETATM   10  C   UNL     1     -11.877   9.534  70.989  1.00  0.00    -0.408 A  
HETATM   11  C   UNL     1     -12.499  10.347  70.051  1.00  0.00    -0.186 A  
HETATM   12  C   UNL     1     -10.520   9.262  70.869  1.00  0.00    -0.372 A  
BRANCH   9  13
HETATM   13  C   UNL     1      -8.657  12.059  67.519  1.00  0.00    -0.167 C  
BRANCH  13  14
HETATM   14  C   UNL     1      -8.463  13.515  67.859  1.00  0.00    -0.179 A  
HETATM   15  C   UNL     1      -7.521  15.695  67.395  1.00  0.00    -0.235 A  
HETATM   16  C   UNL     1      -8.608  16.323  68.027  1.00  0.00    -0.176 A  
HETATM   17  C   UNL     1      -9.329  14.119  68.773  1.00  0.00    -0.092 A  
HETATM   18  C   UNL     1      -7.482  14.301  67.257  1.00  0.00    -0.082 A  
HETATM   19  C   UNL     1      -9.414  15.509  68.839  1.00  0.00    -0.223 A  
BRANCH  16  20
HETATM   20  C   UNL     1      -8.996  17.735  67.741  1.00  0.00    -0.249 A  
HETATM   21  C   UNL     1      -8.645  18.749  68.666  1.00  0.00    -0.358 A  
HETATM   22  C   UNL     1      -9.803  18.127  66.630  1.00  0.00    -0.350 A  
HETATM   23  C   UNL     1      -9.046  20.080  68.507  1.00  0.00    -0.132 A  
HETATM   24  C   UNL     1     -10.139  19.489  66.459  1.00  0.00    -0.539 A  
HETATM   25  C   UNL     1      -9.776  20.455  67.391  1.00  0.00    -0.597 A  
BRANCH  22  26
HETATM   26  C   UNL     1     -10.390  17.217  65.636  1.00  0.00    -0.171 A  
HETATM   27  N   UNL     1     -10.075  15.949  65.438  1.00  0.00    -0.451 NA 
HETATM   28  H   UNL     1      -9.383  15.406  65.953  1.00  0.00     0.000 HD 
HETATM   29  N   UNL     1     -10.861  15.502  64.404  1.00  0.00    -0.210 NA 
HETATM   30  N   UNL     1     -11.635  16.473  63.945  1.00  0.00    -1.071 NA 
HETATM   31  N   UNL     1     -11.311  17.549  64.677  1.00  0.00    -0.550 NA 
ENDBRANCH  22  26
ENDBRANCH  16  20
ENDBRANCH  13  14
ENDBRANCH   9  13
BRANCH   8  32
HETATM   32  C   UNL     1      -8.255   9.585  69.929  1.00  0.00    -0.161 C  
HETATM   33  O   UNL     1      -7.448  10.439  70.256  1.00  0.00    -0.206 OA 
BRANCH  32  34
HETATM   34  O   UNL     1      -7.973   8.262  69.814  1.00  0.00    -0.101 OA 
BRANCH  34  35
HETATM   35  C   UNL     1      -6.568   8.012  69.664  1.00  0.00    -0.038 C  
HETATM   36  C   UNL     1      -6.267   6.806  70.557  1.00  0.00    -0.031 C  
BRANCH  35  37
HETATM   37  O   UNL     1      -6.215   7.591  68.346  1.00  0.00    -0.034 OA 
BRANCH  37  38
HETATM   38  C   UNL     1      -7.193   6.991  67.633  1.00  0.00    -0.091 C  
HETATM   39  O   UNL     1      -7.583   5.844  67.762  1.00  0.00    -0.087 OA 
BRANCH  38  40
HETATM   40  O   UNL     1      -7.667   7.915  66.776  1.00  0.00    -0.095 OA 
BRANCH  40  41
HETATM   41  C   UNL     1      -8.572   7.626  65.685  1.00  0.00    -0.123 C  
HETATM   42  C   UNL     1      -8.290   9.359  63.282  1.00  0.00    -0.187 C  
HETATM   43  C   UNL     1      -9.418   8.882  65.467  1.00  0.00    -0.162 C  
HETATM   44  C   UNL     1      -8.672   9.926  64.642  1.00  0.00    -0.215 C  
HETATM   45  C   UNL     1      -7.446   8.093  63.396  1.00  0.00    -0.124 C  
HETATM   46  C   UNL     1      -8.012   7.060  64.376  1.00  0.00    -0.101 C  
ENDBRANCH  40  41
ENDBRANCH  38  40
ENDBRANCH  37  38
ENDBRANCH  35  37
ENDBRANCH  34  35
ENDBRANCH  32  34
ENDBRANCH   8  32
ENDBRANCH   3   4
ENDBRANCH   2   3
TORSDOF 13
ENDMDL
MODEL      104
REMARK 921   NORMALIZED FREE ENERGY PREDICTED BY IDOCK:   -6.22 KCAL/MOL
REMARK 922        TOTAL FREE ENERGY PREDICTED BY IDOCK:  -13.40 KCAL/MOL
REMARK 923 INTER-LIGAND FREE ENERGY PREDICTED BY IDOCK:  -10.26 KCAL/MOL
REMARK 924 INTRA-LIGAND FREE ENERGY PREDICTED BY IDOCK:   -3.14 KCAL/MOL
REMARK 927      BINDING AFFINITY PREDICTED BY RF-SCORE:    0.00 PKD
ROOT
HETATM    1  C   UNL     1      -6.148  12.108  67.223  1.00  0.00    -0.153 C  
HETATM    2  C   UNL     1      -6.673  11.947  68.638  1.00  0.00    -0.074 C  
ENDROOT
BRANCH   2   3
HETATM    3  O   UNL     1      -7.865  11.158  68.575  1.00  0.00    -0.120 OA 
BRANCH   3   4
HETATM    4  C   UNL     1      -7.989  10.254  69.543  1.00  0.00    -0.165 A  
HETATM    5  N   UNL     1      -7.033   9.923  70.380  1.00  0.00    -0.143 NA 
HETATM    6  C   UNL     1      -7.585   8.971  71.186  1.00  0.00    -0.102 A  
HETATM    7  C   UNL     1      -8.946   8.750  70.892  1.00  0.00    -0.201 A  
HETATM    8  C   UNL     1      -9.707   7.881  71.712  1.00  0.00    -0.219 A  
HETATM    9  N   UNL     1      -9.135   9.517  69.749  1.00  0.00    -0.188 NA 
HETATM   10  C   UNL     1      -7.662   7.351  72.972  1.00  0.00    -0.105 A  
HETATM   11  C   UNL     1      -6.936   8.250  72.202  1.00  0.00    -0.098 A  
HETATM   12  C   UNL     1      -9.025   7.198  72.746  1.00  0.00    -0.157 A  
BRANCH   9  13
HETATM   13  C   UNL     1     -10.213   9.482  68.760  1.00  0.00    -0.198 C  
BRANCH  13  14
HETATM   14  C   UNL     1     -10.021   8.418  67.709  1.00  0.00    -0.236 A  
HETATM   15  C   UNL     1      -8.613   7.162  66.194  1.00  0.00    -0.151 A  
HETATM   16  C   UNL     1      -9.463   6.048  66.292  1.00  0.00    -0.153 A  
HETATM   17  C   UNL     1     -11.020   7.461  67.521  1.00  0.00    -0.176 A  
HETATM   18  C   UNL     1      -8.857   8.317  66.948  1.00  0.00    -0.155 A  
HETATM   19  C   UNL     1     -10.736   6.279  66.838  1.00  0.00    -0.411 A  
BRANCH  16  20
HETATM   20  C   UNL     1      -9.007   4.660  65.988  1.00  0.00    -0.123 A  
HETATM   21  C   UNL     1      -9.352   4.075  64.745  1.00  0.00    -0.162 A  
HETATM   22  C   UNL     1      -8.322   3.827  66.925  1.00  0.00    -0.100 A  
HETATM   23  C   UNL     1      -9.031   2.752  64.424  1.00  0.00    -0.116 A  
HETATM   24  C   UNL     1      -7.953   2.515  66.550  1.00  0.00    -0.081 A  
HETATM   25  C   UNL     1      -8.312   1.977  65.319  1.00  0.00    -0.090 A  
BRANCH  22  26
HETATM   26  C   UNL     1      -7.997   4.187  68.311  1.00  0.00    -0.077 A  
HETATM   27  N   UNL     1      -6.792   4.389  68.817  1.00  0.00    -0.049 NA 
HETATM   28  H   UNL     1      -5.905   4.337  68.316  1.00  0.00     0.000 HD 
HETATM   29  N   UNL     1      -6.965   4.685  70.147  1.00  0.00    -0.047 NA 
HETATM   30  N   UNL     1      -8.246   4.645  70.477  1.00  0.00    -0.084 NA 
HETATM   31  N   UNL     1      -8.882   4.291  69.352  1.00  0.00    -0.087 NA 
ENDBRANCH  22  26
ENDBRANCH  16  20
ENDBRANCH  13  14
ENDBRANCH   9  13
BRANCH   8  32
HETATM   32  C   UNL     1     -11.124   7.515  71.478  1.00  0.00    -0.236 C  
HETATM   33  O   UNL     1     -11.469   6.636  70.707  1.00  0.00    -0.309 OA 
BRANCH  32  34
HETATM   34  O   UNL     1     -11.943   8.112  72.382  1.00  0.00    -0.352 OA 
BRANCH  34  35
HETATM   35  C   UNL     1     -12.883   9.004  71.764  1.00  0.00    -0.374 C  
HETATM   36  C   UNL     1     -14.265   8.498  72.179  1.00  0.00    -0.516 C  
BRANCH  35  37
HETATM   37  O   UNL     1     -12.808  10.334  72.279  1.00  0.00    -0.349 OA 
BRANCH  37  38
HETATM   38  C   UNL     1     -12.872  11.328  71.366  1.00  0.00    -0.410 C  
HETATM   39  O   UNL     1     -12.882  11.198  70.154  1.00  0.00    -0.156 OA 
BRANCH  38  40
HETATM   40  O   UNL     1     -12.949  12.481  72.056  1.00  0.00    -0.351 OA 
BRANCH  40  41
HETATM   41  C   UNL     1     -13.345  13.749  71.484  1.00  0.00    -0.318 C  
HETATM   42  C   UNL     1     -11.912  16.139  72.528  1.00  0.00    -0.660 C  
HETATM   43  C   UNL     1     -13.888  14.603  72.632  1.00  0.00    -0.490 C  
HETATM   44  C   UNL     1     -12.762  15.254  73.428  1.00  0.00    -0.661 C  
HETATM   45  C   UNL     1     -11.329  15.374  71.344  1.00  0.00    -0.449 C  
HETATM   46  C   UNL     1     -12.355  14.514  70.599  1.00  0.00    -0.407 C  
ENDBRANCH  40  41
ENDBRANCH  38  40
ENDBRANCH  37  38
ENDBRANCH  35  37
ENDBRANCH  34  35
ENDBRANCH  32  34
ENDBRANCH   8  32
ENDBRANCH   3   4
ENDBRANCH   2   3
TORSDOF 13
ENDMDL
MODEL      105
REMARK 921   NORMALIZED FREE ENERGY PREDICTED BY IDOCK:   -6.22 KCAL/MOL
REMARK 922        TOTAL FREE ENERGY PREDICTED BY IDOCK:  -13.39 KCAL/MOL
REMARK 923 INTER-LIGAND FREE ENERGY PREDICTED BY IDOCK:  -10.72 KCAL/MOL
REMARK 924 INTRA-LIGAND FREE ENERGY PREDICTED BY IDOCK:   -2.68 KCAL/MOL
REMARK 927      BINDING AFFINITY PREDICTED BY RF-SCORE:    0.00 PKD
ROOT
HETATM    1  C   UNL     1     -11.878  12.904  63.488  1.00  0.00    -0.605 C  
HETATM    2  C   UNL     1     -11.304  11.502  63.593  1.00  0.00    -0.318 C  
ENDROOT
BRANCH   2   3
HETATM    3  O   UNL     1      -9.881  11.619  63.695  1.00  0.00    -0.310 OA 
BRANCH   3   4
HETATM    4  C   UNL     1      -9.292  10.659  64.403  1.00  0.00    -0.251 A  
HETATM    5  N   UNL     1      -9.384   9.376  64.140  1.00  0.00     0.002 NA 
HETATM    6  C   UNL     1      -8.641   8.766  65.108  1.00  0.00    -0.182 A  
HETATM    7  C   UNL     1      -8.009   9.694  65.959  1.00  0.00    -0.108 A  
HETATM    8  C   UNL     1      -7.102   9.236  66.946  1.00  0.00    -0.082 A  
HETATM    9  N   UNL     1      -8.549  10.903  65.539  1.00  0.00    -0.173 NA 
HETATM   10  C   UNL     1      -7.644   6.923  66.306  1.00  0.00    -0.088 A  
HETATM   11  C   UNL     1      -8.485   7.383  65.300  1.00  0.00    -0.066 A  
HETATM   12  C   UNL     1      -6.946   7.837  67.087  1.00  0.00    -0.077 A  
BRANCH   9  13
HETATM   13  C   UNL     1      -8.566  12.208  66.201  1.00  0.00     0.176 C  
BRANCH  13  14
HETATM   14  C   UNL     1      -9.758  12.400  67.104  1.00  0.00    -0.207 A  
HETATM   15  C   UNL     1     -10.920  12.025  69.193  1.00  0.00    -0.231 A  
HETATM   16  C   UNL     1     -11.586  13.256  69.068  1.00  0.00    -0.359 A  
HETATM   17  C   UNL     1     -10.667  13.420  66.819  1.00  0.00    -0.277 A  
HETATM   18  C   UNL     1      -9.964  11.631  68.248  1.00  0.00    -0.201 A  
HETATM   19  C   UNL     1     -11.557  13.857  67.800  1.00  0.00    -0.381 A  
BRANCH  16  20
HETATM   20  C   UNL     1     -12.163  13.980  70.240  1.00  0.00    -0.430 A  
HETATM   21  C   UNL     1     -13.199  13.369  70.987  1.00  0.00    -0.102 A  
HETATM   22  C   UNL     1     -11.807  15.314  70.601  1.00  0.00    -0.376 A  
HETATM   23  C   UNL     1     -13.844  14.019  72.044  1.00  0.00    -0.582 A  
HETATM   24  C   UNL     1     -12.430  15.924  71.714  1.00  0.00    -0.512 A  
HETATM   25  C   UNL     1     -13.445  15.290  72.423  1.00  0.00    -0.565 A  
BRANCH  22  26
HETATM   26  C   UNL     1     -10.865  16.175  69.874  1.00  0.00    -0.355 A  
HETATM   27  N   UNL     1     -11.141  17.313  69.261  1.00  0.00    -0.155 NA 
HETATM   28  H   UNL     1     -12.051  17.771  69.208  1.00  0.00     0.000 HD 
HETATM   29  N   UNL     1      -9.966  17.761  68.708  1.00  0.00    -0.364 NA 
HETATM   30  N   UNL     1      -8.979  16.913  68.946  1.00  0.00    -0.247 NA 
HETATM   31  N   UNL     1      -9.543  15.907  69.629  1.00  0.00    -0.237 NA 
ENDBRANCH  22  26
ENDBRANCH  16  20
ENDBRANCH  13  14
ENDBRANCH   9  13
BRANCH   8  32
HETATM   32  C   UNL     1      -6.420  10.097  67.941  1.00  0.00    -0.062 C  
HETATM   33  O   UNL     1      -5.319  10.588  67.757  1.00  0.00    -0.040 OA 
BRANCH  32  34
HETATM   34  O   UNL     1      -7.258  10.442  68.952  1.00  0.00    -0.071 OA 
BRANCH  34  35
HETATM   35  C   UNL     1      -7.306   9.450  69.988  1.00  0.00    -0.101 C  
HETATM   36  C   UNL     1      -6.167   9.799  70.947  1.00  0.00    -0.084 C  
BRANCH  35  37
HETATM   37  O   UNL     1      -8.492   9.529  70.779  1.00  0.00    -0.232 OA 
BRANCH  37  38
HETATM   38  C   UNL     1      -9.576   8.887  70.290  1.00  0.00    -0.186 C  
HETATM   39  O   UNL     1      -9.593   8.105  69.355  1.00  0.00    -0.165 OA 
BRANCH  38  40
HETATM   40  O   UNL     1     -10.621   9.259  71.052  1.00  0.00    -0.263 OA 
BRANCH  40  41
HETATM   41  C   UNL     1     -10.964   8.650  72.318  1.00  0.00    -0.322 C  
HETATM   42  C   UNL     1     -11.199   5.683  72.300  1.00  0.00    -0.317 C  
HETATM   43  C   UNL     1     -12.297   7.927  72.115  1.00  0.00    -0.331 C  
HETATM   44  C   UNL     1     -12.104   6.567  71.453  1.00  0.00    -0.344 C  
HETATM   45  C   UNL     1      -9.841   6.325  72.564  1.00  0.00    -0.177 C  
HETATM   46  C   UNL     1      -9.927   7.780  73.037  1.00  0.00    -0.356 C  
ENDBRANCH  40  41
ENDBRANCH  38  40
ENDBRANCH  37  38
ENDBRANCH  35  37
ENDBRANCH  34  35
ENDBRANCH  32  34
ENDBRANCH   8  32
ENDBRANCH   3   4
ENDBRANCH   2   3
TORSDOF 13
ENDMDL
MODEL      106
REMARK 921   NORMALIZED FREE ENERGY PREDICTED BY IDOCK:   -6.21 KCAL/MOL
REMARK 922        TOTAL FREE ENERGY PREDICTED BY IDOCK:  -13.39 KCAL/MOL
REMARK 923 INTER-LIGAND FREE ENERGY PREDICTED BY IDOCK:  -10.68 KCAL/MOL
REMARK 924 INTRA-LIGAND FREE ENERGY PREDICTED BY IDOCK:   -2.70 KCAL/MOL
REMARK 927      BINDING AFFINITY PREDICTED BY RF-SCORE:    0.00 PKD
ROOT
HETATM    1  C   UNL     1     -13.846   9.170  72.579  1.00  0.00    -0.485 C  
HETATM    2  C   UNL     1     -12.973   9.797  71.507  1.00  0.00    -0.407 C  
ENDROOT
BRANCH   2   3
HETATM    3  O   UNL     1     -11.606   9.568  71.867  1.00  0.00    -0.371 OA 
BRANCH   3   4
HETATM    4  C   UNL     1     -11.041   8.519  71.275  1.00  0.00    -0.262 A  
HETATM    5  N   UNL     1     -11.451   7.279  71.407  1.00  0.00    -0.258 NA 
HETATM    6  C   UNL     1     -10.593   6.542  70.643  1.00  0.00    -0.233 A  
HETATM    7  C   UNL     1      -9.663   7.350  69.958  1.00  0.00    -0.175 A  
HETATM    8  C   UNL     1      -8.774   6.759  69.027  1.00  0.00    -0.130 A  
HETATM    9  N   UNL     1      -9.915   8.611  70.485  1.00  0.00    -0.183 NA 
HETATM   10  C   UNL     1      -9.663   4.551  69.647  1.00  0.00    -0.288 A  
HETATM   11  C   UNL     1     -10.572   5.144  70.513  1.00  0.00    -0.221 A  
HETATM   12  C   UNL     1      -8.807   5.351  68.899  1.00  0.00    -0.105 A  
BRANCH   9  13
HETATM   13  C   UNL     1      -9.102   9.827  70.446  1.00  0.00    -0.097 C  
BRANCH  13  14
HETATM   14  C   UNL     1      -9.365  10.678  69.229  1.00  0.00    -0.136 A  
HETATM   15  C   UNL     1     -10.825  12.056  67.878  1.00  0.00    -0.254 A  
HETATM   16  C   UNL     1      -9.726  12.789  67.399  1.00  0.00    -0.197 A  
HETATM   17  C   UNL     1      -8.281  11.162  68.493  1.00  0.00    -0.149 A  
HETATM   18  C   UNL     1     -10.650  11.049  68.836  1.00  0.00    -0.239 A  
HETATM   19  C   UNL     1      -8.458  12.221  67.604  1.00  0.00    -0.166 A  
BRANCH  16  20
HETATM   20  C   UNL     1      -9.861  14.168  66.845  1.00  0.00    -0.265 A  
HETATM   21  C   UNL     1      -9.277  15.254  67.542  1.00  0.00    -0.202 A  
HETATM   22  C   UNL     1     -10.642  14.487  65.693  1.00  0.00    -0.343 A  
HETATM   23  C   UNL     1      -9.432  16.581  67.129  1.00  0.00    -0.246 A  
HETATM   24  C   UNL     1     -10.729  15.830  65.260  1.00  0.00    -0.446 A  
HETATM   25  C   UNL     1     -10.141  16.868  65.975  1.00  0.00    -0.336 A  
BRANCH  22  26
HETATM   26  C   UNL     1     -11.442  13.535  64.911  1.00  0.00    -0.334 A  
HETATM   27  N   UNL     1     -12.726  13.261  65.069  1.00  0.00    -0.686 NA 
HETATM   28  H   UNL     1     -13.358  13.678  65.753  1.00  0.00     0.000 HD 
HETATM   29  N   UNL     1     -13.045  12.306  64.135  1.00  0.00    -0.757 NA 
HETATM   30  N   UNL     1     -11.982  11.968  63.422  1.00  0.00    -0.487 NA 
HETATM   31  N   UNL     1     -10.978  12.695  63.933  1.00  0.00    -0.396 NA 
ENDBRANCH  22  26
ENDBRANCH  16  20
ENDBRANCH  13  14
ENDBRANCH   9  13
BRANCH   8  32
HETATM   32  C   UNL     1      -7.712   7.482  68.288  1.00  0.00    -0.120 C  
HETATM   33  O   UNL     1      -6.556   7.097  68.231  1.00  0.00    -0.045 OA 
BRANCH  32  34
HETATM   34  O   UNL     1      -8.233   8.472  67.518  1.00  0.00    -0.115 OA 
BRANCH  34  35
HETATM   35  C   UNL     1      -8.873   7.968  66.336  1.00  0.00    -0.157 C  
HETATM   36  C   UNL     1     -10.185   8.744  66.216  1.00  0.00    -0.157 C  
BRANCH  35  37
HETATM   37  O   UNL     1      -8.153   8.273  65.141  1.00  0.00    -0.126 OA 
BRANCH  37  38
HETATM   38  C   UNL     1      -7.342   7.300  64.672  1.00  0.00    -0.079 C  
HETATM   39  O   UNL     1      -6.156   7.167  64.915  1.00  0.00    -0.036 OA 
BRANCH  38  40
HETATM   40  O   UNL     1      -8.106   6.496  63.909  1.00  0.00    -0.105 OA 
BRANCH  40  41
HETATM   41  C   UNL     1      -7.956   5.060  63.835  1.00  0.00    -0.102 C  
HETATM   42  C   UNL     1     -10.490   3.499  63.776  1.00  0.00    -0.267 C  
HETATM   43  C   UNL     1      -8.602   4.481  65.096  1.00  0.00    -0.131 C  
HETATM   44  C   UNL     1     -10.117   4.383  64.958  1.00  0.00    -0.165 C  
HETATM   45  C   UNL     1      -9.884   3.994  62.466  1.00  0.00    -0.147 C  
HETATM   46  C   UNL     1      -8.391   4.324  62.563  1.00  0.00    -0.081 C  
ENDBRANCH  40  41
ENDBRANCH  38  40
ENDBRANCH  37  38
ENDBRANCH  35  37
ENDBRANCH  34  35
ENDBRANCH  32  34
ENDBRANCH   8  32
ENDBRANCH   3   4
ENDBRANCH   2   3
TORSDOF 13
ENDMDL
MODEL      107
REMARK 921   NORMALIZED FREE ENERGY PREDICTED BY IDOCK:   -6.20 KCAL/MOL
REMARK 922        TOTAL FREE ENERGY PREDICTED BY IDOCK:  -13.37 KCAL/MOL
REMARK 923 INTER-LIGAND FREE ENERGY PREDICTED BY IDOCK:  -10.23 KCAL/MOL
REMARK 924 INTRA-LIGAND FREE ENERGY PREDICTED BY IDOCK:   -3.14 KCAL/MOL
REMARK 927      BINDING AFFINITY PREDICTED BY RF-SCORE:    0.00 PKD
ROOT
HETATM    1  C   UNL     1     -14.244   8.628  71.643  1.00  0.00    -0.463 C  
HETATM    2  C   UNL     1     -13.644   9.961  72.053  1.00  0.00    -0.306 C  
ENDROOT
BRANCH   2   3
HETATM    3  O   UNL     1     -13.100  10.575  70.880  1.00  0.00    -0.379 OA 
BRANCH   3   4
HETATM    4  C   UNL     1     -11.868  10.185  70.566  1.00  0.00    -0.321 A  
HETATM    5  N   UNL     1     -11.030   9.617  71.402  1.00  0.00    -0.344 NA 
HETATM    6  C   UNL     1      -9.900   9.394  70.669  1.00  0.00    -0.276 A  
HETATM    7  C   UNL     1     -10.058   9.769  69.320  1.00  0.00    -0.198 A  
HETATM    8  C   UNL     1      -9.024   9.496  68.392  1.00  0.00    -0.127 A  
HETATM    9  N   UNL     1     -11.306  10.382  69.322  1.00  0.00    -0.243 NA 
HETATM   10  C   UNL     1      -7.645   8.652  70.245  1.00  0.00    -0.074 A  
HETATM   11  C   UNL     1      -8.686   8.867  71.138  1.00  0.00    -0.280 A  
HETATM   12  C   UNL     1      -7.829   8.933  68.896  1.00  0.00    -0.096 A  
BRANCH   9  13
HETATM   13  C   UNL     1     -11.922  11.265  68.332  1.00  0.00    -0.185 C  
BRANCH  13  14
HETATM   14  C   UNL     1     -11.317  12.646  68.309  1.00  0.00    -0.337 A  
HETATM   15  C   UNL     1     -10.633  14.681  69.423  1.00  0.00    -0.209 A  
HETATM   16  C   UNL     1      -9.616  14.885  68.474  1.00  0.00    -0.215 A  
HETATM   17  C   UNL     1     -10.562  13.036  67.201  1.00  0.00    -0.251 A  
HETATM   18  C   UNL     1     -11.436  13.534  69.376  1.00  0.00    -0.340 A  
HETATM   19  C   UNL     1      -9.705  14.132  67.292  1.00  0.00    -0.236 A  
BRANCH  16  20
HETATM   20  C   UNL     1      -8.416  15.728  68.751  1.00  0.00    -0.198 A  
HETATM   21  C   UNL     1      -7.387  15.214  69.578  1.00  0.00    -0.210 A  
HETATM   22  C   UNL     1      -8.279  17.081  68.317  1.00  0.00    -0.227 A  
HETATM   23  C   UNL     1      -6.274  15.975  69.949  1.00  0.00    -0.154 A  
HETATM   24  C   UNL     1      -7.114  17.806  68.652  1.00  0.00    -0.257 A  
HETATM   25  C   UNL     1      -6.125  17.265  69.468  1.00  0.00    -0.247 A  
BRANCH  22  26
HETATM   26  C   UNL     1      -9.289  17.847  67.575  1.00  0.00    -0.253 A  
HETATM   27  N   UNL     1     -10.284  18.553  68.086  1.00  0.00    -0.368 NA 
HETATM   28  H   UNL     1     -10.493  18.680  69.076  1.00  0.00     0.000 HD 
HETATM   29  N   UNL     1     -10.980  19.083  67.028  1.00  0.00    -0.329 NA 
HETATM   30  N   UNL     1     -10.452  18.699  65.876  1.00  0.00    -0.587 NA 
HETATM   31  N   UNL     1      -9.433  17.897  66.212  1.00  0.00    -0.448 NA 
ENDBRANCH  22  26
ENDBRANCH  16  20
ENDBRANCH  13  14
ENDBRANCH   9  13
BRANCH   8  32
HETATM   32  C   UNL     1      -9.037   9.891  66.963  1.00  0.00    -0.138 C  
HETATM   33  O   UNL     1     -10.032   9.824  66.260  1.00  0.00    -0.233 OA 
BRANCH  32  34
HETATM   34  O   UNL     1      -7.892  10.532  66.618  1.00  0.00    -0.116 OA 
BRANCH  34  35
HETATM   35  C   UNL     1      -7.291   9.985  65.435  1.00  0.00    -0.139 C  
HETATM   36  C   UNL     1      -5.885  10.583  65.373  1.00  0.00    -0.134 C  
BRANCH  35  37
HETATM   37  O   UNL     1      -7.088   8.574  65.516  1.00  0.00    -0.079 OA 
BRANCH  37  38
HETATM   38  C   UNL     1      -7.619   7.840  64.513  1.00  0.00    -0.108 C  
HETATM   39  O   UNL     1      -7.309   7.891  63.336  1.00  0.00    -0.095 OA 
BRANCH  38  40
HETATM   40  O   UNL     1      -8.534   7.027  65.074  1.00  0.00    -0.089 OA 
BRANCH  40  41
HETATM   41  C   UNL     1      -8.342   6.323  66.322  1.00  0.00    -0.122 C  
HETATM   42  C   UNL     1      -9.708   3.688  66.540  1.00  0.00    -0.100 C  
HETATM   43  C   UNL     1      -9.726   6.158  66.955  1.00  0.00    -0.178 C  
HETATM   44  C   UNL     1     -10.485   4.983  66.347  1.00  0.00    -0.349 C  
HETATM   45  C   UNL     1      -8.305   3.757  65.944  1.00  0.00    -0.109 C  
HETATM   46  C   UNL     1      -7.532   5.022  66.333  1.00  0.00    -0.087 C  
ENDBRANCH  40  41
ENDBRANCH  38  40
ENDBRANCH  37  38
ENDBRANCH  35  37
ENDBRANCH  34  35
ENDBRANCH  32  34
ENDBRANCH   8  32
ENDBRANCH   3   4
ENDBRANCH   2   3
TORSDOF 13
ENDMDL
MODEL      108
REMARK 921   NORMALIZED FREE ENERGY PREDICTED BY IDOCK:   -6.20 KCAL/MOL
REMARK 922        TOTAL FREE ENERGY PREDICTED BY IDOCK:  -13.37 KCAL/MOL
REMARK 923 INTER-LIGAND FREE ENERGY PREDICTED BY IDOCK:  -11.38 KCAL/MOL
REMARK 924 INTRA-LIGAND FREE ENERGY PREDICTED BY IDOCK:   -1.99 KCAL/MOL
REMARK 927      BINDING AFFINITY PREDICTED BY RF-SCORE:    0.00 PKD
ROOT
HETATM    1  C   UNL     1      -7.248   9.627  62.532  1.00  0.00    -0.107 C  
HETATM    2  C   UNL     1      -8.757   9.621  62.360  1.00  0.00    -0.230 C  
ENDROOT
BRANCH   2   3
HETATM    3  O   UNL     1      -9.346   9.650  63.665  1.00  0.00    -0.211 OA 
BRANCH   3   4
HETATM    4  C   UNL     1      -9.945  10.795  63.981  1.00  0.00    -0.342 A  
HETATM    5  N   UNL     1     -10.817  11.414  63.220  1.00  0.00    -0.297 NA 
HETATM    6  C   UNL     1     -11.163  12.533  63.921  1.00  0.00    -0.436 A  
HETATM    7  C   UNL     1     -10.543  12.581  65.186  1.00  0.00    -0.293 A  
HETATM    8  C   UNL     1     -10.883  13.614  66.094  1.00  0.00    -0.279 A  
HETATM    9  N   UNL     1      -9.675  11.497  65.137  1.00  0.00    -0.239 NA 
HETATM   10  C   UNL     1     -12.312  14.609  64.357  1.00  0.00    -0.420 A  
HETATM   11  C   UNL     1     -12.020  13.561  63.494  1.00  0.00    -0.388 A  
HETATM   12  C   UNL     1     -11.776  14.612  65.639  1.00  0.00    -0.304 A  
BRANCH   9  13
HETATM   13  C   UNL     1      -8.524  11.173  65.980  1.00  0.00    -0.138 C  
BRANCH  13  14
HETATM   14  C   UNL     1      -8.852  10.206  67.088  1.00  0.00    -0.138 A  
HETATM   15  C   UNL     1     -10.301   8.555  68.104  1.00  0.00    -0.258 A  
HETATM   16  C   UNL     1      -9.200   7.933  68.716  1.00  0.00    -0.143 A  
HETATM   17  C   UNL     1      -7.841   9.810  67.965  1.00  0.00    -0.086 A  
HETATM   18  C   UNL     1     -10.120   9.646  67.244  1.00  0.00    -0.267 A  
HETATM   19  C   UNL     1      -8.006   8.672  68.754  1.00  0.00    -0.114 A  
BRANCH  16  20
HETATM   20  C   UNL     1      -9.228   6.510  69.165  1.00  0.00    -0.135 A  
HETATM   21  C   UNL     1      -8.401   5.563  68.512  1.00  0.00    -0.101 A  
HETATM   22  C   UNL     1     -10.125   6.008  70.156  1.00  0.00    -0.249 A  
HETATM   23  C   UNL     1      -8.435   4.200  68.822  1.00  0.00    -0.098 A  
HETATM   24  C   UNL     1     -10.092   4.637  70.495  1.00  0.00    -0.263 A  
HETATM   25  C   UNL     1      -9.265   3.738  69.829  1.00  0.00    -0.213 A  
BRANCH  22  26
HETATM   26  C   UNL     1     -11.158   6.790  70.849  1.00  0.00    -0.277 A  
HETATM   27  N   UNL     1     -10.965   7.789  71.693  1.00  0.00    -0.231 NA 
HETATM   28  H   UNL     1     -10.066   8.176  71.982  1.00  0.00     0.000 HD 
HETATM   29  N   UNL     1     -12.206   8.207  72.104  1.00  0.00    -0.336 NA 
HETATM   30  N   UNL     1     -13.159   7.471  71.553  1.00  0.00    -0.361 NA 
HETATM   31  N   UNL     1     -12.509   6.563  70.811  1.00  0.00    -0.104 NA 
ENDBRANCH  22  26
ENDBRANCH  16  20
ENDBRANCH  13  14
ENDBRANCH   9  13
BRANCH   8  32
HETATM   32  C   UNL     1     -10.263  13.814  67.426  1.00  0.00    -0.252 C  
HETATM   33  O   UNL     1     -10.711  13.330  68.451  1.00  0.00    -0.242 OA 
BRANCH  32  34
HETATM   34  O   UNL     1      -9.042  14.396  67.319  1.00  0.00    -0.195 OA 
BRANCH  34  35
HETATM   35  C   UNL     1      -8.320  14.391  68.559  1.00  0.00    -0.157 C  
HETATM   36  C   UNL     1      -7.010  13.656  68.271  1.00  0.00    -0.109 C  
BRANCH  35  37
HETATM   37  O   UNL     1      -7.925  15.698  68.979  1.00  0.00    -0.173 OA 
BRANCH  37  38
HETATM   38  C   UNL     1      -8.861  16.666  68.863  1.00  0.00    -0.238 C  
HETATM   39  O   UNL     1     -10.041  16.569  69.149  1.00  0.00    -0.262 OA 
BRANCH  38  40
HETATM   40  O   UNL     1      -8.228  17.759  68.398  1.00  0.00    -0.281 OA 
BRANCH  40  41
HETATM   41  C   UNL     1      -8.710  19.112  68.565  1.00  0.00    -0.365 C  
HETATM   42  C   UNL     1      -9.912  20.362  66.146  1.00  0.00    -0.316 C  
HETATM   43  C   UNL     1      -7.908  19.990  67.602  1.00  0.00    -0.341 C  
HETATM   44  C   UNL     1      -8.457  19.914  66.182  1.00  0.00    -0.350 C  
HETATM   45  C   UNL     1     -10.794  19.545  67.084  1.00  0.00    -0.555 C  
HETATM   46  C   UNL     1     -10.216  19.386  68.494  1.00  0.00    -0.492 C  
ENDBRANCH  40  41
ENDBRANCH  38  40
ENDBRANCH  37  38
ENDBRANCH  35  37
ENDBRANCH  34  35
ENDBRANCH  32  34
ENDBRANCH   8  32
ENDBRANCH   3   4
ENDBRANCH   2   3
TORSDOF 13
ENDMDL
MODEL      109
REMARK 921   NORMALIZED FREE ENERGY PREDICTED BY IDOCK:   -6.19 KCAL/MOL
REMARK 922        TOTAL FREE ENERGY PREDICTED BY IDOCK:  -13.34 KCAL/MOL
REMARK 923 INTER-LIGAND FREE ENERGY PREDICTED BY IDOCK:  -10.96 KCAL/MOL
REMARK 924 INTRA-LIGAND FREE ENERGY PREDICTED BY IDOCK:   -2.39 KCAL/MOL
REMARK 927      BINDING AFFINITY PREDICTED BY RF-SCORE:    0.00 PKD
ROOT
HETATM    1  C   UNL     1      -5.670   6.200  65.371  1.00  0.00    -0.024 C  
HETATM    2  C   UNL     1      -5.809   7.703  65.539  1.00  0.00    -0.038 C  
ENDROOT
BRANCH   2   3
HETATM    3  O   UNL     1      -7.114   7.966  66.063  1.00  0.00    -0.060 OA 
BRANCH   3   4
HETATM    4  C   UNL     1      -7.333   9.232  66.406  1.00  0.00    -0.092 A  
HETATM    5  N   UNL     1      -6.451  10.009  66.991  1.00  0.00    -0.068 NA 
HETATM    6  C   UNL     1      -7.092  11.201  67.161  1.00  0.00    -0.113 A  
HETATM    7  C   UNL     1      -8.387  11.194  66.606  1.00  0.00    -0.160 A  
HETATM    8  C   UNL     1      -9.148  12.389  66.588  1.00  0.00    -0.204 A  
HETATM    9  N   UNL     1      -8.545   9.866  66.230  1.00  0.00    -0.127 NA 
HETATM   10  C   UNL     1      -7.353  13.499  67.850  1.00  0.00    -0.149 A  
HETATM   11  C   UNL     1      -6.587  12.341  67.810  1.00  0.00    -0.108 A  
HETATM   12  C   UNL     1      -8.592  13.524  67.222  1.00  0.00    -0.218 A  
BRANCH   9  13
HETATM   13  C   UNL     1      -9.759   9.121  65.893  1.00  0.00    -0.266 C  
BRANCH  13  14
HETATM   14  C   UNL     1     -10.378   8.426  67.080  1.00  0.00    -0.385 A  
HETATM   15  C   UNL     1     -11.156   6.427  68.199  1.00  0.00    -0.358 A  
HETATM   16  C   UNL     1     -10.871   6.992  69.454  1.00  0.00    -0.253 A  
HETATM   17  C   UNL     1     -10.435   9.095  68.304  1.00  0.00    -0.254 A  
HETATM   18  C   UNL     1     -10.851   7.116  67.018  1.00  0.00    -0.382 A  
HETATM   19  C   UNL     1     -10.658   8.380  69.480  1.00  0.00    -0.217 A  
BRANCH  16  20
HETATM   20  C   UNL     1     -10.644   6.165  70.675  1.00  0.00    -0.307 A  
HETATM   21  C   UNL     1     -11.650   6.113  71.671  1.00  0.00    -0.317 A  
HETATM   22  C   UNL     1      -9.418   5.492  70.962  1.00  0.00    -0.203 A  
HETATM   23  C   UNL     1     -11.476   5.428  72.877  1.00  0.00    -0.340 A  
HETATM   24  C   UNL     1      -9.292   4.753  72.160  1.00  0.00    -0.171 A  
HETATM   25  C   UNL     1     -10.304   4.728  73.114  1.00  0.00    -0.231 A  
BRANCH  22  26
HETATM   26  C   UNL     1      -8.204   5.536  70.135  1.00  0.00    -0.102 A  
HETATM   27  N   UNL     1      -7.386   6.563  69.981  1.00  0.00    -0.087 NA 
HETATM   28  H   UNL     1      -7.469   7.479  70.422  1.00  0.00     0.000 HD 
HETATM   29  N   UNL     1      -6.402   6.159  69.112  1.00  0.00    -0.039 NA 
HETATM   30  N   UNL     1      -6.610   4.916  68.708  1.00  0.00    -0.047 NA 
HETATM   31  N   UNL     1      -7.751   4.544  69.305  1.00  0.00    -0.055 NA 
ENDBRANCH  22  26
ENDBRANCH  16  20
ENDBRANCH  13  14
ENDBRANCH   9  13
BRANCH   8  32
HETATM   32  C   UNL     1     -10.540  12.503  66.092  1.00  0.00    -0.253 C  
HETATM   33  O   UNL     1     -11.482  12.803  66.806  1.00  0.00    -0.306 OA 
BRANCH  32  34
HETATM   34  O   UNL     1     -10.586  12.458  64.736  1.00  0.00    -0.278 OA 
BRANCH  34  35
HETATM   35  C   UNL     1     -11.150  13.648  64.166  1.00  0.00    -0.229 C  
HETATM   36  C   UNL     1     -12.521  13.236  63.627  1.00  0.00    -0.347 C  
BRANCH  35  37
HETATM   37  O   UNL     1     -11.424  14.656  65.140  1.00  0.00    -0.349 OA 
BRANCH  37  38
HETATM   38  C   UNL     1     -11.090  15.919  64.795  1.00  0.00    -0.384 C  
HETATM   39  O   UNL     1     -11.601  16.588  63.915  1.00  0.00    -1.175 OA 
BRANCH  38  40
HETATM   40  O   UNL     1     -10.105  16.298  65.631  1.00  0.00    -0.409 OA 
BRANCH  40  41
HETATM   41  C   UNL     1     -10.275  17.236  66.718  1.00  0.00    -0.318 C  
HETATM   42  C   UNL     1      -7.902  18.916  67.356  1.00  0.00    -0.255 C  
HETATM   43  C   UNL     1      -9.256  16.855  67.795  1.00  0.00    -0.230 C  
HETATM   44  C   UNL     1      -7.868  17.399  67.473  1.00  0.00    -0.209 C  
HETATM   45  C   UNL     1      -8.899  19.395  66.305  1.00  0.00    -0.372 C  
HETATM   46  C   UNL     1     -10.279  18.739  66.419  1.00  0.00    -0.464 C  
ENDBRANCH  40  41
ENDBRANCH  38  40
ENDBRANCH  37  38
ENDBRANCH  35  37
ENDBRANCH  34  35
ENDBRANCH  32  34
ENDBRANCH   8  32
ENDBRANCH   3   4
ENDBRANCH   2   3
TORSDOF 13
ENDMDL
MODEL      110
REMARK 921   NORMALIZED FREE ENERGY PREDICTED BY IDOCK:   -6.18 KCAL/MOL
REMARK 922        TOTAL FREE ENERGY PREDICTED BY IDOCK:  -13.34 KCAL/MOL
REMARK 923 INTER-LIGAND FREE ENERGY PREDICTED BY IDOCK:  -10.06 KCAL/MOL
REMARK 924 INTRA-LIGAND FREE ENERGY PREDICTED BY IDOCK:   -3.28 KCAL/MOL
REMARK 927      BINDING AFFINITY PREDICTED BY RF-SCORE:    0.00 PKD
ROOT
HETATM    1  C   UNL     1     -12.239  13.960  71.112  1.00  0.00    -0.390 C  
HETATM    2  C   UNL     1     -12.113  13.711  69.620  1.00  0.00    -0.321 C  
ENDROOT
BRANCH   2   3
HETATM    3  O   UNL     1     -11.511  12.425  69.441  1.00  0.00    -0.272 OA 
BRANCH   3   4
HETATM    4  C   UNL     1     -11.210  12.120  68.181  1.00  0.00    -0.267 A  
HETATM    5  N   UNL     1     -11.978  12.378  67.148  1.00  0.00    -0.549 NA 
HETATM    6  C   UNL     1     -11.293  11.895  66.072  1.00  0.00    -0.316 A  
HETATM    7  C   UNL     1     -10.030  11.383  66.431  1.00  0.00    -0.214 A  
HETATM    8  C   UNL     1      -9.136  10.950  65.421  1.00  0.00    -0.218 A  
HETATM    9  N   UNL     1     -10.065  11.443  67.819  1.00  0.00    -0.178 NA 
HETATM   10  C   UNL     1     -10.885  11.391  63.748  1.00  0.00    -0.468 A  
HETATM   11  C   UNL     1     -11.733  11.870  64.738  1.00  0.00    -0.282 A  
HETATM   12  C   UNL     1      -9.604  10.972  64.086  1.00  0.00    -0.306 A  
BRANCH   9  13
HETATM   13  C   UNL     1      -9.220  10.779  68.812  1.00  0.00    -0.189 C  
BRANCH  13  14
HETATM   14  C   UNL     1      -9.220   9.277  68.683  1.00  0.00    -0.135 A  
HETATM   15  C   UNL     1      -8.107   7.134  68.842  1.00  0.00    -0.121 A  
HETATM   16  C   UNL     1      -9.328   6.498  69.128  1.00  0.00    -0.133 A  
HETATM   17  C   UNL     1     -10.440   8.602  68.612  1.00  0.00    -0.208 A  
HETATM   18  C   UNL     1      -8.046   8.525  68.684  1.00  0.00    -0.121 A  
HETATM   19  C   UNL     1     -10.494   7.230  68.854  1.00  0.00    -0.216 A  
BRANCH  16  20
HETATM   20  C   UNL     1      -9.402   5.183  69.832  1.00  0.00    -0.196 A  
HETATM   21  C   UNL     1      -9.238   3.990  69.086  1.00  0.00    -0.217 A  
HETATM   22  C   UNL     1      -9.739   5.040  71.212  1.00  0.00    -0.235 A  
HETATM   23  C   UNL     1      -9.377   2.723  69.660  1.00  0.00    -0.198 A  
HETATM   24  C   UNL     1      -9.810   3.748  71.781  1.00  0.00    -0.244 A  
HETATM   25  C   UNL     1      -9.642   2.600  71.013  1.00  0.00    -0.210 A  
BRANCH  22  26
HETATM   26  C   UNL     1     -10.088   6.136  72.126  1.00  0.00    -0.183 A  
HETATM   27  N   UNL     1     -11.302   6.500  72.501  1.00  0.00    -0.314 NA 
HETATM   28  H   UNL     1     -12.181   6.067  72.219  1.00  0.00     0.000 HD 
HETATM   29  N   UNL     1     -11.152   7.574  73.343  1.00  0.00    -0.289 NA 
HETATM   30  N   UNL     1      -9.874   7.895  73.476  1.00  0.00    -0.247 NA 
HETATM   31  N   UNL     1      -9.217   7.035  72.686  1.00  0.00    -0.134 NA 
ENDBRANCH  22  26
ENDBRANCH  16  20
ENDBRANCH  13  14
ENDBRANCH   9  13
BRANCH   8  32
HETATM   32  C   UNL     1      -7.809  10.338  65.665  1.00  0.00    -0.151 C  
HETATM   33  O   UNL     1      -7.612   9.135  65.635  1.00  0.00    -0.092 OA 
BRANCH  32  34
HETATM   34  O   UNL     1      -6.830  11.278  65.694  1.00  0.00     0.164 OA 
BRANCH  34  35
HETATM   35  C   UNL     1      -6.515  11.700  67.029  1.00  0.00    -0.148 C  
HETATM   36  C   UNL     1      -5.182  11.031  67.369  1.00  0.00    -0.040 C  
BRANCH  35  37
HETATM   37  O   UNL     1      -6.258  13.102  67.122  1.00  0.00    -0.282 OA 
BRANCH  37  38
HETATM   38  C   UNL     1      -7.003  13.783  68.022  1.00  0.00    -0.137 C  
HETATM   39  O   UNL     1      -6.718  13.990  69.188  1.00  0.00    -0.104 OA 
BRANCH  38  40
HETATM   40  O   UNL     1      -8.102  14.207  67.370  1.00  0.00    -0.174 OA 
BRANCH  40  41
HETATM   41  C   UNL     1      -8.228  15.504  66.745  1.00  0.00    -0.242 C  
HETATM   42  C   UNL     1     -10.565  17.131  67.611  1.00  0.00    -0.343 C  
HETATM   43  C   UNL     1      -9.561  15.505  65.992  1.00  0.00    -0.380 C  
HETATM   44  C   UNL     1     -10.734  15.782  66.926  1.00  0.00    -0.299 C  
HETATM   45  C   UNL     1      -9.255  17.229  68.386  1.00  0.00    -0.268 C  
HETATM   46  C   UNL     1      -8.031  16.767  67.590  1.00  0.00    -0.189 C  
ENDBRANCH  40  41
ENDBRANCH  38  40
ENDBRANCH  37  38
ENDBRANCH  35  37
ENDBRANCH  34  35
ENDBRANCH  32  34
ENDBRANCH   8  32
ENDBRANCH   3   4
ENDBRANCH   2   3
TORSDOF 13
ENDMDL
MODEL      111
REMARK 921   NORMALIZED FREE ENERGY PREDICTED BY IDOCK:   -6.18 KCAL/MOL
REMARK 922        TOTAL FREE ENERGY PREDICTED BY IDOCK:  -13.33 KCAL/MOL
REMARK 923 INTER-LIGAND FREE ENERGY PREDICTED BY IDOCK:  -12.09 KCAL/MOL
REMARK 924 INTRA-LIGAND FREE ENERGY PREDICTED BY IDOCK:   -1.25 KCAL/MOL
REMARK 927      BINDING AFFINITY PREDICTED BY RF-SCORE:    0.00 PKD
ROOT
HETATM    1  C   UNL     1      -6.730   6.087  65.489  1.00  0.00    -0.048 C  
HETATM    2  C   UNL     1      -7.838   6.883  66.155  1.00  0.00    -0.102 C  
ENDROOT
BRANCH   2   3
HETATM    3  O   UNL     1      -7.416   8.250  66.220  1.00  0.00    -0.077 OA 
BRANCH   3   4
HETATM    4  C   UNL     1      -8.239   9.116  65.635  1.00  0.00    -0.120 A  
HETATM    5  N   UNL     1      -8.299   9.330  64.341  1.00  0.00    -0.161 NA 
HETATM    6  C   UNL     1      -9.259  10.287  64.188  1.00  0.00    -0.267 A  
HETATM    7  C   UNL     1      -9.867  10.632  65.412  1.00  0.00    -0.267 A  
HETATM    8  C   UNL     1     -10.969  11.523  65.420  1.00  0.00    -0.288 A  
HETATM    9  N   UNL     1      -9.099   9.935  66.336  1.00  0.00    -0.147 NA 
HETATM   10  C   UNL     1     -10.683  11.828  62.996  1.00  0.00    -0.172 A  
HETATM   11  C   UNL     1      -9.644  10.907  62.987  1.00  0.00    -0.382 A  
HETATM   12  C   UNL     1     -11.347  12.100  64.186  1.00  0.00    -0.449 A  
BRANCH   9  13
HETATM   13  C   UNL     1      -8.989  10.102  67.786  1.00  0.00    -0.128 C  
BRANCH  13  14
HETATM   14  C   UNL     1      -9.346   8.856  68.556  1.00  0.00    -0.141 A  
HETATM   15  C   UNL     1     -10.675   6.856  68.858  1.00  0.00    -0.254 A  
HETATM   16  C   UNL     1      -9.610   6.222  69.519  1.00  0.00    -0.163 A  
HETATM   17  C   UNL     1      -8.447   8.362  69.502  1.00  0.00    -0.124 A  
HETATM   18  C   UNL     1     -10.521   8.142  68.324  1.00  0.00    -0.210 A  
HETATM   19  C   UNL     1      -8.566   7.051  69.961  1.00  0.00    -0.141 A  
BRANCH  16  20
HETATM   20  C   UNL     1      -9.495   4.736  69.616  1.00  0.00    -0.223 A  
HETATM   21  C   UNL     1      -9.222   3.987  68.445  1.00  0.00    -0.204 A  
HETATM   22  C   UNL     1      -9.749   3.998  70.811  1.00  0.00    -0.263 A  
HETATM   23  C   UNL     1      -9.183   2.589  68.443  1.00  0.00    -0.253 A  
HETATM   24  C   UNL     1      -9.639   2.589  70.795  1.00  0.00    -0.175 A  
HETATM   25  C   UNL     1      -9.370   1.889  69.623  1.00  0.00    -0.158 A  
BRANCH  22  26
HETATM   26  C   UNL     1     -10.186   4.567  72.093  1.00  0.00    -0.188 A  
HETATM   27  N   UNL     1     -10.556   5.816  72.321  1.00  0.00    -0.209 NA 
HETATM   28  H   UNL     1     -10.605   6.571  71.637  1.00  0.00     0.000 HD 
HETATM   29  N   UNL     1     -10.864   5.900  73.657  1.00  0.00    -0.231 NA 
HETATM   30  N   UNL     1     -10.667   4.739  74.261  1.00  0.00    -0.322 NA 
HETATM   31  N   UNL     1     -10.203   3.925  73.303  1.00  0.00    -0.140 NA 
ENDBRANCH  22  26
ENDBRANCH  16  20
ENDBRANCH  13  14
ENDBRANCH   9  13
BRANCH   8  32
HETATM   32  C   UNL     1     -11.657  12.013  66.638  1.00  0.00    -0.319 C  
HETATM   33  O   UNL     1     -11.798  11.338  67.644  1.00  0.00    -0.614 OA 
BRANCH  32  34
HETATM   34  O   UNL     1     -11.896  13.347  66.566  1.00  0.00    -0.356 OA 
BRANCH  34  35
HETATM   35  C   UNL     1     -11.051  14.104  67.446  1.00  0.00    -0.306 C  
HETATM   36  C   UNL     1      -9.692  14.180  66.748  1.00  0.00    -0.283 C  
BRANCH  35  37
HETATM   37  O   UNL     1     -11.469  15.462  67.587  1.00  0.00    -0.326 OA 
BRANCH  37  38
HETATM   38  C   UNL     1     -11.313  16.006  68.814  1.00  0.00    -0.380 C  
HETATM   39  O   UNL     1     -10.480  16.835  69.138  1.00  0.00    -0.307 OA 
BRANCH  38  40
HETATM   40  O   UNL     1     -12.272  15.475  69.596  1.00  0.00    -0.343 OA 
BRANCH  40  41
HETATM   41  C   UNL     1     -12.018  14.564  70.690  1.00  0.00    -0.319 C  
HETATM   42  C   UNL     1     -13.226  15.318  73.303  1.00  0.00    -0.593 C  
HETATM   43  C   UNL     1     -11.256  15.354  71.756  1.00  0.00    -0.380 C  
HETATM   44  C   UNL     1     -12.197  16.199  72.609  1.00  0.00    -0.625 C  
HETATM   45  C   UNL     1     -14.036  14.483  72.317  1.00  0.00    -0.594 C  
HETATM   46  C   UNL     1     -13.180  13.754  71.277  1.00  0.00    -0.331 C  
ENDBRANCH  40  41
ENDBRANCH  38  40
ENDBRANCH  37  38
ENDBRANCH  35  37
ENDBRANCH  34  35
ENDBRANCH  32  34
ENDBRANCH   8  32
ENDBRANCH   3   4
ENDBRANCH   2   3
TORSDOF 13
ENDMDL
MODEL      112
REMARK 921   NORMALIZED FREE ENERGY PREDICTED BY IDOCK:   -6.17 KCAL/MOL
REMARK 922        TOTAL FREE ENERGY PREDICTED BY IDOCK:  -13.31 KCAL/MOL
REMARK 923 INTER-LIGAND FREE ENERGY PREDICTED BY IDOCK:   -9.87 KCAL/MOL
REMARK 924 INTRA-LIGAND FREE ENERGY PREDICTED BY IDOCK:   -3.44 KCAL/MOL
REMARK 927      BINDING AFFINITY PREDICTED BY RF-SCORE:    0.00 PKD
ROOT
HETATM    1  C   UNL     1     -12.872  11.928  63.457  1.00  0.00    -0.435 C  
HETATM    2  C   UNL     1     -11.389  12.117  63.189  1.00  0.00    -0.181 C  
ENDROOT
BRANCH   2   3
HETATM    3  O   UNL     1     -10.669  11.315  64.131  1.00  0.00    -0.348 OA 
BRANCH   3   4
HETATM    4  C   UNL     1     -10.200  11.978  65.185  1.00  0.00    -0.276 A  
HETATM    5  N   UNL     1     -10.701  13.103  65.640  1.00  0.00    -0.277 NA 
HETATM    6  C   UNL     1      -9.920  13.426  66.711  1.00  0.00    -0.264 A  
HETATM    7  C   UNL     1      -8.947  12.442  66.977  1.00  0.00    -0.209 A  
HETATM    8  C   UNL     1      -8.129  12.559  68.128  1.00  0.00    -0.167 A  
HETATM    9  N   UNL     1      -9.089  11.580  65.897  1.00  0.00    -0.203 NA 
HETATM   10  C   UNL     1      -9.170  14.738  68.592  1.00  0.00    -0.194 A  
HETATM   11  C   UNL     1     -10.011  14.588  67.497  1.00  0.00    -0.224 A  
HETATM   12  C   UNL     1      -8.273  13.727  68.912  1.00  0.00     0.089 A  
BRANCH   9  13
HETATM   13  C   UNL     1      -8.186  10.544  65.395  1.00  0.00    -0.152 C  
BRANCH  13  14
HETATM   14  C   UNL     1      -8.697   9.145  65.631  1.00  0.00    -0.203 A  
HETATM   15  C   UNL     1      -8.406   6.743  65.581  1.00  0.00    -0.147 A  
HETATM   16  C   UNL     1      -9.291   6.592  66.662  1.00  0.00    -0.192 A  
HETATM   17  C   UNL     1      -9.818   8.960  66.443  1.00  0.00    -0.353 A  
HETATM   18  C   UNL     1      -8.063   8.018  65.111  1.00  0.00    -0.143 A  
HETATM   19  C   UNL     1     -10.097   7.700  66.970  1.00  0.00    -0.338 A  
BRANCH  16  20
HETATM   20  C   UNL     1      -9.280   5.390  67.548  1.00  0.00    -0.114 A  
HETATM   21  C   UNL     1      -8.862   5.528  68.894  1.00  0.00    -0.110 A  
HETATM   22  C   UNL     1      -9.566   4.068  67.093  1.00  0.00    -0.231 A  
HETATM   23  C   UNL     1      -8.746   4.434  69.758  1.00  0.00    -0.111 A  
HETATM   24  C   UNL     1      -9.504   2.989  68.004  1.00  0.00    -0.217 A  
HETATM   25  C   UNL     1      -9.088   3.166  69.320  1.00  0.00    -0.201 A  
BRANCH  22  26
HETATM   26  C   UNL     1      -9.878   3.687  65.708  1.00  0.00    -0.032 A  
HETATM   27  N   UNL     1     -10.867   4.149  64.962  1.00  0.00    -0.659 NA 
HETATM   28  H   UNL     1     -11.558   4.848  65.233  1.00  0.00     0.000 HD 
HETATM   29  N   UNL     1     -10.784   3.505  63.752  1.00  0.00    -0.273 NA 
HETATM   30  N   UNL     1      -9.781   2.641  63.744  1.00  0.00    -0.130 NA 
HETATM   31  N   UNL     1      -9.248   2.718  64.971  1.00  0.00    -0.147 NA 
ENDBRANCH  22  26
ENDBRANCH  16  20
ENDBRANCH  13  14
ENDBRANCH   9  13
BRANCH   8  32
HETATM   32  C   UNL     1      -7.031  11.631  68.489  1.00  0.00    -0.085 C  
HETATM   33  O   UNL     1      -5.966  11.592  67.896  1.00  0.00    -0.043 OA 
BRANCH  32  34
HETATM   34  O   UNL     1      -7.277  11.014  69.673  1.00  0.00    -0.129 OA 
BRANCH  34  35
HETATM   35  C   UNL     1      -8.173   9.901  69.536  1.00  0.00    -0.158 C  
HETATM   36  C   UNL     1      -7.294   8.710  69.150  1.00  0.00    -0.076 C  
BRANCH  35  37
HETATM   37  O   UNL     1      -8.783   9.523  70.771  1.00  0.00    -0.204 OA 
BRANCH  37  38
HETATM   38  C   UNL     1     -10.064   9.099  70.694  1.00  0.00    -0.247 C  
HETATM   39  O   UNL     1     -10.439   7.979  70.394  1.00  0.00    -0.210 OA 
BRANCH  38  40
HETATM   40  O   UNL     1     -10.838  10.145  71.038  1.00  0.00    -0.240 OA 
BRANCH  40  41
HETATM   41  C   UNL     1     -11.895  10.684  70.211  1.00  0.00    -0.342 C  
HETATM   42  C   UNL     1     -13.180  13.172  71.219  1.00  0.00    -0.202 C  
HETATM   43  C   UNL     1     -13.169  10.672  71.059  1.00  0.00    -0.267 C  
HETATM   44  C   UNL     1     -13.226  11.868  72.004  1.00  0.00    -0.461 C  
HETATM   45  C   UNL     1     -11.941  13.274  70.334  1.00  0.00    -0.350 C  
HETATM   46  C   UNL     1     -11.679  12.021  69.494  1.00  0.00    -0.408 C  
ENDBRANCH  40  41
ENDBRANCH  38  40
ENDBRANCH  37  38
ENDBRANCH  35  37
ENDBRANCH  34  35
ENDBRANCH  32  34
ENDBRANCH   8  32
ENDBRANCH   3   4
ENDBRANCH   2   3
TORSDOF 13
ENDMDL
MODEL      113
REMARK 921   NORMALIZED FREE ENERGY PREDICTED BY IDOCK:   -6.16 KCAL/MOL
REMARK 922        TOTAL FREE ENERGY PREDICTED BY IDOCK:  -13.29 KCAL/MOL
REMARK 923 INTER-LIGAND FREE ENERGY PREDICTED BY IDOCK:   -9.64 KCAL/MOL
REMARK 924 INTRA-LIGAND FREE ENERGY PREDICTED BY IDOCK:   -3.66 KCAL/MOL
REMARK 927      BINDING AFFINITY PREDICTED BY RF-SCORE:    0.00 PKD
ROOT
HETATM    1  C   UNL     1     -12.410  13.513  65.237  1.00  0.00    -0.506 C  
HETATM    2  C   UNL     1     -11.980  12.977  66.591  1.00  0.00    -0.387 C  
ENDROOT
BRANCH   2   3
HETATM    3  O   UNL     1     -11.337  11.716  66.378  1.00  0.00    -0.323 OA 
BRANCH   3   4
HETATM    4  C   UNL     1     -10.156  11.584  66.977  1.00  0.00    -0.210 A  
HETATM    5  N   UNL     1      -9.119  12.359  66.758  1.00  0.00    -0.210 NA 
HETATM    6  C   UNL     1      -8.136  11.867  67.566  1.00  0.00    -0.156 A  
HETATM    7  C   UNL     1      -8.589  10.797  68.364  1.00  0.00    -0.141 A  
HETATM    8  C   UNL     1      -7.732  10.245  69.347  1.00  0.00    -0.146 A  
HETATM    9  N   UNL     1      -9.867  10.573  67.868  1.00  0.00    -0.158 NA 
HETATM   10  C   UNL     1      -5.942  11.738  68.561  1.00  0.00    -0.049 A  
HETATM   11  C   UNL     1      -6.807  12.315  67.640  1.00  0.00    -0.124 A  
HETATM   12  C   UNL     1      -6.411  10.746  69.414  1.00  0.00    -0.076 A  
BRANCH   9  13
HETATM   13  C   UNL     1     -10.750   9.417  68.029  1.00  0.00    -0.190 C  
BRANCH  13  14
HETATM   14  C   UNL     1     -10.360   8.246  67.162  1.00  0.00    -0.387 A  
HETATM   15  C   UNL     1      -8.763   7.075  65.772  1.00  0.00    -0.116 A  
HETATM   16  C   UNL     1      -9.329   5.838  66.127  1.00  0.00    -0.160 A  
HETATM   17  C   UNL     1     -11.119   7.076  67.221  1.00  0.00    -0.302 A  
HETATM   18  C   UNL     1      -9.236   8.266  66.337  1.00  0.00    -0.247 A  
HETATM   19  C   UNL     1     -10.597   5.881  66.728  1.00  0.00    -0.368 A  
BRANCH  16  20
HETATM   20  C   UNL     1      -8.577   4.552  66.028  1.00  0.00    -0.114 A  
HETATM   21  C   UNL     1      -8.279   4.023  64.748  1.00  0.00    -0.097 A  
HETATM   22  C   UNL     1      -8.221   3.752  67.155  1.00  0.00    -0.095 A  
HETATM   23  C   UNL     1      -7.653   2.785  64.576  1.00  0.00    -0.076 A  
HETATM   24  C   UNL     1      -7.531   2.535  66.956  1.00  0.00    -0.065 A  
HETATM   25  C   UNL     1      -7.258   2.049  65.681  1.00  0.00    -0.056 A  
BRANCH  22  26
HETATM   26  C   UNL     1      -8.561   4.045  68.554  1.00  0.00    -0.094 A  
HETATM   27  N   UNL     1      -7.971   4.924  69.346  1.00  0.00    -0.074 NA 
HETATM   28  H   UNL     1      -7.196   5.540  69.101  1.00  0.00     0.000 HD 
HETATM   29  N   UNL     1      -8.604   4.849  70.563  1.00  0.00    -0.105 NA 
HETATM   30  N   UNL     1      -9.553   3.926  70.545  1.00  0.00    -0.182 NA 
HETATM   31  N   UNL     1      -9.497   3.395  69.316  1.00  0.00    -0.171 NA 
ENDBRANCH  22  26
ENDBRANCH  16  20
ENDBRANCH  13  14
ENDBRANCH   9  13
BRANCH   8  32
HETATM   32  C   UNL     1      -8.061   9.084  70.207  1.00  0.00    -0.136 C  
HETATM   33  O   UNL     1      -8.273   7.966  69.769  1.00  0.00    -0.117 OA 
BRANCH  32  34
HETATM   34  O   UNL     1      -7.871   9.373  71.520  1.00  0.00    -0.308 OA 
BRANCH  34  35
HETATM   35  C   UNL     1      -7.837   8.196  72.342  1.00  0.00    -0.126 C  
HETATM   36  C   UNL     1      -6.477   8.221  73.041  1.00  0.00    -0.105 C  
BRANCH  35  37
HETATM   37  O   UNL     1      -8.796   8.230  73.400  1.00  0.00    -0.247 OA 
BRANCH  37  38
HETATM   38  C   UNL     1      -9.700   7.225  73.412  1.00  0.00    -0.251 C  
HETATM   39  O   UNL     1      -9.472   6.049  73.633  1.00  0.00    -0.137 OA 
BRANCH  38  40
HETATM   40  O   UNL     1     -10.899   7.784  73.162  1.00  0.00    -0.389 OA 
BRANCH  40  41
HETATM   41  C   UNL     1     -11.371   8.142  71.843  1.00  0.00    -0.296 C  
HETATM   42  C   UNL     1     -14.323   8.390  71.552  1.00  0.00    -0.499 C  
HETATM   43  C   UNL     1     -12.255   6.989  71.361  1.00  0.00    -0.407 C  
HETATM   44  C   UNL     1     -13.661   7.077  71.945  1.00  0.00    -0.244 C  
HETATM   45  C   UNL     1     -13.508   9.604  71.987  1.00  0.00    -0.514 C  
HETATM   46  C   UNL     1     -12.022   9.512  71.625  1.00  0.00    -0.474 C  
ENDBRANCH  40  41
ENDBRANCH  38  40
ENDBRANCH  37  38
ENDBRANCH  35  37
ENDBRANCH  34  35
ENDBRANCH  32  34
ENDBRANCH   8  32
ENDBRANCH   3   4
ENDBRANCH   2   3
TORSDOF 13
ENDMDL
MODEL      114
REMARK 921   NORMALIZED FREE ENERGY PREDICTED BY IDOCK:   -6.14 KCAL/MOL
REMARK 922        TOTAL FREE ENERGY PREDICTED BY IDOCK:  -13.25 KCAL/MOL
REMARK 923 INTER-LIGAND FREE ENERGY PREDICTED BY IDOCK:  -10.64 KCAL/MOL
REMARK 924 INTRA-LIGAND FREE ENERGY PREDICTED BY IDOCK:   -2.61 KCAL/MOL
REMARK 927      BINDING AFFINITY PREDICTED BY RF-SCORE:    0.00 PKD
ROOT
HETATM    1  C   UNL     1     -12.914  14.514  70.278  1.00  0.00    -0.148 C  
HETATM    2  C   UNL     1     -12.158  14.191  69.001  1.00  0.00    -0.313 C  
ENDROOT
BRANCH   2   3
HETATM    3  O   UNL     1     -12.212  12.774  68.808  1.00  0.00    -0.188 OA 
BRANCH   3   4
HETATM    4  C   UNL     1     -11.540  12.328  67.750  1.00  0.00    -0.351 A  
HETATM    5  N   UNL     1     -12.036  12.236  66.538  1.00  0.00    -0.626 NA 
HETATM    6  C   UNL     1     -11.018  11.733  65.780  1.00  0.00    -0.301 A  
HETATM    7  C   UNL     1      -9.832  11.571  66.523  1.00  0.00    -0.202 A  
HETATM    8  C   UNL     1      -8.642  11.173  65.864  1.00  0.00    -0.135 A  
HETATM    9  N   UNL     1     -10.245  11.860  67.817  1.00  0.00    -0.196 NA 
HETATM   10  C   UNL     1      -9.928  10.936  63.781  1.00  0.00    -0.408 A  
HETATM   11  C   UNL     1     -11.076  11.386  64.420  1.00  0.00    -0.329 A  
HETATM   12  C   UNL     1      -8.733  10.864  64.487  1.00  0.00    -0.026 A  
BRANCH   9  13
HETATM   13  C   UNL     1      -9.599  11.572  69.098  1.00  0.00     0.176 C  
BRANCH  13  14
HETATM   14  C   UNL     1      -9.496  10.097  69.393  1.00  0.00    -0.240 A  
HETATM   15  C   UNL     1      -8.518   8.236  70.592  1.00  0.00    -0.131 A  
HETATM   16  C   UNL     1      -9.714   7.508  70.480  1.00  0.00    -0.179 A  
HETATM   17  C   UNL     1     -10.528   9.250  68.985  1.00  0.00    -0.233 A  
HETATM   18  C   UNL     1      -8.432   9.548  70.107  1.00  0.00    -0.227 A  
HETATM   19  C   UNL     1     -10.646   7.976  69.541  1.00  0.00    -0.216 A  
BRANCH  16  20
HETATM   20  C   UNL     1     -10.064   6.391  71.408  1.00  0.00    -0.214 A  
HETATM   21  C   UNL     1      -9.221   5.255  71.470  1.00  0.00    -0.173 A  
HETATM   22  C   UNL     1     -11.269   6.343  72.173  1.00  0.00    -0.319 A  
HETATM   23  C   UNL     1      -9.527   4.136  72.252  1.00  0.00    -0.186 A  
HETATM   24  C   UNL     1     -11.522   5.229  73.004  1.00  0.00    -0.340 A  
HETATM   25  C   UNL     1     -10.668   4.131  73.036  1.00  0.00    -0.256 A  
BRANCH  22  26
HETATM   26  C   UNL     1     -12.342   7.346  72.142  1.00  0.00    -0.204 A  
HETATM   27  N   UNL     1     -12.386   8.481  72.818  1.00  0.00    -0.520 NA 
HETATM   28  H   UNL     1     -11.674   8.838  73.456  1.00  0.00     0.000 HD 
HETATM   29  N   UNL     1     -13.575   9.089  72.496  1.00  0.00    -0.469 NA 
HETATM   30  N   UNL     1     -14.274   8.342  71.656  1.00  0.00    -0.436 NA 
HETATM   31  N   UNL     1     -13.533   7.241  71.472  1.00  0.00    -0.391 NA 
ENDBRANCH  22  26
ENDBRANCH  16  20
ENDBRANCH  13  14
ENDBRANCH   9  13
BRANCH   8  32
HETATM   32  C   UNL     1      -7.346  10.908  66.534  1.00  0.00    -0.142 C  
HETATM   33  O   UNL     1      -6.995   9.798  66.896  1.00  0.00    -0.086 OA 
BRANCH  32  34
HETATM   34  O   UNL     1      -6.534  11.994  66.482  1.00  0.00    -0.013 OA 
BRANCH  34  35
HETATM   35  C   UNL     1      -6.660  12.831  67.642  1.00  0.00    -0.150 C  
HETATM   36  C   UNL     1      -5.585  12.349  68.617  1.00  0.00    -0.054 C  
BRANCH  35  37
HETATM   37  O   UNL     1      -6.336  14.196  67.381  1.00  0.00    -0.324 OA 
BRANCH  37  38
HETATM   38  C   UNL     1      -7.383  15.042  67.259  1.00  0.00    -0.161 C  
HETATM   39  O   UNL     1      -8.563  14.737  67.254  1.00  0.00    -0.185 OA 
BRANCH  38  40
HETATM   40  O   UNL     1      -6.868  16.283  67.174  1.00  0.00    -0.176 OA 
BRANCH  40  41
HETATM   41  C   UNL     1      -7.657  17.483  67.008  1.00  0.00    -0.207 C  
HETATM   42  C   UNL     1      -6.427  19.989  68.040  1.00  0.00    -0.291 C  
HETATM   43  C   UNL     1      -7.937  18.026  68.412  1.00  0.00    -0.306 C  
HETATM   44  C   UNL     1      -6.752  18.817  68.955  1.00  0.00    -0.308 C  
HETATM   45  C   UNL     1      -6.138  19.546  66.609  1.00  0.00    -0.165 C  
HETATM   46  C   UNL     1      -7.175  18.571  66.043  1.00  0.00    -0.290 C  
ENDBRANCH  40  41
ENDBRANCH  38  40
ENDBRANCH  37  38
ENDBRANCH  35  37
ENDBRANCH  34  35
ENDBRANCH  32  34
ENDBRANCH   8  32
ENDBRANCH   3   4
ENDBRANCH   2   3
TORSDOF 13
ENDMDL
MODEL      115
REMARK 921   NORMALIZED FREE ENERGY PREDICTED BY IDOCK:   -6.10 KCAL/MOL
REMARK 922        TOTAL FREE ENERGY PREDICTED BY IDOCK:  -13.18 KCAL/MOL
REMARK 923 INTER-LIGAND FREE ENERGY PREDICTED BY IDOCK:   -9.86 KCAL/MOL
REMARK 924 INTRA-LIGAND FREE ENERGY PREDICTED BY IDOCK:   -3.32 KCAL/MOL
REMARK 927      BINDING AFFINITY PREDICTED BY RF-SCORE:    0.00 PKD
ROOT
HETATM    1  C   UNL     1     -13.238   7.335  71.549  1.00  0.00    -0.434 C  
HETATM    2  C   UNL     1     -12.208   8.362  71.113  1.00  0.00    -0.226 C  
ENDROOT
BRANCH   2   3
HETATM    3  O   UNL     1     -11.373   7.752  70.125  1.00  0.00    -0.225 OA 
BRANCH   3   4
HETATM    4  C   UNL     1     -10.175   8.313  69.982  1.00  0.00    -0.202 A  
HETATM    5  N   UNL     1      -9.251   8.344  70.913  1.00  0.00    -0.151 NA 
HETATM    6  C   UNL     1      -8.205   9.013  70.348  1.00  0.00    -0.151 A  
HETATM    7  C   UNL     1      -8.454   9.350  69.002  1.00  0.00    -0.129 A  
HETATM    8  C   UNL     1      -7.426   9.942  68.227  1.00  0.00    -0.080 A  
HETATM    9  N   UNL     1      -9.783   8.981  68.841  1.00  0.00    -0.160 NA 
HETATM   10  C   UNL     1      -6.007  10.002  70.235  1.00  0.00    -0.070 A  
HETATM   11  C   UNL     1      -6.997   9.366  70.973  1.00  0.00    -0.066 A  
HETATM   12  C   UNL     1      -6.213  10.252  68.884  1.00  0.00    -0.047 A  
BRANCH   9  13
HETATM   13  C   UNL     1     -10.743   9.349  67.799  1.00  0.00    -0.229 C  
BRANCH  13  14
HETATM   14  C   UNL     1     -11.185  10.788  67.881  1.00  0.00    -0.386 A  
HETATM   15  C   UNL     1     -11.259  12.924  69.015  1.00  0.00    -0.320 A  
HETATM   16  C   UNL     1     -11.374  13.596  67.786  1.00  0.00    -0.336 A  
HETATM   17  C   UNL     1     -11.649  11.421  66.726  1.00  0.00    -0.038 A  
HETATM   18  C   UNL     1     -11.102  11.532  69.056  1.00  0.00    -0.302 A  
HETATM   19  C   UNL     1     -11.720  12.813  66.674  1.00  0.00    -0.459 A  
BRANCH  16  20
HETATM   20  C   UNL     1     -10.997  15.031  67.618  1.00  0.00    -0.305 A  
HETATM   21  C   UNL     1     -10.284  15.428  66.460  1.00  0.00    -0.287 A  
HETATM   22  C   UNL     1     -11.220  16.031  68.613  1.00  0.00    -0.366 A  
HETATM   23  C   UNL     1      -9.826  16.735  66.273  1.00  0.00    -0.327 A  
HETATM   24  C   UNL     1     -10.803  17.360  68.370  1.00  0.00    -0.234 A  
HETATM   25  C   UNL     1     -10.104  17.709  67.219  1.00  0.00    -0.331 A  
BRANCH  22  26
HETATM   26  C   UNL     1     -11.810  15.803  69.939  1.00  0.00    -0.344 A  
HETATM   27  N   UNL     1     -13.097  15.729  70.232  1.00  0.00    -0.705 NA 
HETATM   28  H   UNL     1     -13.875  15.809  69.578  1.00  0.00     0.000 HD 
HETATM   29  N   UNL     1     -13.183  15.524  71.587  1.00  0.00    -0.468 NA 
HETATM   30  N   UNL     1     -11.980  15.494  72.138  1.00  0.00    -0.399 NA 
HETATM   31  N   UNL     1     -11.130  15.714  71.126  1.00  0.00    -0.337 NA 
ENDBRANCH  22  26
ENDBRANCH  16  20
ENDBRANCH  13  14
ENDBRANCH   9  13
BRANCH   8  32
HETATM   32  C   UNL     1      -7.575  10.399  66.825  1.00  0.00    -0.110 C  
HETATM   33  O   UNL     1      -8.076  11.468  66.520  1.00  0.00    -0.164 OA 
BRANCH  32  34
HETATM   34  O   UNL     1      -6.889   9.598  65.970  1.00  0.00    -0.084 OA 
BRANCH  34  35
HETATM   35  C   UNL     1      -7.692   8.521  65.464  1.00  0.00    -0.093 C  
HETATM   36  C   UNL     1      -7.474   8.521  63.950  1.00  0.00    -0.118 C  
BRANCH  35  37
HETATM   37  O   UNL     1      -7.241   7.238  65.901  1.00  0.00    -0.070 OA 
BRANCH  37  38
HETATM   38  C   UNL     1      -8.206   6.355  66.241  1.00  0.00    -0.118 C  
HETATM   39  O   UNL     1      -9.015   5.842  65.488  1.00  0.00    -0.139 OA 
BRANCH  38  40
HETATM   40  O   UNL     1      -8.077   6.135  67.563  1.00  0.00    -0.108 OA 
BRANCH  40  41
HETATM   41  C   UNL     1      -7.946   4.825  68.161  1.00  0.00    -0.085 C  
HETATM   42  C   UNL     1      -8.178   4.733  71.127  1.00  0.00    -0.104 C  
HETATM   43  C   UNL     1      -6.730   4.882  69.089  1.00  0.00    -0.049 C  
HETATM   44  C   UNL     1      -7.076   5.519  70.430  1.00  0.00    -0.062 C  
HETATM   45  C   UNL     1      -9.437   4.616  70.273  1.00  0.00    -0.240 C  
HETATM   46  C   UNL     1      -9.165   4.180  68.830  1.00  0.00    -0.208 C  
ENDBRANCH  40  41
ENDBRANCH  38  40
ENDBRANCH  37  38
ENDBRANCH  35  37
ENDBRANCH  34  35
ENDBRANCH  32  34
ENDBRANCH   8  32
ENDBRANCH   3   4
ENDBRANCH   2   3
TORSDOF 13
ENDMDL
MODEL      116
REMARK 921   NORMALIZED FREE ENERGY PREDICTED BY IDOCK:   -6.09 KCAL/MOL
REMARK 922        TOTAL FREE ENERGY PREDICTED BY IDOCK:  -13.16 KCAL/MOL
REMARK 923 INTER-LIGAND FREE ENERGY PREDICTED BY IDOCK:   -9.55 KCAL/MOL
REMARK 924 INTRA-LIGAND FREE ENERGY PREDICTED BY IDOCK:   -3.62 KCAL/MOL
REMARK 927      BINDING AFFINITY PREDICTED BY RF-SCORE:    0.00 PKD
ROOT
HETATM    1  C   UNL     1      -5.564  12.751  69.727  1.00  0.00    -0.101 C  
HETATM    2  C   UNL     1      -5.625  11.586  70.700  1.00  0.00    -0.137 C  
ENDROOT
BRANCH   2   3
HETATM    3  O   UNL     1      -6.821  10.849  70.424  1.00  0.00    -0.257 OA 
BRANCH   3   4
HETATM    4  C   UNL     1      -6.786   9.571  70.794  1.00  0.00    -0.103 A  
HETATM    5  N   UNL     1      -6.600   9.157  72.025  1.00  0.00    -0.290 NA 
HETATM    6  C   UNL     1      -6.632   7.795  71.946  1.00  0.00    -0.047 A  
HETATM    7  C   UNL     1      -6.914   7.345  70.641  1.00  0.00    -0.052 A  
HETATM    8  C   UNL     1      -7.102   5.961  70.402  1.00  0.00    -0.070 A  
HETATM    9  N   UNL     1      -6.893   8.523  69.905  1.00  0.00    -0.042 NA 
HETATM   10  C   UNL     1      -6.533   5.524  72.755  1.00  0.00    -0.065 A  
HETATM   11  C   UNL     1      -6.409   6.887  72.994  1.00  0.00    -0.061 A  
HETATM   12  C   UNL     1      -6.903   5.081  71.491  1.00  0.00    -0.048 A  
BRANCH   9  13
HETATM   13  C   UNL     1      -6.791   8.729  68.460  1.00  0.00    -0.064 C  
BRANCH  13  14
HETATM   14  C   UNL     1      -7.829   9.681  67.921  1.00  0.00    -0.087 A  
HETATM   15  C   UNL     1     -10.042  10.658  67.972  1.00  0.00    -0.181 A  
HETATM   16  C   UNL     1      -9.547  11.860  67.436  1.00  0.00    -0.176 A  
HETATM   17  C   UNL     1      -7.425  10.718  67.078  1.00  0.00    -0.114 A  
HETATM   18  C   UNL     1      -9.175   9.599  68.271  1.00  0.00    -0.131 A  
HETATM   19  C   UNL     1      -8.269  11.806  66.858  1.00  0.00    -0.166 A  
BRANCH  16  20
HETATM   20  C   UNL     1     -10.253  13.164  67.603  1.00  0.00    -0.224 A  
HETATM   21  C   UNL     1     -10.100  13.883  68.814  1.00  0.00    -0.161 A  
HETATM   22  C   UNL     1     -11.171  13.697  66.649  1.00  0.00    -0.324 A  
HETATM   23  C   UNL     1     -10.794  15.068  69.075  1.00  0.00    -0.242 A  
HETATM   24  C   UNL     1     -11.811  14.930  66.910  1.00  0.00    -0.202 A  
HETATM   25  C   UNL     1     -11.634  15.605  68.114  1.00  0.00    -0.290 A  
BRANCH  22  26
HETATM   26  C   UNL     1     -11.581  13.044  65.398  1.00  0.00    -0.341 A  
HETATM   27  N   UNL     1     -12.807  12.691  65.052  1.00  0.00    -0.816 NA 
HETATM   28  H   UNL     1     -13.657  12.830  65.598  1.00  0.00     0.000 HD 
HETATM   29  N   UNL     1     -12.716  12.103  63.814  1.00  0.00    -0.719 NA 
HETATM   30  N   UNL     1     -11.459  12.063  63.402  1.00  0.00    -0.417 NA 
HETATM   31  N   UNL     1     -10.749  12.604  64.402  1.00  0.00    -0.334 NA 
ENDBRANCH  22  26
ENDBRANCH  16  20
ENDBRANCH  13  14
ENDBRANCH   9  13
BRANCH   8  32
HETATM   32  C   UNL     1      -7.343   5.351  69.073  1.00  0.00    -0.070 C  
HETATM   33  O   UNL     1      -6.629   5.555  68.105  1.00  0.00    -0.046 OA 
BRANCH  32  34
HETATM   34  O   UNL     1      -8.297   4.387  69.137  1.00  0.00    -0.077 OA 
BRANCH  34  35
HETATM   35  C   UNL     1      -9.212   4.446  68.033  1.00  0.00    -0.136 C  
HETATM   36  C   UNL     1      -9.419   2.996  67.593  1.00  0.00    -0.187 C  
BRANCH  35  37
HETATM   37  O   UNL     1     -10.510   4.905  68.411  1.00  0.00    -0.027 OA 
BRANCH  37  38
HETATM   38  C   UNL     1     -10.789   6.196  68.124  1.00  0.00    -0.306 C  
HETATM   39  O   UNL     1     -11.261   6.621  67.084  1.00  0.00    -0.392 OA 
BRANCH  38  40
HETATM   40  O   UNL     1     -10.470   6.911  69.219  1.00  0.00    -0.197 OA 
BRANCH  40  41
HETATM   41  C   UNL     1     -11.409   7.278  70.255  1.00  0.00    -0.238 C  
HETATM   42  C   UNL     1     -10.309   7.381  73.018  1.00  0.00    -0.356 C  
HETATM   43  C   UNL     1     -11.487   6.094  71.221  1.00  0.00    -0.311 C  
HETATM   44  C   UNL     1     -10.322   6.094  72.205  1.00  0.00    -0.227 C  
HETATM   45  C   UNL     1     -10.238   8.624  72.136  1.00  0.00    -0.394 C  
HETATM   46  C   UNL     1     -11.242   8.618  70.980  1.00  0.00    -0.321 C  
ENDBRANCH  40  41
ENDBRANCH  38  40
ENDBRANCH  37  38
ENDBRANCH  35  37
ENDBRANCH  34  35
ENDBRANCH  32  34
ENDBRANCH   8  32
ENDBRANCH   3   4
ENDBRANCH   2   3
TORSDOF 13
ENDMDL
MODEL      117
REMARK 921   NORMALIZED FREE ENERGY PREDICTED BY IDOCK:   -6.09 KCAL/MOL
REMARK 922        TOTAL FREE ENERGY PREDICTED BY IDOCK:  -13.16 KCAL/MOL
REMARK 923 INTER-LIGAND FREE ENERGY PREDICTED BY IDOCK:   -8.79 KCAL/MOL
REMARK 924 INTRA-LIGAND FREE ENERGY PREDICTED BY IDOCK:   -4.37 KCAL/MOL
REMARK 927      BINDING AFFINITY PREDICTED BY RF-SCORE:    0.00 PKD
ROOT
HETATM    1  C   UNL     1      -6.323   2.942  67.454  1.00  0.00    -0.036 C  
HETATM    2  C   UNL     1      -7.216   2.493  68.596  1.00  0.00    -0.047 C  
ENDROOT
BRANCH   2   3
HETATM    3  O   UNL     1      -8.514   3.060  68.386  1.00  0.00    -0.074 OA 
BRANCH   3   4
HETATM    4  C   UNL     1      -9.097   3.540  69.481  1.00  0.00    -0.133 A  
HETATM    5  N   UNL     1      -8.938   3.047  70.687  1.00  0.00    -0.086 NA 
HETATM    6  C   UNL     1      -9.713   3.830  71.492  1.00  0.00    -0.171 A  
HETATM    7  C   UNL     1     -10.320   4.885  70.782  1.00  0.00    -0.158 A  
HETATM    8  C   UNL     1     -11.064   5.866  71.484  1.00  0.00    -0.314 A  
HETATM    9  N   UNL     1      -9.987   4.592  69.465  1.00  0.00    -0.216 NA 
HETATM   10  C   UNL     1     -10.712   4.585  73.554  1.00  0.00    -0.333 A  
HETATM   11  C   UNL     1      -9.934   3.661  72.869  1.00  0.00    -0.210 A  
HETATM   12  C   UNL     1     -11.236   5.679  72.875  1.00  0.00    -0.338 A  
BRANCH   9  13
HETATM   13  C   UNL     1     -10.559   5.094  68.215  1.00  0.00     0.076 C  
BRANCH  13  14
HETATM   14  C   UNL     1      -9.795   6.258  67.637  1.00  0.00    -0.135 A  
HETATM   15  C   UNL     1      -9.673   8.557  66.892  1.00  0.00    -0.286 A  
HETATM   16  C   UNL     1      -8.309   8.616  67.226  1.00  0.00    -0.108 A  
HETATM   17  C   UNL     1      -8.399   6.215  67.628  1.00  0.00    -0.112 A  
HETATM   18  C   UNL     1     -10.425   7.405  67.157  1.00  0.00    -0.403 A  
HETATM   19  C   UNL     1      -7.666   7.387  67.446  1.00  0.00    -0.114 A  
BRANCH  16  20
HETATM   20  C   UNL     1      -7.603   9.903  67.493  1.00  0.00    -0.091 A  
HETATM   21  C   UNL     1      -7.517  10.381  68.824  1.00  0.00    -0.093 A  
HETATM   22  C   UNL     1      -7.089  10.754  66.468  1.00  0.00    -0.138 A  
HETATM   23  C   UNL     1      -6.945  11.617  69.141  1.00  0.00    -0.105 A  
HETATM   24  C   UNL     1      -6.457  11.968  66.822  1.00  0.00     0.030 A  
HETATM   25  C   UNL     1      -6.394  12.402  68.142  1.00  0.00    -0.065 A  
BRANCH  22  26
HETATM   26  C   UNL     1      -7.201  10.516  65.023  1.00  0.00     0.005 A  
HETATM   27  N   UNL     1      -6.208  10.366  64.164  1.00  0.00    -0.298 NA 
HETATM   28  H   UNL     1      -5.211  10.382  64.378  1.00  0.00     0.000 HD 
HETATM   29  N   UNL     1      -6.777  10.184  62.927  1.00  0.00    -0.129 NA 
HETATM   30  N   UNL     1      -8.097  10.243  63.001  1.00  0.00    -0.154 NA 
HETATM   31  N   UNL     1      -8.360  10.495  64.291  1.00  0.00    -0.135 NA 
ENDBRANCH  22  26
ENDBRANCH  16  20
ENDBRANCH  13  14
ENDBRANCH   9  13
BRANCH   8  32
HETATM   32  C   UNL     1     -11.801   6.987  70.854  1.00  0.00    -0.356 C  
HETATM   33  O   UNL     1     -12.985   7.202  71.050  1.00  0.00    -0.325 OA 
BRANCH  32  34
HETATM   34  O   UNL     1     -10.953   7.849  70.236  1.00  0.00    -0.252 OA 
BRANCH  34  35
HETATM   35  C   UNL     1     -10.774   9.067  70.974  1.00  0.00    -0.269 C  
HETATM   36  C   UNL     1      -9.342   9.019  71.508  1.00  0.00    -0.294 C  
BRANCH  35  37
HETATM   37  O   UNL     1     -10.820  10.230  70.146  1.00  0.00    -0.281 OA 
BRANCH  37  38
HETATM   38  C   UNL     1     -11.925  11.000  70.266  1.00  0.00    -0.365 C  
HETATM   39  O   UNL     1     -13.047  10.616  70.549  1.00  0.00    -0.295 OA 
BRANCH  38  40
HETATM   40  O   UNL     1     -11.537  12.268  70.038  1.00  0.00    -0.260 OA 
BRANCH  40  41
HETATM   41  C   UNL     1     -11.894  13.031  68.862  1.00  0.00    -0.316 C  
HETATM   42  C   UNL     1      -9.645  13.711  67.035  1.00  0.00    -0.251 C  
HETATM   43  C   UNL     1     -11.131  14.355  68.946  1.00  0.00    -0.277 C  
HETATM   44  C   UNL     1      -9.689  14.204  68.475  1.00  0.00    -0.219 C  
HETATM   45  C   UNL     1     -10.389  12.392  66.850  1.00  0.00    -0.240 C  
HETATM   46  C   UNL     1     -11.784  12.376  67.481  1.00  0.00    -0.425 C  
ENDBRANCH  40  41
ENDBRANCH  38  40
ENDBRANCH  37  38
ENDBRANCH  35  37
ENDBRANCH  34  35
ENDBRANCH  32  34
ENDBRANCH   8  32
ENDBRANCH   3   4
ENDBRANCH   2   3
TORSDOF 13
ENDMDL
MODEL      118
REMARK 921   NORMALIZED FREE ENERGY PREDICTED BY IDOCK:   -6.08 KCAL/MOL
REMARK 922        TOTAL FREE ENERGY PREDICTED BY IDOCK:  -13.16 KCAL/MOL
REMARK 923 INTER-LIGAND FREE ENERGY PREDICTED BY IDOCK:  -11.35 KCAL/MOL
REMARK 924 INTRA-LIGAND FREE ENERGY PREDICTED BY IDOCK:   -1.81 KCAL/MOL
REMARK 927      BINDING AFFINITY PREDICTED BY RF-SCORE:    0.00 PKD
ROOT
HETATM    1  C   UNL     1      -5.874   2.152  71.442  1.00  0.00    -0.013 C  
HETATM    2  C   UNL     1      -7.255   2.221  70.816  1.00  0.00    -0.033 C  
ENDROOT
BRANCH   2   3
HETATM    3  O   UNL     1      -7.462   3.563  70.361  1.00  0.00    -0.041 OA 
BRANCH   3   4
HETATM    4  C   UNL     1      -8.170   4.329  71.187  1.00  0.00    -0.077 A  
HETATM    5  N   UNL     1      -7.880   4.528  72.452  1.00  0.00    -0.088 NA 
HETATM    6  C   UNL     1      -8.859   5.360  72.910  1.00  0.00    -0.121 A  
HETATM    7  C   UNL     1      -9.747   5.750  71.888  1.00  0.00    -0.159 A  
HETATM    8  C   UNL     1     -10.754   6.709  72.162  1.00  0.00    -0.246 A  
HETATM    9  N   UNL     1      -9.333   4.970  70.816  1.00  0.00    -0.147 NA 
HETATM   10  C   UNL     1     -10.052   6.705  74.520  1.00  0.00    -0.276 A  
HETATM   11  C   UNL     1      -9.030   5.811  74.230  1.00  0.00    -0.123 A  
HETATM   12  C   UNL     1     -10.872   7.164  73.496  1.00  0.00    -0.296 A  
BRANCH   9  13
HETATM   13  C   UNL     1     -10.019   4.649  69.564  1.00  0.00    -0.196 C  
BRANCH  13  14
HETATM   14  C   UNL     1      -9.870   5.721  68.513  1.00  0.00    -0.177 A  
HETATM   15  C   UNL     1     -10.754   7.041  66.688  1.00  0.00    -0.133 A  
HETATM   16  C   UNL     1      -9.911   8.113  67.028  1.00  0.00    -0.329 A  
HETATM   17  C   UNL     1      -8.814   6.628  68.616  1.00  0.00    -0.122 A  
HETATM   18  C   UNL     1     -10.777   5.876  67.467  1.00  0.00    -0.359 A  
HETATM   19  C   UNL     1      -8.847   7.822  67.896  1.00  0.00    -0.123 A  
BRANCH  16  20
HETATM   20  C   UNL     1     -10.204   9.522  66.628  1.00  0.00    -0.310 A  
HETATM   21  C   UNL     1     -11.025  10.320  67.462  1.00  0.00    -0.344 A  
HETATM   22  C   UNL     1      -9.790  10.097  65.389  1.00  0.00    -0.375 A  
HETATM   23  C   UNL     1     -11.410  11.618  67.113  1.00  0.00    -0.373 A  
HETATM   24  C   UNL     1     -10.139  11.434  65.091  1.00  0.00    -0.319 A  
HETATM   25  C   UNL     1     -10.949  12.185  65.936  1.00  0.00    -0.332 A  
BRANCH  22  26
HETATM   26  C   UNL     1      -9.057   9.399  64.324  1.00  0.00    -0.106 A  
HETATM   27  N   UNL     1      -9.332   9.414  63.031  1.00  0.00    -0.511 NA 
HETATM   28  H   UNL     1     -10.091   9.922  62.576  1.00  0.00     0.000 HD 
HETATM   29  N   UNL     1      -8.400   8.614  62.418  1.00  0.00    -0.195 NA 
HETATM   30  N   UNL     1      -7.572   8.087  63.306  1.00  0.00    -0.122 NA 
HETATM   31  N   UNL     1      -8.006   8.536  64.492  1.00  0.00    -0.138 NA 
ENDBRANCH  22  26
ENDBRANCH  16  20
ENDBRANCH  13  14
ENDBRANCH   9  13
BRANCH   8  32
HETATM   32  C   UNL     1     -11.786   7.159  71.198  1.00  0.00    -0.313 C  
HETATM   33  O   UNL     1     -12.938   6.760  71.218  1.00  0.00    -0.301 OA 
BRANCH  32  34
HETATM   34  O   UNL     1     -11.348   8.213  70.463  1.00  0.00    -0.268 OA 
BRANCH  34  35
HETATM   35  C   UNL     1     -10.810   9.264  71.278  1.00  0.00    -0.347 C  
HETATM   36  C   UNL     1     -10.090  10.207  70.311  1.00  0.00    -0.131 C  
BRANCH  35  37
HETATM   37  O   UNL     1     -11.821  10.066  71.890  1.00  0.00    -0.239 OA 
BRANCH  37  38
HETATM   38  C   UNL     1     -12.488  10.909  71.070  1.00  0.00    -0.411 C  
HETATM   39  O   UNL     1     -13.154  10.597  70.099  1.00  0.00    -0.163 OA 
BRANCH  38  40
HETATM   40  O   UNL     1     -12.292  12.150  71.553  1.00  0.00    -0.112 OA 
BRANCH  40  41
HETATM   41  C   UNL     1     -13.022  13.319  71.114  1.00  0.00    -0.216 C  
HETATM   42  C   UNL     1     -12.431  15.837  72.586  1.00  0.00    -0.546 C  
HETATM   43  C   UNL     1     -13.854  13.795  72.307  1.00  0.00    -0.679 C  
HETATM   44  C   UNL     1     -13.019  14.617  73.282  1.00  0.00    -0.569 C  
HETATM   45  C   UNL     1     -11.585  15.462  71.373  1.00  0.00    -0.461 C  
HETATM   46  C   UNL     1     -12.265  14.463  70.432  1.00  0.00    -0.404 C  
ENDBRANCH  40  41
ENDBRANCH  38  40
ENDBRANCH  37  38
ENDBRANCH  35  37
ENDBRANCH  34  35
ENDBRANCH  32  34
ENDBRANCH   8  32
ENDBRANCH   3   4
ENDBRANCH   2   3
TORSDOF 13
ENDMDL
MODEL      119
REMARK 921   NORMALIZED FREE ENERGY PREDICTED BY IDOCK:   -6.08 KCAL/MOL
REMARK 922        TOTAL FREE ENERGY PREDICTED BY IDOCK:  -13.15 KCAL/MOL
REMARK 923 INTER-LIGAND FREE ENERGY PREDICTED BY IDOCK:  -10.58 KCAL/MOL
REMARK 924 INTRA-LIGAND FREE ENERGY PREDICTED BY IDOCK:   -2.57 KCAL/MOL
REMARK 927      BINDING AFFINITY PREDICTED BY RF-SCORE:    0.00 PKD
ROOT
HETATM    1  C   UNL     1     -11.566  12.757  63.436  1.00  0.00    -0.506 C  
HETATM    2  C   UNL     1     -10.965  11.388  63.702  1.00  0.00    -0.363 C  
ENDROOT
BRANCH   2   3
HETATM    3  O   UNL     1      -9.577  11.571  64.001  1.00  0.00    -0.224 OA 
BRANCH   3   4
HETATM    4  C   UNL     1      -9.006  10.555  64.644  1.00  0.00    -0.207 A  
HETATM    5  N   UNL     1      -9.055   9.303  64.252  1.00  0.00    -0.116 NA 
HETATM    6  C   UNL     1      -8.354   8.612  65.196  1.00  0.00    -0.168 A  
HETATM    7  C   UNL     1      -7.791   9.462  66.169  1.00  0.00    -0.100 A  
HETATM    8  C   UNL     1      -6.930   8.923  67.156  1.00  0.00    -0.075 A  
HETATM    9  N   UNL     1      -8.333  10.698  65.838  1.00  0.00    -0.158 NA 
HETATM   10  C   UNL     1      -7.384   6.677  66.262  1.00  0.00    -0.073 A  
HETATM   11  C   UNL     1      -8.178   7.220  65.260  1.00  0.00    -0.126 A  
HETATM   12  C   UNL     1      -6.751   7.520  67.167  1.00  0.00    -0.067 A  
BRANCH   9  13
HETATM   13  C   UNL     1      -8.416  11.930  66.624  1.00  0.00    -0.143 C  
BRANCH  13  14
HETATM   14  C   UNL     1      -9.695  12.046  67.414  1.00  0.00    -0.185 A  
HETATM   15  C   UNL     1     -11.031  11.556  69.370  1.00  0.00    -0.233 A  
HETATM   16  C   UNL     1     -11.733  12.764  69.220  1.00  0.00    -0.376 A  
HETATM   17  C   UNL     1     -10.614  13.040  67.075  1.00  0.00    -0.262 A  
HETATM   18  C   UNL     1      -9.975  11.230  68.509  1.00  0.00    -0.206 A  
HETATM   19  C   UNL     1     -11.608  13.409  67.979  1.00  0.00    -0.369 A  
BRANCH  16  20
HETATM   20  C   UNL     1     -12.446  13.425  70.353  1.00  0.00    -0.322 A  
HETATM   21  C   UNL     1     -12.357  14.831  70.500  1.00  0.00    -0.398 A  
HETATM   22  C   UNL     1     -13.139  12.712  71.377  1.00  0.00    -0.308 A  
HETATM   23  C   UNL     1     -12.929  15.509  71.581  1.00  0.00    -0.540 A  
HETATM   24  C   UNL     1     -13.763  13.428  72.425  1.00  0.00    -0.698 A  
HETATM   25  C   UNL     1     -13.651  14.810  72.534  1.00  0.00    -0.571 A  
BRANCH  22  26
HETATM   26  C   UNL     1     -13.228  11.250  71.492  1.00  0.00    -0.253 A  
HETATM   27  N   UNL     1     -13.082  10.530  72.592  1.00  0.00    -0.206 NA 
HETATM   28  H   UNL     1     -12.894  10.884  73.530  1.00  0.00     0.000 HD 
HETATM   29  N   UNL     1     -13.231   9.215  72.227  1.00  0.00    -0.439 NA 
HETATM   30  N   UNL     1     -13.441   9.106  70.925  1.00  0.00    -0.003 NA 
HETATM   31  N   UNL     1     -13.394  10.363  70.461  1.00  0.00    -0.093 NA 
ENDBRANCH  22  26
ENDBRANCH  16  20
ENDBRANCH  13  14
ENDBRANCH   9  13
BRANCH   8  32
HETATM   32  C   UNL     1      -6.323   9.693  68.268  1.00  0.00    -0.056 C  
HETATM   33  O   UNL     1      -5.161  10.062  68.269  1.00  0.00    -0.036 OA 
BRANCH  32  34
HETATM   34  O   UNL     1      -7.267  10.116  69.147  1.00  0.00    -0.068 OA 
BRANCH  34  35
HETATM   35  C   UNL     1      -7.388   9.248  70.283  1.00  0.00    -0.100 C  
HETATM   36  C   UNL     1      -6.153   9.521  71.144  1.00  0.00    -0.074 C  
BRANCH  35  37
HETATM   37  O   UNL     1      -8.499   9.576  71.118  1.00  0.00    -0.278 OA 
BRANCH  37  38
HETATM   38  C   UNL     1      -9.179   8.530  71.638  1.00  0.00    -0.236 C  
HETATM   39  O   UNL     1      -9.262   8.234  72.817  1.00  0.00    -0.240 OA 
BRANCH  38  40
HETATM   40  O   UNL     1      -9.766   7.900  70.602  1.00  0.00    -0.173 OA 
BRANCH  40  41
HETATM   41  C   UNL     1     -10.298   6.556  70.662  1.00  0.00    -0.201 C  
HETATM   42  C   UNL     1     -10.014   4.945  68.176  1.00  0.00    -0.171 C  
HETATM   43  C   UNL     1     -11.398   6.469  69.602  1.00  0.00    -0.443 C  
HETATM   44  C   UNL     1     -10.821   6.235  68.210  1.00  0.00    -0.397 C  
HETATM   45  C   UNL     1      -8.890   4.935  69.208  1.00  0.00    -0.115 C  
HETATM   46  C   UNL     1      -9.335   5.365  70.609  1.00  0.00    -0.204 C  
ENDBRANCH  40  41
ENDBRANCH  38  40
ENDBRANCH  37  38
ENDBRANCH  35  37
ENDBRANCH  34  35
ENDBRANCH  32  34
ENDBRANCH   8  32
ENDBRANCH   3   4
ENDBRANCH   2   3
TORSDOF 13
ENDMDL
MODEL      120
REMARK 921   NORMALIZED FREE ENERGY PREDICTED BY IDOCK:   -6.07 KCAL/MOL
REMARK 922        TOTAL FREE ENERGY PREDICTED BY IDOCK:  -13.14 KCAL/MOL
REMARK 923 INTER-LIGAND FREE ENERGY PREDICTED BY IDOCK:  -10.27 KCAL/MOL
REMARK 924 INTRA-LIGAND FREE ENERGY PREDICTED BY IDOCK:   -2.87 KCAL/MOL
REMARK 927      BINDING AFFINITY PREDICTED BY RF-SCORE:    0.00 PKD
ROOT
HETATM    1  C   UNL     1     -12.567  14.920  70.759  1.00  0.00    -0.414 C  
HETATM    2  C   UNL     1     -11.829  14.801  69.437  1.00  0.00    -0.323 C  
ENDROOT
BRANCH   2   3
HETATM    3  O   UNL     1     -11.326  13.465  69.336  1.00  0.00    -0.260 OA 
BRANCH   3   4
HETATM    4  C   UNL     1     -11.298  12.971  68.101  1.00  0.00    -0.294 A  
HETATM    5  N   UNL     1     -12.129  13.310  67.144  1.00  0.00    -0.340 NA 
HETATM    6  C   UNL     1     -11.746  12.566  66.066  1.00  0.00    -0.417 A  
HETATM    7  C   UNL     1     -10.600  11.791  66.334  1.00  0.00    -0.255 A  
HETATM    8  C   UNL     1      -9.995  11.050  65.290  1.00  0.00    -0.320 A  
HETATM    9  N   UNL     1     -10.412  11.995  67.696  1.00  0.00    -0.202 NA 
HETATM   10  C   UNL     1     -11.822  11.748  63.798  1.00  0.00    -0.484 A  
HETATM   11  C   UNL     1     -12.375  12.521  64.810  1.00  0.00    -0.544 A  
HETATM   12  C   UNL     1     -10.640  11.056  64.031  1.00  0.00    -0.395 A  
BRANCH   9  13
HETATM   13  C   UNL     1      -9.607  11.242  68.658  1.00  0.00    -0.190 C  
BRANCH  13  14
HETATM   14  C   UNL     1     -10.303  10.010  69.179  1.00  0.00    -0.233 A  
HETATM   15  C   UNL     1     -10.856   7.659  69.024  1.00  0.00    -0.059 A  
HETATM   16  C   UNL     1     -10.978   7.574  70.421  1.00  0.00    -0.264 A  
HETATM   17  C   UNL     1     -10.767   9.999  70.496  1.00  0.00    -0.352 A  
HETATM   18  C   UNL     1     -10.459   8.856  68.413  1.00  0.00    -0.230 A  
HETATM   19  C   UNL     1     -11.079   8.790  71.116  1.00  0.00    -0.340 A  
BRANCH  16  20
HETATM   20  C   UNL     1     -10.848   6.284  71.161  1.00  0.00    -0.320 A  
HETATM   21  C   UNL     1     -11.767   5.986  72.197  1.00  0.00    -0.335 A  
HETATM   22  C   UNL     1      -9.778   5.359  70.963  1.00  0.00    -0.235 A  
HETATM   23  C   UNL     1     -11.659   4.837  72.987  1.00  0.00    -0.252 A  
HETATM   24  C   UNL     1      -9.729   4.175  71.732  1.00  0.00    -0.245 A  
HETATM   25  C   UNL     1     -10.652   3.919  72.741  1.00  0.00    -0.206 A  
BRANCH  22  26
HETATM   26  C   UNL     1      -8.646   5.545  70.045  1.00  0.00    -0.120 A  
HETATM   27  N   UNL     1      -8.457   4.938  68.885  1.00  0.00    -0.082 NA 
HETATM   28  H   UNL     1      -9.077   4.256  68.448  1.00  0.00     0.000 HD 
HETATM   29  N   UNL     1      -7.267   5.404  68.383  1.00  0.00    -0.069 NA 
HETATM   30  N   UNL     1      -6.707   6.265  69.218  1.00  0.00    -0.054 NA 
HETATM   31  N   UNL     1      -7.537   6.318  70.268  1.00  0.00    -0.094 NA 
ENDBRANCH  22  26
ENDBRANCH  16  20
ENDBRANCH  13  14
ENDBRANCH   9  13
BRANCH   8  32
HETATM   32  C   UNL     1      -8.828  10.150  65.450  1.00  0.00    -0.173 C  
HETATM   33  O   UNL     1      -8.930   8.945  65.609  1.00  0.00    -0.182 OA 
BRANCH  32  34
HETATM   34  O   UNL     1      -7.667  10.795  65.173  1.00  0.00    -0.048 OA 
BRANCH  34  35
HETATM   35  C   UNL     1      -6.873  11.025  66.346  1.00  0.00    -0.118 C  
HETATM   36  C   UNL     1      -5.419  10.873  65.896  1.00  0.00    -0.147 C  
BRANCH  35  37
HETATM   37  O   UNL     1      -6.971  12.364  66.831  1.00  0.00    -0.059 OA 
BRANCH  37  38
HETATM   38  C   UNL     1      -6.158  12.683  67.863  1.00  0.00    -0.108 C  
HETATM   39  O   UNL     1      -5.943  12.004  68.851  1.00  0.00    -0.055 OA 
BRANCH  38  40
HETATM   40  O   UNL     1      -5.615  13.879  67.570  1.00  0.00    -0.340 OA 
BRANCH  40  41
HETATM   41  C   UNL     1      -5.719  15.049  68.413  1.00  0.00    -0.107 C  
HETATM   42  C   UNL     1      -8.087  16.784  67.925  1.00  0.00    -0.189 C  
HETATM   43  C   UNL     1      -5.676  16.267  67.486  1.00  0.00    -0.179 C  
HETATM   44  C   UNL     1      -7.036  16.538  66.852  1.00  0.00    -0.262 C  
HETATM   45  C   UNL     1      -8.200  15.621  68.905  1.00  0.00    -0.204 C  
HETATM   46  C   UNL     1      -6.850  15.134  69.442  1.00  0.00    -0.170 C  
ENDBRANCH  40  41
ENDBRANCH  38  40
ENDBRANCH  37  38
ENDBRANCH  35  37
ENDBRANCH  34  35
ENDBRANCH  32  34
ENDBRANCH   8  32
ENDBRANCH   3   4
ENDBRANCH   2   3
TORSDOF 13
ENDMDL
MODEL      121
REMARK 921   NORMALIZED FREE ENERGY PREDICTED BY IDOCK:   -6.07 KCAL/MOL
REMARK 922        TOTAL FREE ENERGY PREDICTED BY IDOCK:  -13.13 KCAL/MOL
REMARK 923 INTER-LIGAND FREE ENERGY PREDICTED BY IDOCK:   -9.96 KCAL/MOL
REMARK 924 INTRA-LIGAND FREE ENERGY PREDICTED BY IDOCK:   -3.17 KCAL/MOL
REMARK 927      BINDING AFFINITY PREDICTED BY RF-SCORE:    0.00 PKD
ROOT
HETATM    1  C   UNL     1      -5.174  12.514  70.672  1.00  0.00    -0.138 C  
HETATM    2  C   UNL     1      -6.289  12.016  69.770  1.00  0.00    -0.110 C  
ENDROOT
BRANCH   2   3
HETATM    3  O   UNL     1      -6.141  10.599  69.633  1.00  0.00    -0.046 OA 
BRANCH   3   4
HETATM    4  C   UNL     1      -6.885   9.876  70.465  1.00  0.00    -0.118 A  
HETATM    5  N   UNL     1      -6.422   9.236  71.514  1.00  0.00    -0.232 NA 
HETATM    6  C   UNL     1      -7.514   8.633  72.067  1.00  0.00    -0.037 A  
HETATM    7  C   UNL     1      -8.704   8.960  71.387  1.00  0.00    -0.192 A  
HETATM    8  C   UNL     1      -9.948   8.517  71.900  1.00  0.00    -0.365 A  
HETATM    9  N   UNL     1      -8.238   9.674  70.290  1.00  0.00    -0.190 NA 
HETATM   10  C   UNL     1      -8.737   7.281  73.647  1.00  0.00    -0.208 A  
HETATM   11  C   UNL     1      -7.526   7.769  73.175  1.00  0.00    -0.131 A  
HETATM   12  C   UNL     1      -9.921   7.677  73.037  1.00  0.00    -0.343 A  
BRANCH   9  13
HETATM   13  C   UNL     1      -8.909  10.020  69.037  1.00  0.00    -0.159 C  
BRANCH  13  14
HETATM   14  C   UNL     1      -8.944   8.883  68.048  1.00  0.00    -0.140 A  
HETATM   15  C   UNL     1      -7.838   7.174  66.740  1.00  0.00    -0.103 A  
HETATM   16  C   UNL     1      -8.990   6.370  66.776  1.00  0.00    -0.134 A  
HETATM   17  C   UNL     1     -10.162   8.255  67.778  1.00  0.00    -0.282 A  
HETATM   18  C   UNL     1      -7.796   8.394  67.426  1.00  0.00    -0.099 A  
HETATM   19  C   UNL     1     -10.181   7.002  67.168  1.00  0.00    -0.318 A  
BRANCH  16  20
HETATM   20  C   UNL     1      -8.945   4.892  66.568  1.00  0.00    -0.112 A  
HETATM   21  C   UNL     1      -9.057   4.376  65.254  1.00  0.00    -0.146 A  
HETATM   22  C   UNL     1      -8.901   3.943  67.633  1.00  0.00    -0.133 A  
HETATM   23  C   UNL     1      -9.107   3.003  64.990  1.00  0.00    -0.146 A  
HETATM   24  C   UNL     1      -8.888   2.561  67.335  1.00  0.00    -0.160 A  
HETATM   25  C   UNL     1      -9.000   2.094  66.029  1.00  0.00    -0.103 A  
BRANCH  22  26
HETATM   26  C   UNL     1      -8.926   4.263  69.067  1.00  0.00    -0.108 A  
HETATM   27  N   UNL     1      -7.909   4.207  69.910  1.00  0.00    -0.052 NA 
HETATM   28  H   UNL     1      -6.949   3.943  69.689  1.00  0.00     0.000 HD 
HETATM   29  N   UNL     1      -8.394   4.575  71.141  1.00  0.00    -0.089 NA 
HETATM   30  N   UNL     1      -9.691   4.831  71.081  1.00  0.00    -0.170 NA 
HETATM   31  N   UNL     1     -10.032   4.594  69.806  1.00  0.00    -0.230 NA 
ENDBRANCH  22  26
ENDBRANCH  16  20
ENDBRANCH  13  14
ENDBRANCH   9  13
BRANCH   8  32
HETATM   32  C   UNL     1     -11.263   8.739  71.253  1.00  0.00    -0.284 C  
HETATM   33  O   UNL     1     -12.083   7.852  71.082  1.00  0.00    -0.304 OA 
BRANCH  32  34
HETATM   34  O   UNL     1     -11.517  10.063  71.092  1.00  0.00    -0.357 OA 
BRANCH  34  35
HETATM   35  C   UNL     1     -12.885  10.322  70.745  1.00  0.00    -0.344 C  
HETATM   36  C   UNL     1     -13.361  11.400  71.720  1.00  0.00    -0.368 C  
BRANCH  35  37
HETATM   37  O   UNL     1     -13.029  10.907  69.450  1.00  0.00    -0.088 OA 
BRANCH  37  38
HETATM   38  C   UNL     1     -12.031  11.728  69.056  1.00  0.00    -0.280 C  
HETATM   39  O   UNL     1     -11.412  12.505  69.761  1.00  0.00    -0.233 OA 
BRANCH  38  40
HETATM   40  O   UNL     1     -11.839  11.499  67.743  1.00  0.00    -0.584 OA 
BRANCH  40  41
HETATM   41  C   UNL     1     -11.319  12.476  66.813  1.00  0.00    -0.334 C  
HETATM   42  C   UNL     1     -11.357  11.676  63.947  1.00  0.00    -0.457 C  
HETATM   43  C   UNL     1     -10.118  11.830  66.118  1.00  0.00    -0.255 C  
HETATM   44  C   UNL     1     -10.554  10.906  64.986  1.00  0.00    -0.287 C  
HETATM   45  C   UNL     1     -12.578  12.364  64.549  1.00  0.00    -0.477 C  
HETATM   46  C   UNL     1     -12.274  13.154  65.825  1.00  0.00    -0.514 C  
ENDBRANCH  40  41
ENDBRANCH  38  40
ENDBRANCH  37  38
ENDBRANCH  35  37
ENDBRANCH  34  35
ENDBRANCH  32  34
ENDBRANCH   8  32
ENDBRANCH   3   4
ENDBRANCH   2   3
TORSDOF 13
ENDMDL
MODEL      122
REMARK 921   NORMALIZED FREE ENERGY PREDICTED BY IDOCK:   -6.06 KCAL/MOL
REMARK 922        TOTAL FREE ENERGY PREDICTED BY IDOCK:  -13.11 KCAL/MOL
REMARK 923 INTER-LIGAND FREE ENERGY PREDICTED BY IDOCK:  -11.43 KCAL/MOL
REMARK 924 INTRA-LIGAND FREE ENERGY PREDICTED BY IDOCK:   -1.68 KCAL/MOL
REMARK 927      BINDING AFFINITY PREDICTED BY RF-SCORE:    0.00 PKD
ROOT
HETATM    1  C   UNL     1     -11.826  14.503  69.719  1.00  0.00    -0.367 C  
HETATM    2  C   UNL     1     -12.274  13.371  70.626  1.00  0.00    -0.350 C  
ENDROOT
BRANCH   2   3
HETATM    3  O   UNL     1     -11.496  12.214  70.300  1.00  0.00    -0.120 OA 
BRANCH   3   4
HETATM    4  C   UNL     1     -12.020  11.058  70.699  1.00  0.00    -0.365 A  
HETATM    5  N   UNL     1     -13.068  10.946  71.481  1.00  0.00    -0.415 NA 
HETATM    6  C   UNL     1     -13.249   9.602  71.634  1.00  0.00    -0.411 A  
HETATM    7  C   UNL     1     -12.332   8.852  70.872  1.00  0.00    -0.090 A  
HETATM    8  C   UNL     1     -12.455   7.441  70.819  1.00  0.00    -0.130 A  
HETATM    9  N   UNL     1     -11.483   9.831  70.373  1.00  0.00    -0.269 NA 
HETATM   10  C   UNL     1     -14.294   7.585  72.445  1.00  0.00    -0.079 A  
HETATM   11  C   UNL     1     -14.208   8.971  72.444  1.00  0.00    -0.416 A  
HETATM   12  C   UNL     1     -13.453   6.844  71.623  1.00  0.00    -0.284 A  
BRANCH   9  13
HETATM   13  C   UNL     1     -10.150   9.710  69.781  1.00  0.00    -0.233 C  
BRANCH  13  14
HETATM   14  C   UNL     1      -9.949  10.602  68.582  1.00  0.00    -0.188 A  
HETATM   15  C   UNL     1     -10.776  11.697  66.590  1.00  0.00    -0.310 A  
HETATM   16  C   UNL     1      -9.857  12.747  66.759  1.00  0.00    -0.242 A  
HETATM   17  C   UNL     1      -8.832  11.439  68.540  1.00  0.00    -0.151 A  
HETATM   18  C   UNL     1     -10.863  10.664  67.532  1.00  0.00    -0.351 A  
HETATM   19  C   UNL     1      -8.798  12.513  67.651  1.00  0.00    -0.179 A  
BRANCH  16  20
HETATM   20  C   UNL     1     -10.061  14.098  66.158  1.00  0.00    -0.324 A  
HETATM   21  C   UNL     1      -9.429  15.219  66.749  1.00  0.00    -0.264 A  
HETATM   22  C   UNL     1     -10.949  14.356  65.071  1.00  0.00    -0.398 A  
HETATM   23  C   UNL     1      -9.640  16.525  66.293  1.00  0.00    -0.333 A  
HETATM   24  C   UNL     1     -11.094  15.677  64.589  1.00  0.00    -0.387 A  
HETATM   25  C   UNL     1     -10.456  16.753  65.198  1.00  0.00    -0.070 A  
BRANCH  22  26
HETATM   26  C   UNL     1     -11.806  13.362  64.411  1.00  0.00    -0.408 A  
HETATM   27  N   UNL     1     -13.024  12.998  64.774  1.00  0.00    -0.748 NA 
HETATM   28  H   UNL     1     -13.557  13.362  65.564  1.00  0.00     0.000 HD 
HETATM   29  N   UNL     1     -13.433  12.037  63.883  1.00  0.00    -0.372 NA 
HETATM   30  N   UNL     1     -12.485  11.783  62.994  1.00  0.00    -0.216 NA 
HETATM   31  N   UNL     1     -11.460  12.569  63.348  1.00  0.00    -0.478 NA 
ENDBRANCH  22  26
ENDBRANCH  16  20
ENDBRANCH  13  14
ENDBRANCH   9  13
BRANCH   8  32
HETATM   32  C   UNL     1     -11.524   6.532  70.107  1.00  0.00    -0.415 C  
HETATM   33  O   UNL     1     -11.464   6.456  68.892  1.00  0.00    -0.314 OA 
BRANCH  32  34
HETATM   34  O   UNL     1     -10.619   5.987  70.960  1.00  0.00    -0.225 OA 
BRANCH  34  35
HETATM   35  C   UNL     1      -9.270   6.130  70.492  1.00  0.00    -0.157 C  
HETATM   36  C   UNL     1      -8.546   6.947  71.563  1.00  0.00    -0.122 C  
BRANCH  35  37
HETATM   37  O   UNL     1      -8.566   4.888  70.438  1.00  0.00    -0.096 OA 
BRANCH  37  38
HETATM   38  C   UNL     1      -9.227   3.856  69.868  1.00  0.00    -0.144 C  
HETATM   39  O   UNL     1      -9.690   2.887  70.443  1.00  0.00    -0.130 OA 
BRANCH  38  40
HETATM   40  O   UNL     1      -9.294   4.123  68.550  1.00  0.00    -0.135 OA 
BRANCH  40  41
HETATM   41  C   UNL     1      -8.157   4.109  67.657  1.00  0.00    -0.094 C  
HETATM   42  C   UNL     1      -8.735   4.806  64.822  1.00  0.00    -0.153 C  
HETATM   43  C   UNL     1      -8.447   3.053  66.588  1.00  0.00    -0.103 C  
HETATM   44  C   UNL     1      -9.365   3.596  65.497  1.00  0.00    -0.160 C  
HETATM   45  C   UNL     1      -8.403   5.917  65.813  1.00  0.00    -0.140 C  
HETATM   46  C   UNL     1      -7.657   5.428  67.059  1.00  0.00    -0.092 C  
ENDBRANCH  40  41
ENDBRANCH  38  40
ENDBRANCH  37  38
ENDBRANCH  35  37
ENDBRANCH  34  35
ENDBRANCH  32  34
ENDBRANCH   8  32
ENDBRANCH   3   4
ENDBRANCH   2   3
TORSDOF 13
ENDMDL
MODEL      123
REMARK 921   NORMALIZED FREE ENERGY PREDICTED BY IDOCK:   -6.05 KCAL/MOL
REMARK 922        TOTAL FREE ENERGY PREDICTED BY IDOCK:  -13.10 KCAL/MOL
REMARK 923 INTER-LIGAND FREE ENERGY PREDICTED BY IDOCK:   -9.04 KCAL/MOL
REMARK 924 INTRA-LIGAND FREE ENERGY PREDICTED BY IDOCK:   -4.06 KCAL/MOL
REMARK 927      BINDING AFFINITY PREDICTED BY RF-SCORE:    0.00 PKD
ROOT
HETATM    1  C   UNL     1     -12.643  13.901  65.433  1.00  0.00    -0.538 C  
HETATM    2  C   UNL     1     -12.116  13.490  66.797  1.00  0.00    -0.375 C  
ENDROOT
BRANCH   2   3
HETATM    3  O   UNL     1     -11.628  12.148  66.690  1.00  0.00    -0.394 OA 
BRANCH   3   4
HETATM    4  C   UNL     1     -10.406  11.959  67.180  1.00  0.00    -0.210 A  
HETATM    5  N   UNL     1      -9.377  12.738  66.939  1.00  0.00    -0.228 NA 
HETATM    6  C   UNL     1      -8.341  12.175  67.625  1.00  0.00    -0.163 A  
HETATM    7  C   UNL     1      -8.747  11.051  68.372  1.00  0.00    -0.150 A  
HETATM    8  C   UNL     1      -7.823  10.416  69.239  1.00  0.00    -0.147 A  
HETATM    9  N   UNL     1     -10.064  10.879  67.965  1.00  0.00    -0.173 NA 
HETATM   10  C   UNL     1      -6.078  11.948  68.428  1.00  0.00    -0.050 A  
HETATM   11  C   UNL     1      -7.003  12.603  67.627  1.00  0.00    -0.140 A  
HETATM   12  C   UNL     1      -6.493  10.898  69.238  1.00  0.00    -0.071 A  
BRANCH   9  13
HETATM   13  C   UNL     1     -10.949   9.722  68.107  1.00  0.00    -0.175 C  
BRANCH  13  14
HETATM   14  C   UNL     1     -10.457   8.503  67.369  1.00  0.00    -0.351 A  
HETATM   15  C   UNL     1      -8.812   7.370  66.004  1.00  0.00    -0.173 A  
HETATM   16  C   UNL     1      -9.166   6.132  66.567  1.00  0.00    -0.161 A  
HETATM   17  C   UNL     1     -11.032   7.262  67.649  1.00  0.00    -0.181 A  
HETATM   18  C   UNL     1      -9.411   8.555  66.449  1.00  0.00    -0.273 A  
HETATM   19  C   UNL     1     -10.380   6.090  67.271  1.00  0.00    -0.275 A  
BRANCH  16  20
HETATM   20  C   UNL     1      -8.245   4.957  66.568  1.00  0.00    -0.107 A  
HETATM   21  C   UNL     1      -7.196   4.902  67.518  1.00  0.00    -0.070 A  
HETATM   22  C   UNL     1      -8.286   3.917  65.591  1.00  0.00    -0.109 A  
HETATM   23  C   UNL     1      -6.246   3.876  67.527  1.00  0.00    -0.036 A  
HETATM   24  C   UNL     1      -7.352   2.858  65.662  1.00  0.00    -0.071 A  
HETATM   25  C   UNL     1      -6.336   2.841  66.611  1.00  0.00    -0.028 A  
BRANCH  22  26
HETATM   26  C   UNL     1      -9.198   3.858  64.441  1.00  0.00    -0.147 A  
HETATM   27  N   UNL     1     -10.339   3.195  64.367  1.00  0.00    -0.397 NA 
HETATM   28  H   UNL     1     -10.765   2.631  65.103  1.00  0.00     0.000 HD 
HETATM   29  N   UNL     1     -10.843   3.412  63.108  1.00  0.00    -0.203 NA 
HETATM   30  N   UNL     1     -10.025   4.173  62.397  1.00  0.00    -0.158 NA 
HETATM   31  N   UNL     1      -8.984   4.412  63.206  1.00  0.00    -0.130 NA 
ENDBRANCH  22  26
ENDBRANCH  16  20
ENDBRANCH  13  14
ENDBRANCH   9  13
BRANCH   8  32
HETATM   32  C   UNL     1      -8.101   9.195  70.031  1.00  0.00    -0.128 C  
HETATM   33  O   UNL     1      -7.858   8.069  69.631  1.00  0.00    -0.100 OA 
BRANCH  32  34
HETATM   34  O   UNL     1      -8.437   9.502  71.310  1.00  0.00    -0.256 OA 
BRANCH  34  35
HETATM   35  C   UNL     1      -8.984   8.381  72.019  1.00  0.00    -0.223 C  
HETATM   36  C   UNL     1      -8.013   8.105  73.168  1.00  0.00    -0.223 C  
BRANCH  35  37
HETATM   37  O   UNL     1     -10.229   8.677  72.652  1.00  0.00    -0.253 OA 
BRANCH  37  38
HETATM   38  C   UNL     1     -11.331   8.160  72.065  1.00  0.00    -0.316 C  
HETATM   39  O   UNL     1     -12.480   8.530  72.231  1.00  0.00    -0.359 OA 
BRANCH  38  40
HETATM   40  O   UNL     1     -10.907   7.179  71.247  1.00  0.00    -0.230 OA 
BRANCH  40  41
HETATM   41  C   UNL     1     -11.150   5.771  71.468  1.00  0.00    -0.214 C  
HETATM   42  C   UNL     1      -8.774   4.159  72.253  1.00  0.00    -0.118 C  
HETATM   43  C   UNL     1     -10.294   5.009  70.453  1.00  0.00    -0.297 C  
HETATM   44  C   UNL     1      -8.847   4.886  70.918  1.00  0.00    -0.155 C  
HETATM   45  C   UNL     1      -9.606   4.844  73.334  1.00  0.00    -0.145 C  
HETATM   46  C   UNL     1     -11.026   5.202  72.885  1.00  0.00    -0.345 C  
ENDBRANCH  40  41
ENDBRANCH  38  40
ENDBRANCH  37  38
ENDBRANCH  35  37
ENDBRANCH  34  35
ENDBRANCH  32  34
ENDBRANCH   8  32
ENDBRANCH   3   4
ENDBRANCH   2   3
TORSDOF 13
ENDMDL
MODEL      124
REMARK 921   NORMALIZED FREE ENERGY PREDICTED BY IDOCK:   -6.05 KCAL/MOL
REMARK 922        TOTAL FREE ENERGY PREDICTED BY IDOCK:  -13.10 KCAL/MOL
REMARK 923 INTER-LIGAND FREE ENERGY PREDICTED BY IDOCK:  -10.48 KCAL/MOL
REMARK 924 INTRA-LIGAND FREE ENERGY PREDICTED BY IDOCK:   -2.61 KCAL/MOL
REMARK 927      BINDING AFFINITY PREDICTED BY RF-SCORE:    0.00 PKD
ROOT
HETATM    1  C   UNL     1     -12.499  13.159  64.695  1.00  0.00    -0.433 C  
HETATM    2  C   UNL     1     -12.158  12.990  66.166  1.00  0.00    -0.409 C  
ENDROOT
BRANCH   2   3
HETATM    3  O   UNL     1     -11.433  11.765  66.309  1.00  0.00    -0.361 OA 
BRANCH   3   4
HETATM    4  C   UNL     1     -11.377  11.291  67.551  1.00  0.00    -0.288 A  
HETATM    5  N   UNL     1     -12.392  11.257  68.382  1.00  0.00    -0.405 NA 
HETATM    6  C   UNL     1     -11.891  10.708  69.526  1.00  0.00    -0.273 A  
HETATM    7  C   UNL     1     -10.543  10.323  69.385  1.00  0.00    -0.237 A  
HETATM    8  C   UNL     1      -9.899   9.626  70.437  1.00  0.00    -0.315 A  
HETATM    9  N   UNL     1     -10.217  10.823  68.130  1.00  0.00    -0.166 NA 
HETATM   10  C   UNL     1     -11.931   9.896  71.797  1.00  0.00    -0.329 A  
HETATM   11  C   UNL     1     -12.574  10.524  70.739  1.00  0.00    -0.474 A  
HETATM   12  C   UNL     1     -10.632   9.431  71.631  1.00  0.00    -0.248 A  
BRANCH   9  13
HETATM   13  C   UNL     1      -8.907  11.050  67.518  1.00  0.00    -0.131 C  
BRANCH  13  14
HETATM   14  C   UNL     1      -8.533  12.509  67.439  1.00  0.00    -0.181 A  
HETATM   15  C   UNL     1      -8.785  14.714  66.475  1.00  0.00    -0.115 A  
HETATM   16  C   UNL     1      -8.400  15.311  67.688  1.00  0.00    -0.176 A  
HETATM   17  C   UNL     1      -7.826  13.086  68.495  1.00  0.00    -0.105 A  
HETATM   18  C   UNL     1      -8.912  13.322  66.372  1.00  0.00     0.010 A  
HETATM   19  C   UNL     1      -7.780  14.473  68.628  1.00  0.00    -0.137 A  
BRANCH  16  20
HETATM   20  C   UNL     1      -8.763  16.715  68.043  1.00  0.00    -0.194 A  
HETATM   21  C   UNL     1      -7.934  17.775  67.600  1.00  0.00    -0.216 A  
HETATM   22  C   UNL     1      -9.850  17.061  68.901  1.00  0.00    -0.272 A  
HETATM   23  C   UNL     1      -8.164  19.106  67.962  1.00  0.00    -0.339 A  
HETATM   24  C   UNL     1     -10.097  18.420  69.198  1.00  0.00    -0.174 A  
HETATM   25  C   UNL     1      -9.259  19.433  68.744  1.00  0.00    -0.422 A  
BRANCH  22  26
HETATM   26  C   UNL     1     -10.741  16.110  69.580  1.00  0.00    -0.313 A  
HETATM   27  N   UNL     1     -11.332  15.055  69.044  1.00  0.00    -0.273 NA 
HETATM   28  H   UNL     1     -11.249  14.737  68.079  1.00  0.00     0.000 HD 
HETATM   29  N   UNL     1     -12.077  14.471  70.038  1.00  0.00    -0.320 NA 
HETATM   30  N   UNL     1     -11.979  15.155  71.167  1.00  0.00    -0.304 NA 
HETATM   31  N   UNL     1     -11.188  16.197  70.872  1.00  0.00    -0.345 NA 
ENDBRANCH  22  26
ENDBRANCH  16  20
ENDBRANCH  13  14
ENDBRANCH   9  13
BRANCH   8  32
HETATM   32  C   UNL     1      -8.474   9.219  70.442  1.00  0.00    -0.206 C  
HETATM   33  O   UNL     1      -7.556  10.001  70.627  1.00  0.00    -0.286 OA 
BRANCH  32  34
HETATM   34  O   UNL     1      -8.347   7.868  70.444  1.00  0.00    -0.118 OA 
BRANCH  34  35
HETATM   35  C   UNL     1      -7.290   7.417  71.304  1.00  0.00    -0.076 C  
HETATM   36  C   UNL     1      -7.938   7.193  72.671  1.00  0.00    -0.108 C  
BRANCH  35  37
HETATM   37  O   UNL     1      -6.772   6.140  70.928  1.00  0.00    -0.057 OA 
BRANCH  37  38
HETATM   38  C   UNL     1      -7.553   5.402  70.109  1.00  0.00    -0.073 C  
HETATM   39  O   UNL     1      -7.584   5.460  68.892  1.00  0.00    -0.077 OA 
BRANCH  38  40
HETATM   40  O   UNL     1      -8.265   4.575  70.898  1.00  0.00    -0.084 OA 
BRANCH  40  41
HETATM   41  C   UNL     1      -9.648   4.219  70.667  1.00  0.00    -0.190 C  
HETATM   42  C   UNL     1     -11.606   5.321  72.619  1.00  0.00    -0.226 C  
HETATM   43  C   UNL     1     -10.116   3.441  71.899  1.00  0.00    -0.156 C  
HETATM   44  C   UNL     1     -10.492   4.375  73.045  1.00  0.00    -0.250 C  
HETATM   45  C   UNL     1     -11.233   6.141  71.388  1.00  0.00    -0.346 C  
HETATM   46  C   UNL     1     -10.642   5.307  70.247  1.00  0.00    -0.288 C  
ENDBRANCH  40  41
ENDBRANCH  38  40
ENDBRANCH  37  38
ENDBRANCH  35  37
ENDBRANCH  34  35
ENDBRANCH  32  34
ENDBRANCH   8  32
ENDBRANCH   3   4
ENDBRANCH   2   3
TORSDOF 13
ENDMDL
MODEL      125
REMARK 921   NORMALIZED FREE ENERGY PREDICTED BY IDOCK:   -6.03 KCAL/MOL
REMARK 922        TOTAL FREE ENERGY PREDICTED BY IDOCK:  -13.07 KCAL/MOL
REMARK 923 INTER-LIGAND FREE ENERGY PREDICTED BY IDOCK:   -9.48 KCAL/MOL
REMARK 924 INTRA-LIGAND FREE ENERGY PREDICTED BY IDOCK:   -3.59 KCAL/MOL
REMARK 927      BINDING AFFINITY PREDICTED BY RF-SCORE:    0.00 PKD
ROOT
HETATM    1  C   UNL     1     -13.307  11.555  71.750  1.00  0.00    -0.356 C  
HETATM    2  C   UNL     1     -12.976  10.081  71.598  1.00  0.00    -0.449 C  
ENDROOT
BRANCH   2   3
HETATM    3  O   UNL     1     -11.559   9.966  71.430  1.00  0.00    -0.374 OA 
BRANCH   3   4
HETATM    4  C   UNL     1     -11.057   8.770  71.729  1.00  0.00    -0.347 A  
HETATM    5  N   UNL     1     -11.633   7.897  72.522  1.00  0.00    -0.377 NA 
HETATM    6  C   UNL     1     -10.781   6.832  72.550  1.00  0.00    -0.230 A  
HETATM    7  C   UNL     1      -9.674   7.014  71.697  1.00  0.00    -0.160 A  
HETATM    8  C   UNL     1      -8.751   5.956  71.512  1.00  0.00    -0.132 A  
HETATM    9  N   UNL     1      -9.834   8.328  71.274  1.00  0.00    -0.167 NA 
HETATM   10  C   UNL     1      -9.985   4.646  73.189  1.00  0.00    -0.185 A  
HETATM   11  C   UNL     1     -10.920   5.665  73.319  1.00  0.00    -0.316 A  
HETATM   12  C   UNL     1      -8.944   4.783  72.279  1.00  0.00    -0.140 A  
BRANCH   9  13
HETATM   13  C   UNL     1      -8.876   9.236  70.641  1.00  0.00    -0.237 C  
BRANCH  13  14
HETATM   14  C   UNL     1      -9.204   9.534  69.199  1.00  0.00    -0.163 A  
HETATM   15  C   UNL     1     -10.714   9.468  67.309  1.00  0.00    -0.269 A  
HETATM   16  C   UNL     1     -10.142  10.639  66.785  1.00  0.00    -0.272 A  
HETATM   17  C   UNL     1      -8.428  10.464  68.506  1.00  0.00    -0.129 A  
HETATM   18  C   UNL     1     -10.289   8.955  68.542  1.00  0.00    -0.229 A  
HETATM   19  C   UNL     1      -8.904  11.026  67.322  1.00  0.00    -0.135 A  
BRANCH  16  20
HETATM   20  C   UNL     1     -10.865  11.526  65.825  1.00  0.00    -0.319 A  
HETATM   21  C   UNL     1     -10.882  11.187  64.450  1.00  0.00    -0.340 A  
HETATM   22  C   UNL     1     -11.464  12.769  66.190  1.00  0.00    -0.399 A  
HETATM   23  C   UNL     1     -11.466  12.010  63.482  1.00  0.00    -0.536 A  
HETATM   24  C   UNL     1     -12.104  13.551  65.202  1.00  0.00    -0.432 A  
HETATM   25  C   UNL     1     -12.098  13.183  63.861  1.00  0.00    -0.536 A  
BRANCH  22  26
HETATM   26  C   UNL     1     -11.434  13.373  67.529  1.00  0.00    -0.323 A  
HETATM   27  N   UNL     1     -12.354  13.259  68.472  1.00  0.00    -0.065 NA 
HETATM   28  H   UNL     1     -13.221  12.724  68.414  1.00  0.00     0.000 HD 
HETATM   29  N   UNL     1     -11.918  13.998  69.544  1.00  0.00    -0.320 NA 
HETATM   30  N   UNL     1     -10.762  14.585  69.274  1.00  0.00    -0.243 NA 
HETATM   31  N   UNL     1     -10.484  14.236  68.010  1.00  0.00    -0.232 NA 
ENDBRANCH  22  26
ENDBRANCH  16  20
ENDBRANCH  13  14
ENDBRANCH   9  13
BRANCH   8  32
HETATM   32  C   UNL     1      -7.517   6.036  70.694  1.00  0.00    -0.087 C  
HETATM   33  O   UNL     1      -6.588   6.780  70.958  1.00  0.00    -0.051 OA 
BRANCH  32  34
HETATM   34  O   UNL     1      -7.468   5.036  69.777  1.00  0.00    -0.055 OA 
BRANCH  34  35
HETATM   35  C   UNL     1      -7.704   5.504  68.441  1.00  0.00    -0.085 C  
HETATM   36  C   UNL     1      -9.223   5.493  68.264  1.00  0.00    -0.118 C  
BRANCH  35  37
HETATM   37  O   UNL     1      -7.321   6.866  68.253  1.00  0.00    -0.091 OA 
BRANCH  37  38
HETATM   38  C   UNL     1      -6.148   7.069  67.613  1.00  0.00    -0.033 C  
HETATM   39  O   UNL     1      -5.146   6.382  67.703  1.00  0.00    -0.004 OA 
BRANCH  38  40
HETATM   40  O   UNL     1      -6.315   8.159  66.840  1.00  0.00    -0.053 OA 
BRANCH  40  41
HETATM   41  C   UNL     1      -6.044   8.200  65.420  1.00  0.00    -0.045 C  
HETATM   42  C   UNL     1      -8.263   9.210  63.713  1.00  0.00    -0.173 C  
HETATM   43  C   UNL     1      -7.060   7.272  64.749  1.00  0.00    -0.064 C  
HETATM   44  C   UNL     1      -8.410   7.957  64.565  1.00  0.00    -0.021 C  
HETATM   45  C   UNL     1      -7.260  10.198  64.301  1.00  0.00    -0.108 C  
HETATM   46  C   UNL     1      -5.933   9.556  64.716  1.00  0.00    -0.074 C  
ENDBRANCH  40  41
ENDBRANCH  38  40
ENDBRANCH  37  38
ENDBRANCH  35  37
ENDBRANCH  34  35
ENDBRANCH  32  34
ENDBRANCH   8  32
ENDBRANCH   3   4
ENDBRANCH   2   3
TORSDOF 13
ENDMDL
MODEL      126
REMARK 921   NORMALIZED FREE ENERGY PREDICTED BY IDOCK:   -6.03 KCAL/MOL
REMARK 922        TOTAL FREE ENERGY PREDICTED BY IDOCK:  -13.06 KCAL/MOL
REMARK 923 INTER-LIGAND FREE ENERGY PREDICTED BY IDOCK:  -11.38 KCAL/MOL
REMARK 924 INTRA-LIGAND FREE ENERGY PREDICTED BY IDOCK:   -1.68 KCAL/MOL
REMARK 927      BINDING AFFINITY PREDICTED BY RF-SCORE:    0.00 PKD
ROOT
HETATM    1  C   UNL     1      -5.532   8.149  67.154  1.00  0.00    -0.037 C  
HETATM    2  C   UNL     1      -6.134   8.396  65.783  1.00  0.00    -0.048 C  
ENDROOT
BRANCH   2   3
HETATM    3  O   UNL     1      -7.511   8.009  65.833  1.00  0.00    -0.077 OA 
BRANCH   3   4
HETATM    4  C   UNL     1      -8.368   8.939  65.419  1.00  0.00    -0.148 A  
HETATM    5  N   UNL     1      -8.589   9.241  64.161  1.00  0.00    -0.193 NA 
HETATM    6  C   UNL     1      -9.521  10.236  64.197  1.00  0.00    -0.301 A  
HETATM    7  C   UNL     1      -9.948  10.517  65.510  1.00  0.00    -0.279 A  
HETATM    8  C   UNL     1     -11.002  11.441  65.722  1.00  0.00    -0.256 A  
HETATM    9  N   UNL     1      -9.094   9.736  66.278  1.00  0.00    -0.152 NA 
HETATM   10  C   UNL     1     -11.026  11.898  63.305  1.00  0.00    -0.399 A  
HETATM   11  C   UNL     1     -10.035  10.947  63.099  1.00  0.00    -0.368 A  
HETATM   12  C   UNL     1     -11.516  12.111  64.588  1.00  0.00    -0.388 A  
BRANCH   9  13
HETATM   13  C   UNL     1      -8.787   9.802  67.707  1.00  0.00    -0.129 C  
BRANCH  13  14
HETATM   14  C   UNL     1      -9.317   8.623  68.483  1.00  0.00    -0.138 A  
HETATM   15  C   UNL     1     -10.712   6.653  68.661  1.00  0.00    -0.303 A  
HETATM   16  C   UNL     1      -9.817   6.076  69.579  1.00  0.00    -0.202 A  
HETATM   17  C   UNL     1      -8.642   8.209  69.633  1.00  0.00    -0.131 A  
HETATM   18  C   UNL     1     -10.429   7.892  68.070  1.00  0.00    -0.245 A  
HETATM   19  C   UNL     1      -8.875   6.940  70.161  1.00  0.00    -0.145 A  
BRANCH  16  20
HETATM   20  C   UNL     1      -9.749   4.604  69.816  1.00  0.00    -0.280 A  
HETATM   21  C   UNL     1      -9.825   4.114  71.143  1.00  0.00    -0.244 A  
HETATM   22  C   UNL     1      -9.503   3.645  68.787  1.00  0.00    -0.214 A  
HETATM   23  C   UNL     1      -9.685   2.757  71.450  1.00  0.00    -0.218 A  
HETATM   24  C   UNL     1      -9.430   2.273  69.117  1.00  0.00    -0.143 A  
HETATM   25  C   UNL     1      -9.509   1.832  70.434  1.00  0.00    -0.153 A  
BRANCH  22  26
HETATM   26  C   UNL     1      -9.251   3.953  67.373  1.00  0.00    -0.172 A  
HETATM   27  N   UNL     1     -10.156   4.091  66.418  1.00  0.00    -0.401 NA 
HETATM   28  H   UNL     1     -11.167   4.015  66.523  1.00  0.00     0.000 HD 
HETATM   29  N   UNL     1      -9.470   4.358  65.259  1.00  0.00    -0.163 NA 
HETATM   30  N   UNL     1      -8.164   4.362  65.472  1.00  0.00    -0.109 NA 
HETATM   31  N   UNL     1      -8.025   4.066  66.772  1.00  0.00    -0.096 NA 
ENDBRANCH  22  26
ENDBRANCH  16  20
ENDBRANCH  13  14
ENDBRANCH   9  13
BRANCH   8  32
HETATM   32  C   UNL     1     -11.503  11.870  67.049  1.00  0.00    -0.316 C  
HETATM   33  O   UNL     1     -12.032  11.110  67.842  1.00  0.00    -0.624 OA 
BRANCH  32  34
HETATM   34  O   UNL     1     -11.098  13.132  67.344  1.00  0.00    -0.261 OA 
BRANCH  34  35
HETATM   35  C   UNL     1     -10.788  13.296  68.736  1.00  0.00    -0.243 C  
HETATM   36  C   UNL     1      -9.750  14.419  68.797  1.00  0.00    -0.190 C  
BRANCH  35  37
HETATM   37  O   UNL     1     -11.895  13.776  69.500  1.00  0.00    -0.296 OA 
BRANCH  37  38
HETATM   38  C   UNL     1     -12.320  12.970  70.498  1.00  0.00    -0.287 C  
HETATM   39  O   UNL     1     -11.841  11.895  70.814  1.00  0.00    -0.213 OA 
BRANCH  38  40
HETATM   40  O   UNL     1     -13.355  13.599  71.087  1.00  0.00    -0.238 OA 
BRANCH  40  41
HETATM   41  C   UNL     1     -13.510  15.036  71.140  1.00  0.00    -0.437 C  
HETATM   42  C   UNL     1     -12.048  16.412  73.336  1.00  0.00    -0.534 C  
HETATM   43  C   UNL     1     -14.158  15.361  72.488  1.00  0.00    -0.593 C  
HETATM   44  C   UNL     1     -13.130  15.378  73.615  1.00  0.00    -0.509 C  
HETATM   45  C   UNL     1     -11.346  16.173  72.003  1.00  0.00    -0.134 C  
HETATM   46  C   UNL     1     -12.306  15.933  70.834  1.00  0.00    -0.373 C  
ENDBRANCH  40  41
ENDBRANCH  38  40
ENDBRANCH  37  38
ENDBRANCH  35  37
ENDBRANCH  34  35
ENDBRANCH  32  34
ENDBRANCH   8  32
ENDBRANCH   3   4
ENDBRANCH   2   3
TORSDOF 13
ENDMDL
MODEL      127
REMARK 921   NORMALIZED FREE ENERGY PREDICTED BY IDOCK:   -6.02 KCAL/MOL
REMARK 922        TOTAL FREE ENERGY PREDICTED BY IDOCK:  -13.05 KCAL/MOL
REMARK 923 INTER-LIGAND FREE ENERGY PREDICTED BY IDOCK:  -11.87 KCAL/MOL
REMARK 924 INTRA-LIGAND FREE ENERGY PREDICTED BY IDOCK:   -1.18 KCAL/MOL
REMARK 927      BINDING AFFINITY PREDICTED BY RF-SCORE:    0.00 PKD
ROOT
HETATM    1  C   UNL     1     -11.963   8.162  71.894  1.00  0.00    -0.367 C  
HETATM    2  C   UNL     1     -12.945   9.285  72.179  1.00  0.00    -0.424 C  
ENDROOT
BRANCH   2   3
HETATM    3  O   UNL     1     -13.057  10.079  70.994  1.00  0.00    -0.375 OA 
BRANCH   3   4
HETATM    4  C   UNL     1     -12.906  11.387  71.181  1.00  0.00    -0.341 A  
HETATM    5  N   UNL     1     -13.426  12.062  72.180  1.00  0.00    -0.396 NA 
HETATM    6  C   UNL     1     -13.028  13.351  71.978  1.00  0.00    -0.310 A  
HETATM    7  C   UNL     1     -12.177  13.477  70.861  1.00  0.00    -0.305 A  
HETATM    8  C   UNL     1     -11.574  14.727  70.577  1.00  0.00    -0.333 A  
HETATM    9  N   UNL     1     -12.217  12.203  70.308  1.00  0.00    -0.299 NA 
HETATM   10  C   UNL     1     -12.849  15.714  72.434  1.00  0.00    -0.519 A  
HETATM   11  C   UNL     1     -13.389  14.472  72.744  1.00  0.00    -0.600 A  
HETATM   12  C   UNL     1     -11.937  15.824  71.391  1.00  0.00    -0.499 A  
BRANCH   9  13
HETATM   13  C   UNL     1     -11.823  11.741  68.977  1.00  0.00    -0.317 C  
BRANCH  13  14
HETATM   14  C   UNL     1     -10.951  10.511  69.009  1.00  0.00    -0.289 A  
HETATM   15  C   UNL     1     -10.156   8.449  68.025  1.00  0.00    -0.245 A  
HETATM   16  C   UNL     1      -8.913   8.599  68.662  1.00  0.00    -0.142 A  
HETATM   17  C   UNL     1      -9.875  10.465  69.897  1.00  0.00    -0.052 A  
HETATM   18  C   UNL     1     -11.146   9.433  68.147  1.00  0.00    -0.000 A  
HETATM   19  C   UNL     1      -8.856   9.531  69.710  1.00  0.00    -0.211 A  
BRANCH  16  20
HETATM   20  C   UNL     1      -7.671   7.933  68.168  1.00  0.00    -0.125 A  
HETATM   21  C   UNL     1      -7.535   6.531  68.310  1.00  0.00    -0.095 A  
HETATM   22  C   UNL     1      -6.546   8.641  67.647  1.00  0.00    -0.062 A  
HETATM   23  C   UNL     1      -6.369   5.850  67.947  1.00  0.00    -0.041 A  
HETATM   24  C   UNL     1      -5.404   7.921  67.228  1.00  0.00    -0.035 A  
HETATM   25  C   UNL     1      -5.309   6.543  67.385  1.00  0.00    -0.008 A  
BRANCH  22  26
HETATM   26  C   UNL     1      -6.424  10.102  67.549  1.00  0.00    -0.066 A  
HETATM   27  N   UNL     1      -5.749  10.898  68.361  1.00  0.00    -0.043 NA 
HETATM   28  H   UNL     1      -5.201  10.615  69.174  1.00  0.00     0.000 HD 
HETATM   29  N   UNL     1      -5.926  12.179  67.899  1.00  0.00    -0.063 NA 
HETATM   30  N   UNL     1      -6.715  12.192  66.836  1.00  0.00    -0.063 NA 
HETATM   31  N   UNL     1      -7.061  10.911  66.646  1.00  0.00    -0.128 NA 
ENDBRANCH  22  26
ENDBRANCH  16  20
ENDBRANCH  13  14
ENDBRANCH   9  13
BRANCH   8  32
HETATM   32  C   UNL     1     -10.712  15.008  69.404  1.00  0.00    -0.261 C  
HETATM   33  O   UNL     1      -9.938  14.192  68.932  1.00  0.00    -0.210 OA 
BRANCH  32  34
HETATM   34  O   UNL     1     -11.058  16.177  68.807  1.00  0.00    -0.313 OA 
BRANCH  34  35
HETATM   35  C   UNL     1     -10.495  16.310  67.493  1.00  0.00    -0.302 C  
HETATM   36  C   UNL     1      -8.978  16.308  67.694  1.00  0.00    -0.194 C  
BRANCH  35  37
HETATM   37  O   UNL     1     -10.757  15.181  66.658  1.00  0.00    -0.300 OA 
BRANCH  37  38
HETATM   38  C   UNL     1     -11.162  15.457  65.399  1.00  0.00    -0.272 C  
HETATM   39  O   UNL     1     -10.759  16.364  64.692  1.00  0.00    -0.693 OA 
BRANCH  38  40
HETATM   40  O   UNL     1     -12.073  14.521  65.073  1.00  0.00    -0.391 OA 
BRANCH  40  41
HETATM   41  C   UNL     1     -12.015  13.143  65.507  1.00  0.00    -0.412 C  
HETATM   42  C   UNL     1     -10.605  11.271  63.672  1.00  0.00    -0.453 C  
HETATM   43  C   UNL     1     -12.746  12.314  64.448  1.00  0.00    -0.384 C  
HETATM   44  C   UNL     1     -11.854  12.028  63.244  1.00  0.00    -0.450 C  
HETATM   45  C   UNL     1      -9.808  12.019  64.737  1.00  0.00    -0.186 C  
HETATM   46  C   UNL     1     -10.663  12.535  65.898  1.00  0.00    -0.294 C  
ENDBRANCH  40  41
ENDBRANCH  38  40
ENDBRANCH  37  38
ENDBRANCH  35  37
ENDBRANCH  34  35
ENDBRANCH  32  34
ENDBRANCH   8  32
ENDBRANCH   3   4
ENDBRANCH   2   3
TORSDOF 13
ENDMDL
MODEL      128
REMARK 921   NORMALIZED FREE ENERGY PREDICTED BY IDOCK:   -6.02 KCAL/MOL
REMARK 922        TOTAL FREE ENERGY PREDICTED BY IDOCK:  -13.05 KCAL/MOL
REMARK 923 INTER-LIGAND FREE ENERGY PREDICTED BY IDOCK:   -9.35 KCAL/MOL
REMARK 924 INTRA-LIGAND FREE ENERGY PREDICTED BY IDOCK:   -3.70 KCAL/MOL
REMARK 927      BINDING AFFINITY PREDICTED BY RF-SCORE:    0.00 PKD
ROOT
HETATM    1  C   UNL     1     -14.120   9.026  72.334  1.00  0.00    -0.478 C  
HETATM    2  C   UNL     1     -13.042   9.173  71.275  1.00  0.00    -0.240 C  
ENDROOT
BRANCH   2   3
HETATM    3  O   UNL     1     -11.778   9.236  71.943  1.00  0.00    -0.370 OA 
BRANCH   3   4
HETATM    4  C   UNL     1     -10.971   8.204  71.711  1.00  0.00    -0.261 A  
HETATM    5  N   UNL     1     -11.133   7.003  72.215  1.00  0.00    -0.244 NA 
HETATM    6  C   UNL     1     -10.089   6.273  71.726  1.00  0.00    -0.186 A  
HETATM    7  C   UNL     1      -9.290   7.018  70.836  1.00  0.00    -0.157 A  
HETATM    8  C   UNL     1      -8.233   6.379  70.142  1.00  0.00    -0.129 A  
HETATM    9  N   UNL     1      -9.829   8.294  70.943  1.00  0.00    -0.179 NA 
HETATM   10  C   UNL     1      -8.707   4.322  71.405  1.00  0.00    -0.139 A  
HETATM   11  C   UNL     1      -9.780   4.938  72.036  1.00  0.00    -0.219 A  
HETATM   12  C   UNL     1      -7.973   5.025  70.456  1.00  0.00    -0.081 A  
BRANCH   9  13
HETATM   13  C   UNL     1      -9.275   9.587  70.540  1.00  0.00    -0.225 C  
BRANCH  13  14
HETATM   14  C   UNL     1      -9.510   9.905  69.085  1.00  0.00    -0.201 A  
HETATM   15  C   UNL     1     -10.892   9.860  67.099  1.00  0.00    -0.227 A  
HETATM   16  C   UNL     1     -10.295  11.043  66.630  1.00  0.00    -0.288 A  
HETATM   17  C   UNL     1      -8.696  10.850  68.457  1.00  0.00    -0.153 A  
HETATM   18  C   UNL     1     -10.546   9.331  68.349  1.00  0.00    -0.234 A  
HETATM   19  C   UNL     1      -9.097  11.428  67.253  1.00  0.00    -0.162 A  
BRANCH  16  20
HETATM   20  C   UNL     1     -10.960  11.940  65.639  1.00  0.00    -0.353 A  
HETATM   21  C   UNL     1     -11.984  12.814  66.076  1.00  0.00    -0.491 A  
HETATM   22  C   UNL     1     -10.700  11.900  64.235  1.00  0.00    -0.388 A  
HETATM   23  C   UNL     1     -12.707  13.622  65.193  1.00  0.00    -0.443 A  
HETATM   24  C   UNL     1     -11.401  12.773  63.373  1.00  0.00    -0.395 A  
HETATM   25  C   UNL     1     -12.401  13.618  63.842  1.00  0.00    -0.375 A  
BRANCH  22  26
HETATM   26  C   UNL     1      -9.785  10.970  63.560  1.00  0.00    -0.337 A  
HETATM   27  N   UNL     1      -9.858   9.650  63.552  1.00  0.00    -0.302 NA 
HETATM   28  H   UNL     1     -10.570   9.078  64.006  1.00  0.00     0.000 HD 
HETATM   29  N   UNL     1      -8.792   9.198  62.813  1.00  0.00    -0.193 NA 
HETATM   30  N   UNL     1      -8.050  10.209  62.388  1.00  0.00    -0.133 NA 
HETATM   31  N   UNL     1      -8.638  11.304  62.888  1.00  0.00    -0.071 NA 
ENDBRANCH  22  26
ENDBRANCH  16  20
ENDBRANCH  13  14
ENDBRANCH   9  13
BRANCH   8  32
HETATM   32  C   UNL     1      -7.283   7.057  69.228  1.00  0.00    -0.086 C  
HETATM   33  O   UNL     1      -6.480   7.896  69.600  1.00  0.00    -0.033 OA 
BRANCH  32  34
HETATM   34  O   UNL     1      -7.271   6.468  68.005  1.00  0.00    -0.083 OA 
BRANCH  34  35
HETATM   35  C   UNL     1      -6.225   6.976  67.162  1.00  0.00    -0.044 C  
HETATM   36  C   UNL     1      -5.301   5.787  66.892  1.00  0.00    -0.005 C  
BRANCH  35  37
HETATM   37  O   UNL     1      -6.694   7.378  65.875  1.00  0.00    -0.051 OA 
BRANCH  37  38
HETATM   38  C   UNL     1      -7.973   7.053  65.581  1.00  0.00    -0.123 C  
HETATM   39  O   UNL     1      -8.949   7.772  65.705  1.00  0.00    -0.150 OA 
BRANCH  38  40
HETATM   40  O   UNL     1      -7.951   5.795  65.102  1.00  0.00    -0.105 OA 
BRANCH  40  41
HETATM   41  C   UNL     1      -9.086   4.900  65.110  1.00  0.00    -0.144 C  
HETATM   42  C   UNL     1      -9.388   3.221  67.549  1.00  0.00    -0.250 C  
HETATM   43  C   UNL     1      -8.528   3.479  65.211  1.00  0.00    -0.106 C  
HETATM   44  C   UNL     1      -8.166   3.117  66.647  1.00  0.00    -0.089 C  
HETATM   45  C   UNL     1     -10.021   4.609  67.512  1.00  0.00    -0.174 C  
HETATM   46  C   UNL     1     -10.233   5.152  66.095  1.00  0.00    -0.258 C  
ENDBRANCH  40  41
ENDBRANCH  38  40
ENDBRANCH  37  38
ENDBRANCH  35  37
ENDBRANCH  34  35
ENDBRANCH  32  34
ENDBRANCH   8  32
ENDBRANCH   3   4
ENDBRANCH   2   3
TORSDOF 13
ENDMDL
MODEL      129
REMARK 921   NORMALIZED FREE ENERGY PREDICTED BY IDOCK:   -6.01 KCAL/MOL
REMARK 922        TOTAL FREE ENERGY PREDICTED BY IDOCK:  -13.02 KCAL/MOL
REMARK 923 INTER-LIGAND FREE ENERGY PREDICTED BY IDOCK:   -9.39 KCAL/MOL
REMARK 924 INTRA-LIGAND FREE ENERGY PREDICTED BY IDOCK:   -3.64 KCAL/MOL
REMARK 927      BINDING AFFINITY PREDICTED BY RF-SCORE:    0.00 PKD
ROOT
HETATM    1  C   UNL     1     -11.387   6.311  71.909  1.00  0.00    -0.348 C  
HETATM    2  C   UNL     1     -10.299   7.348  72.127  1.00  0.00    -0.199 C  
ENDROOT
BRANCH   2   3
HETATM    3  O   UNL     1     -10.600   8.478  71.301  1.00  0.00    -0.211 OA 
BRANCH   3   4
HETATM    4  C   UNL     1      -9.541   9.059  70.743  1.00  0.00    -0.249 A  
HETATM    5  N   UNL     1      -8.376   9.207  71.331  1.00  0.00    -0.337 NA 
HETATM    6  C   UNL     1      -7.599   9.849  70.412  1.00  0.00    -0.099 A  
HETATM    7  C   UNL     1      -8.273  10.048  69.190  1.00  0.00    -0.137 A  
HETATM    8  C   UNL     1      -7.574  10.593  68.085  1.00  0.00    -0.092 A  
HETATM    9  N   UNL     1      -9.563   9.625  69.486  1.00  0.00    -0.185 NA 
HETATM   10  C   UNL     1      -5.607  10.889  69.532  1.00  0.00    -0.039 A  
HETATM   11  C   UNL     1      -6.280  10.298  70.593  1.00  0.00    -0.093 A  
HETATM   12  C   UNL     1      -6.237  11.001  68.298  1.00  0.00    -0.049 A  
BRANCH   9  13
HETATM   13  C   UNL     1     -10.818   9.861  68.773  1.00  0.00    -0.208 C  
BRANCH  13  14
HETATM   14  C   UNL     1     -11.142  11.325  68.610  1.00  0.00    -0.286 A  
HETATM   15  C   UNL     1     -10.671  13.661  69.028  1.00  0.00    -0.194 A  
HETATM   16  C   UNL     1     -11.267  14.022  67.807  1.00  0.00    -0.302 A  
HETATM   17  C   UNL     1     -12.025  11.716  67.602  1.00  0.00    -0.086 A  
HETATM   18  C   UNL     1     -10.554  12.315  69.396  1.00  0.00     0.179 A  
HETATM   19  C   UNL     1     -12.069  13.048  67.191  1.00  0.00    -0.325 A  
BRANCH  16  20
HETATM   20  C   UNL     1     -10.951  15.301  67.106  1.00  0.00    -0.331 A  
HETATM   21  C   UNL     1     -10.800  16.486  67.867  1.00  0.00    -0.326 A  
HETATM   22  C   UNL     1     -10.894  15.434  65.686  1.00  0.00    -0.363 A  
HETATM   23  C   UNL     1     -10.586  17.735  67.274  1.00  0.00    -0.322 A  
HETATM   24  C   UNL     1     -10.612  16.697  65.116  1.00  0.00    -0.181 A  
HETATM   25  C   UNL     1     -10.471  17.838  65.898  1.00  0.00    -0.251 A  
BRANCH  22  26
HETATM   26  C   UNL     1     -11.162  14.366  64.714  1.00  0.00    -0.387 A  
HETATM   27  N   UNL     1     -10.318  13.433  64.307  1.00  0.00    -0.635 NA 
HETATM   28  H   UNL     1      -9.353  13.309  64.615  1.00  0.00     0.000 HD 
HETATM   29  N   UNL     1     -10.990  12.663  63.390  1.00  0.00    -0.369 NA 
HETATM   30  N   UNL     1     -12.220  13.115  63.205  1.00  0.00    -0.590 NA 
HETATM   31  N   UNL     1     -12.313  14.197  63.990  1.00  0.00    -0.689 NA 
ENDBRANCH  22  26
ENDBRANCH  16  20
ENDBRANCH  13  14
ENDBRANCH   9  13
BRANCH   8  32
HETATM   32  C   UNL     1      -8.177  10.908  66.768  1.00  0.00    -0.140 C  
HETATM   33  O   UNL     1      -8.674  11.989  66.502  1.00  0.00    -0.194 OA 
BRANCH  32  34
HETATM   34  O   UNL     1      -7.901   9.941  65.855  1.00  0.00    -0.109 OA 
BRANCH  34  35
HETATM   35  C   UNL     1      -9.087   9.312  65.347  1.00  0.00    -0.222 C  
HETATM   36  C   UNL     1      -9.103   9.616  63.847  1.00  0.00    -0.229 C  
BRANCH  35  37
HETATM   37  O   UNL     1      -9.043   7.888  65.434  1.00  0.00     0.005 OA 
BRANCH  37  38
HETATM   38  C   UNL     1      -9.668   7.339  66.499  1.00  0.00    -0.140 C  
HETATM   39  O   UNL     1     -10.866   7.153  66.618  1.00  0.00    -0.233 OA 
BRANCH  38  40
HETATM   40  O   UNL     1      -8.707   7.017  67.386  1.00  0.00    -0.120 OA 
BRANCH  40  41
HETATM   41  C   UNL     1      -7.537   6.229  67.069  1.00  0.00    -0.095 C  
HETATM   42  C   UNL     1      -5.641   5.773  69.316  1.00  0.00    -0.008 C  
HETATM   43  C   UNL     1      -6.320   7.123  67.319  1.00  0.00    -0.049 C  
HETATM   44  C   UNL     1      -5.953   7.170  68.798  1.00  0.00    -0.023 C  
HETATM   45  C   UNL     1      -6.798   4.803  69.104  1.00  0.00    -0.050 C  
HETATM   46  C   UNL     1      -7.380   4.836  67.688  1.00  0.00    -0.074 C  
ENDBRANCH  40  41
ENDBRANCH  38  40
ENDBRANCH  37  38
ENDBRANCH  35  37
ENDBRANCH  34  35
ENDBRANCH  32  34
ENDBRANCH   8  32
ENDBRANCH   3   4
ENDBRANCH   2   3
TORSDOF 13
ENDMDL
MODEL      130
REMARK 921   NORMALIZED FREE ENERGY PREDICTED BY IDOCK:   -5.99 KCAL/MOL
REMARK 922        TOTAL FREE ENERGY PREDICTED BY IDOCK:  -13.00 KCAL/MOL
REMARK 923 INTER-LIGAND FREE ENERGY PREDICTED BY IDOCK:  -12.26 KCAL/MOL
REMARK 924 INTRA-LIGAND FREE ENERGY PREDICTED BY IDOCK:   -0.74 KCAL/MOL
REMARK 927      BINDING AFFINITY PREDICTED BY RF-SCORE:    0.00 PKD
ROOT
HETATM    1  C   UNL     1     -13.057   8.285  72.277  1.00  0.00    -0.263 C  
HETATM    2  C   UNL     1     -13.785   9.282  71.392  1.00  0.00    -0.261 C  
ENDROOT
BRANCH   2   3
HETATM    3  O   UNL     1     -12.799  10.023  70.665  1.00  0.00    -0.282 OA 
BRANCH   3   4
HETATM    4  C   UNL     1     -12.763  11.324  70.940  1.00  0.00    -0.318 A  
HETATM    5  N   UNL     1     -13.355  11.884  71.970  1.00  0.00    -0.441 NA 
HETATM    6  C   UNL     1     -13.067  13.213  71.860  1.00  0.00    -0.385 A  
HETATM    7  C   UNL     1     -12.215  13.484  70.771  1.00  0.00    -0.338 A  
HETATM    8  C   UNL     1     -11.718  14.797  70.580  1.00  0.00    -0.353 A  
HETATM    9  N   UNL     1     -12.136  12.251  70.136  1.00  0.00    -0.321 NA 
HETATM   10  C   UNL     1     -13.100  15.547  72.472  1.00  0.00    -0.537 A  
HETATM   11  C   UNL     1     -13.535  14.246  72.690  1.00  0.00    -0.623 A  
HETATM   12  C   UNL     1     -12.186  15.803  71.457  1.00  0.00    -0.513 A  
BRANCH   9  13
HETATM   13  C   UNL     1     -11.684  11.914  68.786  1.00  0.00    -0.321 C  
BRANCH  13  14
HETATM   14  C   UNL     1     -10.859  10.653  68.733  1.00  0.00    -0.269 A  
HETATM   15  C   UNL     1      -9.443   8.998  69.787  1.00  0.00    -0.181 A  
HETATM   16  C   UNL     1      -9.896   8.011  68.894  1.00  0.00    -0.176 A  
HETATM   17  C   UNL     1     -11.025   9.779  67.657  1.00  0.00    -0.226 A  
HETATM   18  C   UNL     1      -9.970  10.296  69.745  1.00  0.00    -0.222 A  
HETATM   19  C   UNL     1     -10.566   8.466  67.747  1.00  0.00    -0.238 A  
BRANCH  16  20
HETATM   20  C   UNL     1      -9.821   6.553  69.204  1.00  0.00    -0.156 A  
HETATM   21  C   UNL     1     -10.208   6.099  70.489  1.00  0.00    -0.251 A  
HETATM   22  C   UNL     1      -9.278   5.580  68.313  1.00  0.00    -0.118 A  
HETATM   23  C   UNL     1     -10.086   4.762  70.879  1.00  0.00    -0.275 A  
HETATM   24  C   UNL     1      -9.226   4.224  68.709  1.00  0.00    -0.200 A  
HETATM   25  C   UNL     1      -9.616   3.818  69.981  1.00  0.00    -0.259 A  
BRANCH  22  26
HETATM   26  C   UNL     1      -8.691   5.859  66.995  1.00  0.00    -0.109 A  
HETATM   27  N   UNL     1      -9.308   5.816  65.827  1.00  0.00    -0.329 NA 
HETATM   28  H   UNL     1     -10.290   5.593  65.665  1.00  0.00     0.000 HD 
HETATM   29  N   UNL     1      -8.372   6.132  64.872  1.00  0.00    -0.126 NA 
HETATM   30  N   UNL     1      -7.188   6.343  65.424  1.00  0.00    -0.068 NA 
HETATM   31  N   UNL     1      -7.373   6.129  66.734  1.00  0.00    -0.077 NA 
ENDBRANCH  22  26
ENDBRANCH  16  20
ENDBRANCH  13  14
ENDBRANCH   9  13
BRANCH   8  32
HETATM   32  C   UNL     1     -10.866  15.229  69.446  1.00  0.00    -0.262 C  
HETATM   33  O   UNL     1     -10.768  14.598  68.407  1.00  0.00    -0.231 OA 
BRANCH  32  34
HETATM   34  O   UNL     1     -10.410  16.495  69.625  1.00  0.00    -0.277 OA 
BRANCH  34  35
HETATM   35  C   UNL     1      -9.971  17.098  68.399  1.00  0.00    -0.310 C  
HETATM   36  C   UNL     1     -10.222  18.598  68.565  1.00  0.00    -0.398 C  
BRANCH  35  37
HETATM   37  O   UNL     1      -8.562  16.981  68.196  1.00  0.00    -0.214 OA 
BRANCH  37  38
HETATM   38  C   UNL     1      -8.154  16.897  66.910  1.00  0.00    -0.216 C  
HETATM   39  O   UNL     1      -8.862  16.708  65.937  1.00  0.00    -0.486 OA 
BRANCH  38  40
HETATM   40  O   UNL     1      -6.822  17.091  66.916  1.00  0.00    -0.169 OA 
BRANCH  40  41
HETATM   41  C   UNL     1      -6.186  18.375  67.110  1.00  0.00    -0.169 C  
HETATM   42  C   UNL     1      -6.532  20.334  64.897  1.00  0.00    -0.335 C  
HETATM   43  C   UNL     1      -5.165  18.538  65.982  1.00  0.00    -0.184 C  
HETATM   44  C   UNL     1      -5.825  19.002  64.689  1.00  0.00    -0.319 C  
HETATM   45  C   UNL     1      -7.571  20.272  66.012  1.00  0.00    -0.220 C  
HETATM   46  C   UNL     1      -7.056  19.622  67.300  1.00  0.00    -0.237 C  
ENDBRANCH  40  41
ENDBRANCH  38  40
ENDBRANCH  37  38
ENDBRANCH  35  37
ENDBRANCH  34  35
ENDBRANCH  32  34
ENDBRANCH   8  32
ENDBRANCH   3   4
ENDBRANCH   2   3
TORSDOF 13
ENDMDL
MODEL      131
REMARK 921   NORMALIZED FREE ENERGY PREDICTED BY IDOCK:   -5.97 KCAL/MOL
REMARK 922        TOTAL FREE ENERGY PREDICTED BY IDOCK:  -12.96 KCAL/MOL
REMARK 923 INTER-LIGAND FREE ENERGY PREDICTED BY IDOCK:  -10.44 KCAL/MOL
REMARK 924 INTRA-LIGAND FREE ENERGY PREDICTED BY IDOCK:   -2.52 KCAL/MOL
REMARK 927      BINDING AFFINITY PREDICTED BY RF-SCORE:    0.00 PKD
ROOT
HETATM    1  C   UNL     1      -5.691  11.490  68.992  1.00  0.00    -0.048 C  
HETATM    2  C   UNL     1      -7.106  11.242  69.483  1.00  0.00    -0.058 C  
ENDROOT
BRANCH   2   3
HETATM    3  O   UNL     1      -7.378   9.843  69.346  1.00  0.00    -0.073 OA 
BRANCH   3   4
HETATM    4  C   UNL     1      -7.777   9.240  70.463  1.00  0.00    -0.148 A  
HETATM    5  N   UNL     1      -7.013   9.028  71.509  1.00  0.00    -0.237 NA 
HETATM    6  C   UNL     1      -7.817   8.386  72.406  1.00  0.00    -0.099 A  
HETATM    7  C   UNL     1      -9.139   8.255  71.937  1.00  0.00    -0.195 A  
HETATM    8  C   UNL     1     -10.135   7.720  72.791  1.00  0.00    -0.344 A  
HETATM    9  N   UNL     1      -9.042   8.718  70.630  1.00  0.00    -0.169 NA 
HETATM   10  C   UNL     1      -8.398   7.300  74.481  1.00  0.00    -0.233 A  
HETATM   11  C   UNL     1      -7.439   7.882  73.662  1.00  0.00    -0.179 A  
HETATM   12  C   UNL     1      -9.722   7.253  74.060  1.00  0.00    -0.277 A  
BRANCH   9  13
HETATM   13  C   UNL     1      -9.960   8.554  69.503  1.00  0.00    -0.193 C  
BRANCH  13  14
HETATM   14  C   UNL     1      -9.917   7.173  68.898  1.00  0.00    -0.163 A  
HETATM   15  C   UNL     1     -10.524   5.596  67.166  1.00  0.00    -0.334 A  
HETATM   16  C   UNL     1      -9.336   4.875  67.377  1.00  0.00    -0.145 A  
HETATM   17  C   UNL     1      -8.944   6.272  69.334  1.00  0.00    -0.126 A  
HETATM   18  C   UNL     1     -10.781   6.774  67.879  1.00  0.00    -0.320 A  
HETATM   19  C   UNL     1      -8.643   5.146  68.568  1.00  0.00    -0.094 A  
BRANCH  16  20
HETATM   20  C   UNL     1      -8.742   3.984  66.337  1.00  0.00    -0.116 A  
HETATM   21  C   UNL     1      -9.031   2.598  66.367  1.00  0.00    -0.147 A  
HETATM   22  C   UNL     1      -7.800   4.425  65.359  1.00  0.00    -0.090 A  
HETATM   23  C   UNL     1      -8.446   1.691  65.478  1.00  0.00    -0.102 A  
HETATM   24  C   UNL     1      -7.274   3.498  64.431  1.00  0.00    -0.059 A  
HETATM   25  C   UNL     1      -7.583   2.143  64.495  1.00  0.00    -0.064 A  
BRANCH  22  26
HETATM   26  C   UNL     1      -7.258   5.786  65.246  1.00  0.00    -0.070 A  
HETATM   27  N   UNL     1      -6.072   6.204  65.657  1.00  0.00    -0.032 NA 
HETATM   28  H   UNL     1      -5.351   5.640  66.106  1.00  0.00     0.000 HD 
HETATM   29  N   UNL     1      -6.000   7.543  65.361  1.00  0.00    -0.037 NA 
HETATM   30  N   UNL     1      -7.122   7.964  64.801  1.00  0.00    -0.069 NA 
HETATM   31  N   UNL     1      -7.920   6.888  64.771  1.00  0.00    -0.122 NA 
ENDBRANCH  22  26
ENDBRANCH  16  20
ENDBRANCH  13  14
ENDBRANCH   9  13
BRANCH   8  32
HETATM   32  C   UNL     1     -11.545   7.472  72.403  1.00  0.00    -0.309 C  
HETATM   33  O   UNL     1     -11.940   6.404  71.967  1.00  0.00    -0.329 OA 
BRANCH  32  34
HETATM   34  O   UNL     1     -12.352   8.487  72.804  1.00  0.00    -0.327 OA 
BRANCH  34  35
HETATM   35  C   UNL     1     -13.030   9.116  71.707  1.00  0.00    -0.380 C  
HETATM   36  C   UNL     1     -14.407   8.455  71.639  1.00  0.00    -0.536 C  
BRANCH  35  37
HETATM   37  O   UNL     1     -13.296  10.500  71.937  1.00  0.00    -0.418 OA 
BRANCH  37  38
HETATM   38  C   UNL     1     -12.696  11.369  71.093  1.00  0.00    -0.377 C  
HETATM   39  O   UNL     1     -12.328  11.134  69.956  1.00  0.00    -0.304 OA 
BRANCH  38  40
HETATM   40  O   UNL     1     -12.612  12.543  71.745  1.00  0.00    -0.163 OA 
BRANCH  40  41
HETATM   41  C   UNL     1     -13.269  13.759  71.321  1.00  0.00    -0.261 C  
HETATM   42  C   UNL     1     -12.210  16.278  72.501  1.00  0.00    -0.563 C  
HETATM   43  C   UNL     1     -13.867  14.401  72.576  1.00  0.00    -0.559 C  
HETATM   44  C   UNL     1     -12.817  15.180  73.362  1.00  0.00    -0.661 C  
HETATM   45  C   UNL     1     -11.592  15.734  71.217  1.00  0.00    -0.499 C  
HETATM   46  C   UNL     1     -12.502  14.765  70.456  1.00  0.00    -0.411 C  
ENDBRANCH  40  41
ENDBRANCH  38  40
ENDBRANCH  37  38
ENDBRANCH  35  37
ENDBRANCH  34  35
ENDBRANCH  32  34
ENDBRANCH   8  32
ENDBRANCH   3   4
ENDBRANCH   2   3
TORSDOF 13
ENDMDL
MODEL      132
REMARK 921   NORMALIZED FREE ENERGY PREDICTED BY IDOCK:   -5.96 KCAL/MOL
REMARK 922        TOTAL FREE ENERGY PREDICTED BY IDOCK:  -12.94 KCAL/MOL
REMARK 923 INTER-LIGAND FREE ENERGY PREDICTED BY IDOCK:  -10.47 KCAL/MOL
REMARK 924 INTRA-LIGAND FREE ENERGY PREDICTED BY IDOCK:   -2.47 KCAL/MOL
REMARK 927      BINDING AFFINITY PREDICTED BY RF-SCORE:    0.00 PKD
ROOT
HETATM    1  C   UNL     1     -14.332   8.223  71.886  1.00  0.00    -0.564 C  
HETATM    2  C   UNL     1     -13.183   9.109  71.439  1.00  0.00    -0.299 C  
ENDROOT
BRANCH   2   3
HETATM    3  O   UNL     1     -12.080   8.872  72.320  1.00  0.00    -0.358 OA 
BRANCH   3   4
HETATM    4  C   UNL     1     -11.325   7.824  72.000  1.00  0.00    -0.284 A  
HETATM    5  N   UNL     1     -11.551   6.594  72.400  1.00  0.00    -0.266 NA 
HETATM    6  C   UNL     1     -10.543   5.856  71.850  1.00  0.00    -0.231 A  
HETATM    7  C   UNL     1      -9.702   6.632  71.028  1.00  0.00    -0.175 A  
HETATM    8  C   UNL     1      -8.675   6.002  70.283  1.00  0.00    -0.143 A  
HETATM    9  N   UNL     1     -10.176   7.920  71.244  1.00  0.00    -0.187 NA 
HETATM   10  C   UNL     1      -9.259   3.872  71.364  1.00  0.00    -0.189 A  
HETATM   11  C   UNL     1     -10.303   4.485  72.044  1.00  0.00    -0.216 A  
HETATM   12  C   UNL     1      -8.487   4.615  70.479  1.00  0.00    -0.104 A  
BRANCH   9  13
HETATM   13  C   UNL     1      -9.555   9.213  70.954  1.00  0.00    -0.279 C  
BRANCH  13  14
HETATM   14  C   UNL     1      -9.759   9.663  69.529  1.00  0.00    -0.216 A  
HETATM   15  C   UNL     1     -11.122   9.854  67.539  1.00  0.00    -0.141 A  
HETATM   16  C   UNL     1     -10.461  11.039  67.173  1.00  0.00    -0.274 A  
HETATM   17  C   UNL     1      -8.892  10.613  68.987  1.00  0.00    -0.154 A  
HETATM   18  C   UNL     1     -10.815   9.206  68.742  1.00  0.00    -0.096 A  
HETATM   19  C   UNL     1      -9.251  11.308  67.833  1.00  0.00    -0.157 A  
BRANCH  16  20
HETATM   20  C   UNL     1     -11.068  12.048  66.256  1.00  0.00    -0.363 A  
HETATM   21  C   UNL     1     -10.841  11.940  64.862  1.00  0.00    -0.356 A  
HETATM   22  C   UNL     1     -11.790  13.195  66.706  1.00  0.00    -0.444 A  
HETATM   23  C   UNL     1     -11.308  12.893  63.951  1.00  0.00    -0.489 A  
HETATM   24  C   UNL     1     -12.305  14.109  65.758  1.00  0.00    -0.481 A  
HETATM   25  C   UNL     1     -12.059  13.967  64.396  1.00  0.00    -0.486 A  
BRANCH  22  26
HETATM   26  C   UNL     1     -12.013  13.571  68.108  1.00  0.00    -0.341 A  
HETATM   27  N   UNL     1     -12.160  14.794  68.588  1.00  0.00    -0.572 NA 
HETATM   28  H   UNL     1     -12.150  15.662  68.054  1.00  0.00     0.000 HD 
HETATM   29  N   UNL     1     -12.328  14.670  69.946  1.00  0.00    -0.316 NA 
HETATM   30  N   UNL     1     -12.263  13.400  70.315  1.00  0.00    -0.346 NA 
HETATM   31  N   UNL     1     -12.022  12.722  69.185  1.00  0.00    -0.277 NA 
ENDBRANCH  22  26
ENDBRANCH  16  20
ENDBRANCH  13  14
ENDBRANCH   9  13
BRANCH   8  32
HETATM   32  C   UNL     1      -7.687   6.707  69.431  1.00  0.00    -0.101 C  
HETATM   33  O   UNL     1      -6.486   6.682  69.640  1.00  0.00    -0.040 OA 
BRANCH  32  34
HETATM   34  O   UNL     1      -8.262   7.174  68.293  1.00  0.00    -0.122 OA 
BRANCH  34  35
HETATM   35  C   UNL     1      -8.652   6.119  67.402  1.00  0.00    -0.106 C  
HETATM   36  C   UNL     1      -9.866   6.651  66.639  1.00  0.00    -0.208 C  
BRANCH  35  37
HETATM   37  O   UNL     1      -7.673   5.850  66.396  1.00  0.00    -0.096 OA 
BRANCH  37  38
HETATM   38  C   UNL     1      -7.181   4.592  66.369  1.00  0.00    -0.076 C  
HETATM   39  O   UNL     1      -6.731   3.970  67.315  1.00  0.00    -0.045 OA 
BRANCH  38  40
HETATM   40  O   UNL     1      -7.311   4.156  65.102  1.00  0.00    -0.070 OA 
BRANCH  40  41
HETATM   41  C   UNL     1      -7.981   2.930  64.727  1.00  0.00    -0.082 C  
HETATM   42  C   UNL     1     -10.412   3.253  63.041  1.00  0.00    -0.198 C  
HETATM   43  C   UNL     1      -9.393   3.001  65.315  1.00  0.00    -0.122 C  
HETATM   44  C   UNL     1     -10.323   3.838  64.444  1.00  0.00    -0.235 C  
HETATM   45  C   UNL     1      -9.046   3.137  62.372  1.00  0.00    -0.087 C  
HETATM   46  C   UNL     1      -7.978   2.492  63.259  1.00  0.00    -0.072 C  
ENDBRANCH  40  41
ENDBRANCH  38  40
ENDBRANCH  37  38
ENDBRANCH  35  37
ENDBRANCH  34  35
ENDBRANCH  32  34
ENDBRANCH   8  32
ENDBRANCH   3   4
ENDBRANCH   2   3
TORSDOF 13
ENDMDL
MODEL      133
REMARK 921   NORMALIZED FREE ENERGY PREDICTED BY IDOCK:   -5.94 KCAL/MOL
REMARK 922        TOTAL FREE ENERGY PREDICTED BY IDOCK:  -12.90 KCAL/MOL
REMARK 923 INTER-LIGAND FREE ENERGY PREDICTED BY IDOCK:   -9.53 KCAL/MOL
REMARK 924 INTRA-LIGAND FREE ENERGY PREDICTED BY IDOCK:   -3.37 KCAL/MOL
REMARK 927      BINDING AFFINITY PREDICTED BY RF-SCORE:    0.00 PKD
ROOT
HETATM    1  C   UNL     1      -8.295   7.485  73.941  1.00  0.00    -0.230 C  
HETATM    2  C   UNL     1      -9.178   8.091  72.865  1.00  0.00    -0.265 C  
ENDROOT
BRANCH   2   3
HETATM    3  O   UNL     1      -8.647   7.703  71.594  1.00  0.00    -0.112 OA 
BRANCH   3   4
HETATM    4  C   UNL     1      -8.519   8.695  70.716  1.00  0.00    -0.158 A  
HETATM    5  N   UNL     1      -7.583   9.614  70.763  1.00  0.00    -0.310 NA 
HETATM    6  C   UNL     1      -7.830  10.421  69.691  1.00  0.00    -0.129 A  
HETATM    7  C   UNL     1      -8.907   9.955  68.911  1.00  0.00    -0.145 A  
HETATM    8  C   UNL     1      -9.224  10.606  67.693  1.00  0.00    -0.153 A  
HETATM    9  N   UNL     1      -9.396   8.901  69.673  1.00  0.00    -0.160 NA 
HETATM   10  C   UNL     1      -7.486  12.275  68.186  1.00  0.00    -0.112 A  
HETATM   11  C   UNL     1      -7.141  11.596  69.347  1.00  0.00    -0.007 A  
HETATM   12  C   UNL     1      -8.485  11.766  67.365  1.00  0.00    -0.158 A  
BRANCH   9  13
HETATM   13  C   UNL     1     -10.681   8.204  69.602  1.00  0.00    -0.195 C  
BRANCH  13  14
HETATM   14  C   UNL     1     -10.622   6.931  68.796  1.00  0.00    -0.247 A  
HETATM   15  C   UNL     1     -10.564   5.762  66.678  1.00  0.00    -0.347 A  
HETATM   16  C   UNL     1      -9.836   4.708  67.256  1.00  0.00    -0.218 A  
HETATM   17  C   UNL     1     -10.226   5.749  69.423  1.00  0.00    -0.301 A  
HETATM   18  C   UNL     1     -10.898   6.896  67.430  1.00  0.00    -0.396 A  
HETATM   19  C   UNL     1      -9.817   4.657  68.659  1.00  0.00    -0.190 A  
BRANCH  16  20
HETATM   20  C   UNL     1      -8.992   3.777  66.449  1.00  0.00    -0.139 A  
HETATM   21  C   UNL     1      -9.480   2.480  66.157  1.00  0.00     0.137 A  
HETATM   22  C   UNL     1      -7.659   4.074  66.033  1.00  0.00    -0.089 A  
HETATM   23  C   UNL     1      -8.714   1.526  65.479  1.00  0.00    -0.114 A  
HETATM   24  C   UNL     1      -6.931   3.115  65.294  1.00  0.00    -0.057 A  
HETATM   25  C   UNL     1      -7.446   1.851  65.027  1.00  0.00    -0.062 A  
BRANCH  22  26
HETATM   26  C   UNL     1      -6.915   5.299  66.355  1.00  0.00    -0.067 A  
HETATM   27  N   UNL     1      -6.293   5.575  67.488  1.00  0.00    -0.041 NA 
HETATM   28  H   UNL     1      -6.227   4.973  68.309  1.00  0.00     0.000 HD 
HETATM   29  N   UNL     1      -5.752   6.829  67.348  1.00  0.00    -0.013 NA 
HETATM   30  N   UNL     1      -6.047   7.342  66.164  1.00  0.00    -0.037 NA 
HETATM   31  N   UNL     1      -6.806   6.414  65.565  1.00  0.00    -0.047 NA 
ENDBRANCH  22  26
ENDBRANCH  16  20
ENDBRANCH  13  14
ENDBRANCH   9  13
BRANCH   8  32
HETATM   32  C   UNL     1     -10.365  10.256  66.813  1.00  0.00    -0.227 C  
HETATM   33  O   UNL     1     -11.523  10.529  67.081  1.00  0.00    -0.311 OA 
BRANCH  32  34
HETATM   34  O   UNL     1      -9.936   9.815  65.603  1.00  0.00    -0.301 OA 
BRANCH  34  35
HETATM   35  C   UNL     1      -9.851  10.870  64.633  1.00  0.00    -0.294 C  
HETATM   36  C   UNL     1      -8.747  10.449  63.662  1.00  0.00    -0.202 C  
BRANCH  35  37
HETATM   37  O   UNL     1     -11.026  10.983  63.829  1.00  0.00    -0.298 OA 
BRANCH  37  38
HETATM   38  C   UNL     1     -11.750  12.113  63.991  1.00  0.00    -0.430 C  
HETATM   39  O   UNL     1     -12.792  12.392  63.424  1.00  0.00    -0.732 OA 
BRANCH  38  40
HETATM   40  O   UNL     1     -11.109  12.851  64.916  1.00  0.00    -0.283 OA 
BRANCH  40  41
HETATM   41  C   UNL     1     -11.428  14.227  65.224  1.00  0.00    -0.344 C  
HETATM   42  C   UNL     1     -10.604  15.169  67.925  1.00  0.00    -0.257 C  
HETATM   43  C   UNL     1     -12.368  14.204  66.432  1.00  0.00    -0.431 C  
HETATM   44  C   UNL     1     -11.601  14.034  67.739  1.00  0.00    -0.378 C  
HETATM   45  C   UNL     1      -9.622  15.277  66.762  1.00  0.00    -0.257 C  
HETATM   46  C   UNL     1     -10.292  15.243  65.384  1.00  0.00    -0.421 C  
ENDBRANCH  40  41
ENDBRANCH  38  40
ENDBRANCH  37  38
ENDBRANCH  35  37
ENDBRANCH  34  35
ENDBRANCH  32  34
ENDBRANCH   8  32
ENDBRANCH   3   4
ENDBRANCH   2   3
TORSDOF 13
ENDMDL
MODEL      134
REMARK 921   NORMALIZED FREE ENERGY PREDICTED BY IDOCK:   -5.93 KCAL/MOL
REMARK 922        TOTAL FREE ENERGY PREDICTED BY IDOCK:  -12.89 KCAL/MOL
REMARK 923 INTER-LIGAND FREE ENERGY PREDICTED BY IDOCK:  -10.99 KCAL/MOL
REMARK 924 INTRA-LIGAND FREE ENERGY PREDICTED BY IDOCK:   -1.90 KCAL/MOL
REMARK 927      BINDING AFFINITY PREDICTED BY RF-SCORE:    0.00 PKD
ROOT
HETATM    1  C   UNL     1     -12.713  13.980  65.389  1.00  0.00    -0.499 C  
HETATM    2  C   UNL     1     -11.863  13.857  66.641  1.00  0.00    -0.420 C  
ENDROOT
BRANCH   2   3
HETATM    3  O   UNL     1     -11.166  12.609  66.575  1.00  0.00    -0.270 OA 
BRANCH   3   4
HETATM    4  C   UNL     1     -11.197  11.892  67.696  1.00  0.00    -0.276 A  
HETATM    5  N   UNL     1     -12.282  11.646  68.392  1.00  0.00    -0.434 NA 
HETATM    6  C   UNL     1     -11.858  10.894  69.448  1.00  0.00    -0.328 A  
HETATM    7  C   UNL     1     -10.481  10.602  69.375  1.00  0.00    -0.225 A  
HETATM    8  C   UNL     1      -9.898   9.730  70.327  1.00  0.00    -0.296 A  
HETATM    9  N   UNL     1     -10.070  11.363  68.288  1.00  0.00    -0.189 NA 
HETATM   10  C   UNL     1     -12.061   9.629  71.493  1.00  0.00    -0.482 A  
HETATM   11  C   UNL     1     -12.640  10.436  70.522  1.00  0.00    -0.384 A  
HETATM   12  C   UNL     1     -10.726   9.263  71.374  1.00  0.00    -0.432 A  
BRANCH   9  13
HETATM   13  C   UNL     1      -8.725  11.766  67.875  1.00  0.00    -0.164 C  
BRANCH  13  14
HETATM   14  C   UNL     1      -8.483  13.249  68.003  1.00  0.00    -0.170 A  
HETATM   15  C   UNL     1      -7.721  15.360  67.099  1.00  0.00    -0.246 A  
HETATM   16  C   UNL     1      -8.637  16.059  67.903  1.00  0.00    -0.165 A  
HETATM   17  C   UNL     1      -9.117  13.953  69.028  1.00  0.00     0.212 A  
HETATM   18  C   UNL     1      -7.690  13.959  67.104  1.00  0.00     0.005 A  
HETATM   19  C   UNL     1      -9.211  15.343  68.966  1.00  0.00    -0.235 A  
BRANCH  16  20
HETATM   20  C   UNL     1      -9.110  17.436  67.571  1.00  0.00    -0.232 A  
HETATM   21  C   UNL     1     -10.131  17.601  66.604  1.00  0.00    -0.335 A  
HETATM   22  C   UNL     1      -8.518  18.625  68.095  1.00  0.00    -0.336 A  
HETATM   23  C   UNL     1     -10.566  18.861  66.182  1.00  0.00    -0.476 A  
HETATM   24  C   UNL     1      -9.021  19.885  67.699  1.00  0.00    -0.416 A  
HETATM   25  C   UNL     1     -10.026  20.006  66.745  1.00  0.00    -0.585 A  
BRANCH  22  26
HETATM   26  C   UNL     1      -7.359  18.680  68.995  1.00  0.00    -0.234 A  
HETATM   27  N   UNL     1      -6.613  17.662  69.392  1.00  0.00    -0.239 NA 
HETATM   28  H   UNL     1      -6.725  16.685  69.122  1.00  0.00     0.000 HD 
HETATM   29  N   UNL     1      -5.659  18.174  70.235  1.00  0.00    -0.242 NA 
HETATM   30  N   UNL     1      -5.814  19.480  70.387  1.00  0.00    -0.254 NA 
HETATM   31  N   UNL     1      -6.895  19.787  69.657  1.00  0.00    -0.329 NA 
ENDBRANCH  22  26
ENDBRANCH  16  20
ENDBRANCH  13  14
ENDBRANCH   9  13
BRANCH   8  32
HETATM   32  C   UNL     1      -8.456   9.391  70.400  1.00  0.00    -0.214 C  
HETATM   33  O   UNL     1      -7.587  10.213  70.636  1.00  0.00    -0.237 OA 
BRANCH  32  34
HETATM   34  O   UNL     1      -8.266   8.047  70.398  1.00  0.00    -0.113 OA 
BRANCH  34  35
HETATM   35  C   UNL     1      -8.593   7.447  69.136  1.00  0.00    -0.136 C  
HETATM   36  C   UNL     1      -7.288   7.425  68.340  1.00  0.00    -0.103 C  
BRANCH  35  37
HETATM   37  O   UNL     1      -8.977   6.077  69.254  1.00  0.00    -0.122 OA 
BRANCH  37  38
HETATM   38  C   UNL     1     -10.185   5.753  68.743  1.00  0.00    -0.195 C  
HETATM   39  O   UNL     1     -11.271   6.061  69.202  1.00  0.00    -0.378 OA 
BRANCH  38  40
HETATM   40  O   UNL     1      -9.952   5.050  67.618  1.00  0.00    -0.161 OA 
BRANCH  40  41
HETATM   41  C   UNL     1     -10.390   5.453  66.300  1.00  0.00    -0.200 C  
HETATM   42  C   UNL     1      -8.693   4.527  64.038  1.00  0.00    -0.139 C  
HETATM   43  C   UNL     1      -9.269   6.307  65.703  1.00  0.00     0.080 C  
HETATM   44  C   UNL     1      -8.152   5.443  65.126  1.00  0.00    -0.121 C  
HETATM   45  C   UNL     1      -9.826   3.636  64.539  1.00  0.00    -0.185 C  
HETATM   46  C   UNL     1     -10.904   4.390  65.323  1.00  0.00    -0.088 C  
ENDBRANCH  40  41
ENDBRANCH  38  40
ENDBRANCH  37  38
ENDBRANCH  35  37
ENDBRANCH  34  35
ENDBRANCH  32  34
ENDBRANCH   8  32
ENDBRANCH   3   4
ENDBRANCH   2   3
TORSDOF 13
ENDMDL
MODEL      135
REMARK 921   NORMALIZED FREE ENERGY PREDICTED BY IDOCK:   -5.92 KCAL/MOL
REMARK 922        TOTAL FREE ENERGY PREDICTED BY IDOCK:  -12.87 KCAL/MOL
REMARK 923 INTER-LIGAND FREE ENERGY PREDICTED BY IDOCK:   -9.55 KCAL/MOL
REMARK 924 INTRA-LIGAND FREE ENERGY PREDICTED BY IDOCK:   -3.32 KCAL/MOL
REMARK 927      BINDING AFFINITY PREDICTED BY RF-SCORE:    0.00 PKD
ROOT
HETATM    1  C   UNL     1      -5.129  11.962  71.288  1.00  0.00    -0.101 C  
HETATM    2  C   UNL     1      -6.093  11.622  70.165  1.00  0.00    -0.155 C  
ENDROOT
BRANCH   2   3
HETATM    3  O   UNL     1      -6.113  10.199  70.021  1.00  0.00    -0.048 OA 
BRANCH   3   4
HETATM    4  C   UNL     1      -7.003   9.572  70.785  1.00  0.00    -0.102 A  
HETATM    5  N   UNL     1      -6.703   8.845  71.836  1.00  0.00    -0.225 NA 
HETATM    6  C   UNL     1      -7.903   8.394  72.305  1.00  0.00    -0.110 A  
HETATM    7  C   UNL     1      -8.989   8.909  71.569  1.00  0.00    -0.205 A  
HETATM    8  C   UNL     1     -10.313   8.639  71.994  1.00  0.00    -0.416 A  
HETATM    9  N   UNL     1      -8.357   9.573  70.525  1.00  0.00    -0.189 NA 
HETATM   10  C   UNL     1      -9.403   7.197  73.766  1.00  0.00    -0.272 A  
HETATM   11  C   UNL     1      -8.107   7.515  73.381  1.00  0.00    -0.161 A  
HETATM   12  C   UNL     1     -10.477   7.776  73.102  1.00  0.00    -0.413 A  
BRANCH   9  13
HETATM   13  C   UNL     1      -8.894  10.045  69.248  1.00  0.00    -0.178 C  
BRANCH  13  14
HETATM   14  C   UNL     1      -8.867   8.993  68.168  1.00  0.00    -0.133 A  
HETATM   15  C   UNL     1      -7.712   7.294  66.889  1.00  0.00    -0.110 A  
HETATM   16  C   UNL     1      -8.916   6.597  66.687  1.00  0.00    -0.150 A  
HETATM   17  C   UNL     1     -10.075   8.500  67.671  1.00  0.00    -0.271 A  
HETATM   18  C   UNL     1      -7.680   8.450  67.679  1.00  0.00    -0.099 A  
HETATM   19  C   UNL     1     -10.099   7.303  66.957  1.00  0.00    -0.316 A  
BRANCH  16  20
HETATM   20  C   UNL     1      -8.956   5.141  66.360  1.00  0.00    -0.125 A  
HETATM   21  C   UNL     1      -8.992   4.739  65.002  1.00  0.00    -0.153 A  
HETATM   22  C   UNL     1      -9.068   4.110  67.341  1.00  0.00    -0.163 A  
HETATM   23  C   UNL     1      -9.114   3.400  64.620  1.00  0.00    -0.133 A  
HETATM   24  C   UNL     1      -9.125   2.760  66.928  1.00  0.00    -0.172 A  
HETATM   25  C   UNL     1      -9.159   2.406  65.583  1.00  0.00    -0.096 A  
BRANCH  22  26
HETATM   26  C   UNL     1      -9.192   4.317  68.790  1.00  0.00    -0.141 A  
HETATM   27  N   UNL     1      -8.276   4.061  69.709  1.00  0.00    -0.054 NA 
HETATM   28  H   UNL     1      -7.340   3.690  69.548  1.00  0.00     0.000 HD 
HETATM   29  N   UNL     1      -8.829   4.392  70.922  1.00  0.00    -0.102 NA 
HETATM   30  N   UNL     1     -10.072   4.823  70.773  1.00  0.00    -0.230 NA 
HETATM   31  N   UNL     1     -10.314   4.733  69.458  1.00  0.00    -0.117 NA 
ENDBRANCH  22  26
ENDBRANCH  16  20
ENDBRANCH  13  14
ENDBRANCH   9  13
BRANCH   8  32
HETATM   32  C   UNL     1     -11.540   9.067  71.280  1.00  0.00    -0.317 C  
HETATM   33  O   UNL     1     -12.018   8.449  70.344  1.00  0.00    -0.030 OA 
BRANCH  32  34
HETATM   34  O   UNL     1     -12.166  10.076  71.937  1.00  0.00    -0.351 OA 
BRANCH  34  35
HETATM   35  C   UNL     1     -12.684  11.073  71.044  1.00  0.00    -0.386 C  
HETATM   36  C   UNL     1     -13.325  12.135  71.939  1.00  0.00    -0.421 C  
BRANCH  35  37
HETATM   37  O   UNL     1     -11.660  11.765  70.328  1.00  0.00    -0.260 OA 
BRANCH  37  38
HETATM   38  C   UNL     1     -11.874  11.937  69.005  1.00  0.00    -0.308 C  
HETATM   39  O   UNL     1     -12.313  11.107  68.229  1.00  0.00    -0.532 OA 
BRANCH  38  40
HETATM   40  O   UNL     1     -11.535  13.209  68.723  1.00  0.00    -0.264 OA 
BRANCH  40  41
HETATM   41  C   UNL     1     -10.175  13.698  68.677  1.00  0.00    -0.197 C  
HETATM   42  C   UNL     1      -9.544  15.548  66.433  1.00  0.00    -0.317 C  
HETATM   43  C   UNL     1      -9.576  13.219  67.353  1.00  0.00    -0.223 C  
HETATM   44  C   UNL     1      -9.993  14.114  66.191  1.00  0.00    -0.328 C  
HETATM   45  C   UNL     1     -10.089  16.115  67.740  1.00  0.00    -0.250 C  
HETATM   46  C   UNL     1      -9.903  15.183  68.941  1.00  0.00    -0.229 C  
ENDBRANCH  40  41
ENDBRANCH  38  40
ENDBRANCH  37  38
ENDBRANCH  35  37
ENDBRANCH  34  35
ENDBRANCH  32  34
ENDBRANCH   8  32
ENDBRANCH   3   4
ENDBRANCH   2   3
TORSDOF 13
ENDMDL
MODEL      136
REMARK 921   NORMALIZED FREE ENERGY PREDICTED BY IDOCK:   -5.91 KCAL/MOL
REMARK 922        TOTAL FREE ENERGY PREDICTED BY IDOCK:  -12.85 KCAL/MOL
REMARK 923 INTER-LIGAND FREE ENERGY PREDICTED BY IDOCK:  -10.27 KCAL/MOL
REMARK 924 INTRA-LIGAND FREE ENERGY PREDICTED BY IDOCK:   -2.58 KCAL/MOL
REMARK 927      BINDING AFFINITY PREDICTED BY RF-SCORE:    0.00 PKD
ROOT
HETATM    1  C   UNL     1     -12.100  14.248  65.186  1.00  0.00    -0.410 C  
HETATM    2  C   UNL     1     -12.244  13.382  66.425  1.00  0.00    -0.376 C  
ENDROOT
BRANCH   2   3
HETATM    3  O   UNL     1     -11.468  12.196  66.223  1.00  0.00    -0.347 OA 
BRANCH   3   4
HETATM    4  C   UNL     1     -11.098  11.573  67.338  1.00  0.00    -0.282 A  
HETATM    5  N   UNL     1     -11.930  11.077  68.225  1.00  0.00    -0.597 NA 
HETATM    6  C   UNL     1     -11.131  10.544  69.195  1.00  0.00    -0.250 A  
HETATM    7  C   UNL     1      -9.763  10.647  68.874  1.00  0.00    -0.202 A  
HETATM    8  C   UNL     1      -8.799  10.038  69.714  1.00  0.00    -0.205 A  
HETATM    9  N   UNL     1      -9.783  11.421  67.720  1.00  0.00    -0.172 NA 
HETATM   10  C   UNL     1     -10.607   9.409  71.258  1.00  0.00    -0.400 A  
HETATM   11  C   UNL     1     -11.552   9.955  70.399  1.00  0.00    -0.356 A  
HETATM   12  C   UNL     1      -9.264   9.425  70.900  1.00  0.00    -0.242 A  
BRANCH   9  13
HETATM   13  C   UNL     1      -8.703  12.158  67.062  1.00  0.00    -0.190 C  
BRANCH  13  14
HETATM   14  C   UNL     1      -8.170  13.299  67.892  1.00  0.00    -0.163 A  
HETATM   15  C   UNL     1      -6.410  14.849  68.487  1.00  0.00    -0.093 A  
HETATM   16  C   UNL     1      -7.359  15.806  68.887  1.00  0.00    -0.162 A  
HETATM   17  C   UNL     1      -9.068  14.093  68.609  1.00  0.00    -0.138 A  
HETATM   18  C   UNL     1      -6.817  13.628  67.933  1.00  0.00    -0.155 A  
HETATM   19  C   UNL     1      -8.670  15.343  69.081  1.00  0.00    -0.242 A  
BRANCH  16  20
HETATM   20  C   UNL     1      -7.050  17.265  68.954  1.00  0.00    -0.242 A  
HETATM   21  C   UNL     1      -6.158  17.737  69.948  1.00  0.00    -0.168 A  
HETATM   22  C   UNL     1      -7.683  18.248  68.135  1.00  0.00    -0.288 A  
HETATM   23  C   UNL     1      -5.885  19.097  70.124  1.00  0.00    -0.263 A  
HETATM   24  C   UNL     1      -7.341  19.610  68.292  1.00  0.00    -0.351 A  
HETATM   25  C   UNL     1      -6.460  20.034  69.282  1.00  0.00    -0.360 A  
BRANCH  22  26
HETATM   26  C   UNL     1      -8.738  17.988  67.146  1.00  0.00    -0.243 A  
HETATM   27  N   UNL     1      -8.699  17.111  66.157  1.00  0.00    -0.477 NA 
HETATM   28  H   UNL     1      -7.933  16.475  65.938  1.00  0.00     0.000 HD 
HETATM   29  N   UNL     1      -9.890  17.223  65.482  1.00  0.00    -0.472 NA 
HETATM   30  N   UNL     1     -10.650  18.164  66.017  1.00  0.00    -0.413 NA 
HETATM   31  N   UNL     1      -9.919  18.671  67.020  1.00  0.00    -0.322 NA 
ENDBRANCH  22  26
ENDBRANCH  16  20
ENDBRANCH  13  14
ENDBRANCH   9  13
BRANCH   8  32
HETATM   32  C   UNL     1      -7.331  10.122  69.524  1.00  0.00    -0.123 C  
HETATM   33  O   UNL     1      -6.655  11.045  69.945  1.00  0.00    -0.131 OA 
BRANCH  32  34
HETATM   34  O   UNL     1      -6.829   8.958  69.039  1.00  0.00    -0.057 OA 
BRANCH  34  35
HETATM   35  C   UNL     1      -6.852   8.905  67.605  1.00  0.00    -0.070 C  
HETATM   36  C   UNL     1      -5.670   9.758  67.142  1.00  0.00    -0.047 C  
BRANCH  35  37
HETATM   37  O   UNL     1      -6.588   7.599  67.092  1.00  0.00    -0.059 OA 
BRANCH  37  38
HETATM   38  C   UNL     1      -7.444   7.148  66.149  1.00  0.00    -0.080 C  
HETATM   39  O   UNL     1      -7.188   6.950  64.974  1.00  0.00    -0.068 OA 
BRANCH  38  40
HETATM   40  O   UNL     1      -8.622   6.937  66.766  1.00  0.00    -0.114 OA 
BRANCH  40  41
HETATM   41  C   UNL     1      -9.002   5.689  67.389  1.00  0.00    -0.107 C  
HETATM   42  C   UNL     1      -9.012   3.307  65.605  1.00  0.00    -0.144 C  
HETATM   43  C   UNL     1     -10.261   5.200  66.668  1.00  0.00    -0.297 C  
HETATM   44  C   UNL     1      -9.921   4.502  65.356  1.00  0.00    -0.207 C  
HETATM   45  C   UNL     1      -7.727   3.695  66.330  1.00  0.00    -0.088 C  
HETATM   46  C   UNL     1      -7.955   4.583  67.557  1.00  0.00    -0.100 C  
ENDBRANCH  40  41
ENDBRANCH  38  40
ENDBRANCH  37  38
ENDBRANCH  35  37
ENDBRANCH  34  35
ENDBRANCH  32  34
ENDBRANCH   8  32
ENDBRANCH   3   4
ENDBRANCH   2   3
TORSDOF 13
ENDMDL
MODEL      137
REMARK 921   NORMALIZED FREE ENERGY PREDICTED BY IDOCK:   -5.90 KCAL/MOL
REMARK 922        TOTAL FREE ENERGY PREDICTED BY IDOCK:  -12.83 KCAL/MOL
REMARK 923 INTER-LIGAND FREE ENERGY PREDICTED BY IDOCK:  -10.37 KCAL/MOL
REMARK 924 INTRA-LIGAND FREE ENERGY PREDICTED BY IDOCK:   -2.47 KCAL/MOL
REMARK 927      BINDING AFFINITY PREDICTED BY RF-SCORE:    0.00 PKD
ROOT
HETATM    1  C   UNL     1     -12.918  10.686  71.414  1.00  0.00    -0.545 C  
HETATM    2  C   UNL     1     -12.113  11.773  70.724  1.00  0.00    -0.252 C  
ENDROOT
BRANCH   2   3
HETATM    3  O   UNL     1     -11.726  11.280  69.437  1.00  0.00    -0.278 OA 
BRANCH   3   4
HETATM    4  C   UNL     1     -11.275  12.208  68.596  1.00  0.00    -0.269 A  
HETATM    5  N   UNL     1     -12.037  12.940  67.817  1.00  0.00    -0.264 NA 
HETATM    6  C   UNL     1     -11.170  13.741  67.132  1.00  0.00    -0.311 A  
HETATM    7  C   UNL     1      -9.835  13.553  67.542  1.00  0.00    -0.227 A  
HETATM    8  C   UNL     1      -8.818  14.389  67.019  1.00  0.00    -0.256 A  
HETATM    9  N   UNL     1      -9.936  12.472  68.409  1.00  0.00    -0.226 NA 
HETATM   10  C   UNL     1     -10.494  15.439  65.557  1.00  0.00    -0.402 A  
HETATM   11  C   UNL     1     -11.496  14.658  66.119  1.00  0.00    -0.339 A  
HETATM   12  C   UNL     1      -9.191  15.324  66.026  1.00  0.00    -0.308 A  
BRANCH   9  13
HETATM   13  C   UNL     1      -8.898  11.579  68.924  1.00  0.00     0.040 C  
BRANCH  13  14
HETATM   14  C   UNL     1      -8.601  10.421  68.005  1.00  0.00    -0.123 A  
HETATM   15  C   UNL     1      -7.392   8.395  67.467  1.00  0.00    -0.093 A  
HETATM   16  C   UNL     1      -8.480   7.920  66.714  1.00  0.00    -0.129 A  
HETATM   17  C   UNL     1      -9.507  10.111  66.989  1.00  0.00    -0.197 A  
HETATM   18  C   UNL     1      -7.478   9.609  68.160  1.00  0.00    -0.082 A  
HETATM   19  C   UNL     1      -9.459   8.865  66.366  1.00  0.00    -0.283 A  
BRANCH  16  20
HETATM   20  C   UNL     1      -8.685   6.470  66.424  1.00  0.00    -0.142 A  
HETATM   21  C   UNL     1      -8.218   5.938  65.197  1.00  0.00    -0.141 A  
HETATM   22  C   UNL     1      -9.425   5.590  67.269  1.00  0.00    -0.119 A  
HETATM   23  C   UNL     1      -8.446   4.611  64.821  1.00  0.00    -0.137 A  
HETATM   24  C   UNL     1      -9.586   4.236  66.894  1.00  0.00    -0.225 A  
HETATM   25  C   UNL     1      -9.112   3.752  65.679  1.00  0.00    -0.147 A  
BRANCH  22  26
HETATM   26  C   UNL     1     -10.113   5.971  68.510  1.00  0.00    -0.161 A  
HETATM   27  N   UNL     1     -11.410   6.178  68.667  1.00  0.00    -0.379 NA 
HETATM   28  H   UNL     1     -12.130   6.093  67.950  1.00  0.00     0.000 HD 
HETATM   29  N   UNL     1     -11.599   6.529  69.981  1.00  0.00    -0.417 NA 
HETATM   30  N   UNL     1     -10.446   6.566  70.631  1.00  0.00    -0.208 NA 
HETATM   31  N   UNL     1      -9.520   6.267  69.710  1.00  0.00    -0.151 NA 
ENDBRANCH  22  26
ENDBRANCH  16  20
ENDBRANCH  13  14
ENDBRANCH   9  13
BRANCH   8  32
HETATM   32  C   UNL     1      -7.372  14.259  67.319  1.00  0.00    -0.024 C  
HETATM   33  O   UNL     1      -6.754  13.215  67.194  1.00  0.00    -0.152 OA 
BRANCH  32  34
HETATM   34  O   UNL     1      -6.799  15.473  67.522  1.00  0.00    -0.166 OA 
BRANCH  34  35
HETATM   35  C   UNL     1      -6.970  15.942  68.868  1.00  0.00    -0.143 C  
HETATM   36  C   UNL     1      -6.555  14.776  69.766  1.00  0.00    -0.169 C  
BRANCH  35  37
HETATM   37  O   UNL     1      -6.074  17.003  69.205  1.00  0.00    -0.174 OA 
BRANCH  37  38
HETATM   38  C   UNL     1      -6.647  18.188  69.509  1.00  0.00    -0.143 C  
HETATM   39  O   UNL     1      -6.451  18.850  70.514  1.00  0.00     0.139 OA 
BRANCH  38  40
HETATM   40  O   UNL     1      -7.451  18.504  68.477  1.00  0.00    -0.279 OA 
BRANCH  40  41
HETATM   41  C   UNL     1      -8.473  19.526  68.522  1.00  0.00    -0.338 C  
HETATM   42  C   UNL     1     -10.594  19.324  66.445  1.00  0.00    -0.542 C  
HETATM   43  C   UNL     1      -8.404  20.281  67.193  1.00  0.00    -0.394 C  
HETATM   44  C   UNL     1      -9.130  19.530  66.082  1.00  0.00    -0.349 C  
HETATM   45  C   UNL     1     -10.766  18.582  67.766  1.00  0.00    -0.378 C  
HETATM   46  C   UNL     1      -9.906  19.139  68.904  1.00  0.00    -0.487 C  
ENDBRANCH  40  41
ENDBRANCH  38  40
ENDBRANCH  37  38
ENDBRANCH  35  37
ENDBRANCH  34  35
ENDBRANCH  32  34
ENDBRANCH   8  32
ENDBRANCH   3   4
ENDBRANCH   2   3
TORSDOF 13
ENDMDL
MODEL      138
REMARK 921   NORMALIZED FREE ENERGY PREDICTED BY IDOCK:   -5.90 KCAL/MOL
REMARK 922        TOTAL FREE ENERGY PREDICTED BY IDOCK:  -12.83 KCAL/MOL
REMARK 923 INTER-LIGAND FREE ENERGY PREDICTED BY IDOCK:   -9.60 KCAL/MOL
REMARK 924 INTRA-LIGAND FREE ENERGY PREDICTED BY IDOCK:   -3.23 KCAL/MOL
REMARK 927      BINDING AFFINITY PREDICTED BY RF-SCORE:    0.00 PKD
ROOT
HETATM    1  C   UNL     1     -12.385  13.581  65.164  1.00  0.00    -0.488 C  
HETATM    2  C   UNL     1     -11.900  13.000  66.480  1.00  0.00    -0.403 C  
ENDROOT
BRANCH   2   3
HETATM    3  O   UNL     1     -11.321  11.720  66.205  1.00  0.00    -0.329 OA 
BRANCH   3   4
HETATM    4  C   UNL     1     -10.100  11.541  66.702  1.00  0.00    -0.210 A  
HETATM    5  N   UNL     1      -9.043  12.234  66.348  1.00  0.00    -0.194 NA 
HETATM    6  C   UNL     1      -8.021  11.720  67.092  1.00  0.00    -0.166 A  
HETATM    7  C   UNL     1      -8.462  10.726  67.987  1.00  0.00    -0.124 A  
HETATM    8  C   UNL     1      -7.553  10.170  68.921  1.00  0.00    -0.090 A  
HETATM    9  N   UNL     1      -9.793  10.561  67.621  1.00  0.00    -0.164 NA 
HETATM   10  C   UNL     1      -5.756  11.498  67.893  1.00  0.00    -0.045 A  
HETATM   11  C   UNL     1      -6.665  12.083  67.022  1.00  0.00    -0.099 A  
HETATM   12  C   UNL     1      -6.204  10.585  68.841  1.00  0.00    -0.043 A  
BRANCH   9  13
HETATM   13  C   UNL     1     -10.725   9.475  67.927  1.00  0.00    -0.228 C  
BRANCH  13  14
HETATM   14  C   UNL     1     -10.349   8.168  67.276  1.00  0.00    -0.373 A  
HETATM   15  C   UNL     1      -8.836   6.808  65.967  1.00  0.00    -0.150 A  
HETATM   16  C   UNL     1      -9.264   5.649  66.636  1.00  0.00    -0.138 A  
HETATM   17  C   UNL     1     -11.007   7.001  67.669  1.00  0.00    -0.259 A  
HETATM   18  C   UNL     1      -9.330   8.067  66.331  1.00  0.00    -0.259 A  
HETATM   19  C   UNL     1     -10.457   5.755  67.370  1.00  0.00    -0.318 A  
BRANCH  16  20
HETATM   20  C   UNL     1      -8.435   4.410  66.709  1.00  0.00    -0.105 A  
HETATM   21  C   UNL     1      -7.418   4.315  67.691  1.00  0.00    -0.069 A  
HETATM   22  C   UNL     1      -8.528   3.337  65.771  1.00  0.00    -0.107 A  
HETATM   23  C   UNL     1      -6.548   3.223  67.766  1.00  0.00    -0.037 A  
HETATM   24  C   UNL     1      -7.679   2.216  65.910  1.00  0.00    -0.072 A  
HETATM   25  C   UNL     1      -6.692   2.161  66.888  1.00  0.00    -0.039 A  
BRANCH  22  26
HETATM   26  C   UNL     1      -9.411   3.300  64.598  1.00  0.00    -0.149 A  
HETATM   27  N   UNL     1     -10.721   3.482  64.585  1.00  0.00    -0.479 NA 
HETATM   28  H   UNL     1     -11.315   3.687  65.388  1.00  0.00     0.000 HD 
HETATM   29  N   UNL     1     -11.127   3.343  63.280  1.00  0.00    -0.187 NA 
HETATM   30  N   UNL     1     -10.102   3.055  62.494  1.00  0.00    -0.095 NA 
HETATM   31  N   UNL     1      -9.046   2.982  63.316  1.00  0.00    -0.091 NA 
ENDBRANCH  22  26
ENDBRANCH  16  20
ENDBRANCH  13  14
ENDBRANCH   9  13
BRANCH   8  32
HETATM   32  C   UNL     1      -7.871   9.079  69.873  1.00  0.00    -0.090 C  
HETATM   33  O   UNL     1      -7.943   7.906  69.545  1.00  0.00    -0.111 OA 
BRANCH  32  34
HETATM   34  O   UNL     1      -7.844   9.520  71.156  1.00  0.00    -0.326 OA 
BRANCH  34  35
HETATM   35  C   UNL     1      -7.647   8.456  72.098  1.00  0.00    -0.113 C  
HETATM   36  C   UNL     1      -6.279   8.714  72.732  1.00  0.00    -0.076 C  
BRANCH  35  37
HETATM   37  O   UNL     1      -8.571   8.498  73.187  1.00  0.00    -0.362 OA 
BRANCH  37  38
HETATM   38  C   UNL     1      -9.461   7.483  73.250  1.00  0.00    -0.240 C  
HETATM   39  O   UNL     1      -9.200   6.299  73.375  1.00  0.00    -0.131 OA 
BRANCH  38  40
HETATM   40  O   UNL     1     -10.685   8.038  73.174  1.00  0.00    -0.332 OA 
BRANCH  40  41
HETATM   41  C   UNL     1     -11.289   8.514  71.950  1.00  0.00    -0.329 C  
HETATM   42  C   UNL     1     -14.136   7.753  71.536  1.00  0.00    -0.509 C  
HETATM   43  C   UNL     1     -11.707   7.277  71.153  1.00  0.00    -0.334 C  
HETATM   44  C   UNL     1     -13.033   6.710  71.649  1.00  0.00    -0.186 C  
HETATM   45  C   UNL     1     -13.806   9.032  72.298  1.00  0.00    -0.547 C  
HETATM   46  C   UNL     1     -12.399   9.569  72.022  1.00  0.00    -0.404 C  
ENDBRANCH  40  41
ENDBRANCH  38  40
ENDBRANCH  37  38
ENDBRANCH  35  37
ENDBRANCH  34  35
ENDBRANCH  32  34
ENDBRANCH   8  32
ENDBRANCH   3   4
ENDBRANCH   2   3
TORSDOF 13
ENDMDL
MODEL      139
REMARK 921   NORMALIZED FREE ENERGY PREDICTED BY IDOCK:   -5.87 KCAL/MOL
REMARK 922        TOTAL FREE ENERGY PREDICTED BY IDOCK:  -12.78 KCAL/MOL
REMARK 923 INTER-LIGAND FREE ENERGY PREDICTED BY IDOCK:  -10.13 KCAL/MOL
REMARK 924 INTRA-LIGAND FREE ENERGY PREDICTED BY IDOCK:   -2.65 KCAL/MOL
REMARK 927      BINDING AFFINITY PREDICTED BY RF-SCORE:    0.00 PKD
ROOT
HETATM    1  C   UNL     1     -12.075   8.341  71.204  1.00  0.00    -0.274 C  
HETATM    2  C   UNL     1     -12.758   9.575  71.767  1.00  0.00    -0.404 C  
ENDROOT
BRANCH   2   3
HETATM    3  O   UNL     1     -13.040  10.455  70.675  1.00  0.00    -0.369 OA 
BRANCH   3   4
HETATM    4  C   UNL     1     -12.775  11.738  70.908  1.00  0.00    -0.235 A  
HETATM    5  N   UNL     1     -13.151  12.392  71.982  1.00  0.00    -0.411 NA 
HETATM    6  C   UNL     1     -12.678  13.660  71.804  1.00  0.00    -0.265 A  
HETATM    7  C   UNL     1     -11.925  13.785  70.620  1.00  0.00    -0.266 A  
HETATM    8  C   UNL     1     -11.258  15.003  70.339  1.00  0.00    -0.290 A  
HETATM    9  N   UNL     1     -12.110  12.548  70.014  1.00  0.00    -0.301 NA 
HETATM   10  C   UNL     1     -12.282  15.976  72.353  1.00  0.00    -0.603 A  
HETATM   11  C   UNL     1     -12.883  14.760  72.653  1.00  0.00    -0.496 A  
HETATM   12  C   UNL     1     -11.463  16.078  71.235  1.00  0.00    -0.475 A  
BRANCH   9  13
HETATM   13  C   UNL     1     -11.873  12.133  68.631  1.00  0.00    -0.306 C  
BRANCH  13  14
HETATM   14  C   UNL     1     -10.838  11.043  68.507  1.00  0.00    -0.254 A  
HETATM   15  C   UNL     1      -8.822   9.936  69.259  1.00  0.00    -0.178 A  
HETATM   16  C   UNL     1      -9.289   8.705  68.768  1.00  0.00    -0.142 A  
HETATM   17  C   UNL     1     -11.124   9.922  67.726  1.00  0.00    -0.196 A  
HETATM   18  C   UNL     1      -9.621  11.085  69.185  1.00  0.00    -0.081 A  
HETATM   19  C   UNL     1     -10.369   8.759  67.872  1.00  0.00    -0.281 A  
BRANCH  16  20
HETATM   20  C   UNL     1      -8.787   7.395  69.277  1.00  0.00    -0.136 A  
HETATM   21  C   UNL     1      -9.512   6.215  68.981  1.00  0.00    -0.138 A  
HETATM   22  C   UNL     1      -7.662   7.260  70.146  1.00  0.00    -0.091 A  
HETATM   23  C   UNL     1      -9.150   4.964  69.491  1.00  0.00    -0.149 A  
HETATM   24  C   UNL     1      -7.280   5.976  70.595  1.00  0.00    -0.080 A  
HETATM   25  C   UNL     1      -8.020   4.840  70.282  1.00  0.00    -0.068 A  
BRANCH  22  26
HETATM   26  C   UNL     1      -6.862   8.366  70.688  1.00  0.00    -0.039 A  
HETATM   27  N   UNL     1      -5.796   8.920  70.135  1.00  0.00    -0.030 NA 
HETATM   28  H   UNL     1      -5.375   8.669  69.241  1.00  0.00     0.000 HD 
HETATM   29  N   UNL     1      -5.367   9.900  70.996  1.00  0.00    -0.059 NA 
HETATM   30  N   UNL     1      -6.129   9.945  72.078  1.00  0.00    -0.269 NA 
HETATM   31  N   UNL     1      -7.027   8.965  71.910  1.00  0.00    -0.276 NA 
ENDBRANCH  22  26
ENDBRANCH  16  20
ENDBRANCH  13  14
ENDBRANCH   9  13
BRANCH   8  32
HETATM   32  C   UNL     1     -10.487  15.286  69.105  1.00  0.00    -0.247 C  
HETATM   33  O   UNL     1      -9.595  14.564  68.693  1.00  0.00    -0.214 OA 
BRANCH  32  34
HETATM   34  O   UNL     1     -11.047  16.300  68.396  1.00  0.00    -0.340 OA 
BRANCH  34  35
HETATM   35  C   UNL     1     -10.076  17.259  67.951  1.00  0.00    -0.317 C  
HETATM   36  C   UNL     1     -10.826  18.589  67.853  1.00  0.00    -0.240 C  
BRANCH  35  37
HETATM   37  O   UNL     1      -9.042  17.489  68.908  1.00  0.00    -0.246 OA 
BRANCH  37  38
HETATM   38  C   UNL     1      -7.775  17.398  68.445  1.00  0.00    -0.258 C  
HETATM   39  O   UNL     1      -7.384  17.722  67.338  1.00  0.00    -0.183 OA 
BRANCH  38  40
HETATM   40  O   UNL     1      -7.032  16.907  69.454  1.00  0.00    -0.236 OA 
BRANCH  40  41
HETATM   41  C   UNL     1      -5.790  16.188  69.276  1.00  0.00    -0.130 C  
HETATM   42  C   UNL     1      -5.966  13.227  69.527  1.00  0.00    -0.107 C  
HETATM   43  C   UNL     1      -5.513  15.450  70.588  1.00  0.00    -0.123 C  
HETATM   44  C   UNL     1      -6.312  14.154  70.684  1.00  0.00    -0.053 C  
HETATM   45  C   UNL     1      -6.204  13.880  68.168  1.00  0.00    -0.128 C  
HETATM   46  C   UNL     1      -5.613  15.288  68.048  1.00  0.00    -0.146 C  
ENDBRANCH  40  41
ENDBRANCH  38  40
ENDBRANCH  37  38
ENDBRANCH  35  37
ENDBRANCH  34  35
ENDBRANCH  32  34
ENDBRANCH   8  32
ENDBRANCH   3   4
ENDBRANCH   2   3
TORSDOF 13
ENDMDL
MODEL      140
REMARK 921   NORMALIZED FREE ENERGY PREDICTED BY IDOCK:   -5.86 KCAL/MOL
REMARK 922        TOTAL FREE ENERGY PREDICTED BY IDOCK:  -12.77 KCAL/MOL
REMARK 923 INTER-LIGAND FREE ENERGY PREDICTED BY IDOCK:  -10.08 KCAL/MOL
REMARK 924 INTRA-LIGAND FREE ENERGY PREDICTED BY IDOCK:   -2.69 KCAL/MOL
REMARK 927      BINDING AFFINITY PREDICTED BY RF-SCORE:    0.00 PKD
ROOT
HETATM    1  C   UNL     1      -6.213   3.001  67.433  1.00  0.00    -0.032 C  
HETATM    2  C   UNL     1      -7.137   2.597  68.569  1.00  0.00    -0.048 C  
ENDROOT
BRANCH   2   3
HETATM    3  O   UNL     1      -8.401   3.231  68.351  1.00  0.00    -0.075 OA 
BRANCH   3   4
HETATM    4  C   UNL     1      -8.986   3.701  69.449  1.00  0.00    -0.114 A  
HETATM    5  N   UNL     1      -8.848   3.182  70.647  1.00  0.00    -0.076 NA 
HETATM    6  C   UNL     1      -9.617   3.965  71.459  1.00  0.00    -0.166 A  
HETATM    7  C   UNL     1     -10.196   5.045  70.764  1.00  0.00    -0.229 A  
HETATM    8  C   UNL     1     -10.928   6.026  71.478  1.00  0.00    -0.335 A  
HETATM    9  N   UNL     1      -9.856   4.771  69.445  1.00  0.00    -0.203 NA 
HETATM   10  C   UNL     1     -10.621   4.699  73.526  1.00  0.00    -0.304 A  
HETATM   11  C   UNL     1      -9.854   3.773  72.831  1.00  0.00    -0.194 A  
HETATM   12  C   UNL     1     -11.117   5.815  72.864  1.00  0.00    -0.321 A  
BRANCH   9  13
HETATM   13  C   UNL     1     -10.406   5.308  68.200  1.00  0.00    -0.114 C  
BRANCH  13  14
HETATM   14  C   UNL     1      -9.668   6.525  67.701  1.00  0.00    -0.137 A  
HETATM   15  C   UNL     1      -9.575   8.889  67.191  1.00  0.00    -0.225 A  
HETATM   16  C   UNL     1      -8.194   8.912  67.449  1.00  0.00    -0.108 A  
HETATM   17  C   UNL     1      -8.276   6.483  67.607  1.00  0.00    -0.122 A  
HETATM   18  C   UNL     1     -10.318   7.716  67.379  1.00  0.00    -0.347 A  
HETATM   19  C   UNL     1      -7.547   7.667  67.504  1.00  0.00    -0.109 A  
BRANCH  16  20
HETATM   20  C   UNL     1      -7.465  10.165  67.806  1.00  0.00    -0.089 A  
HETATM   21  C   UNL     1      -7.029  11.029  66.773  1.00  0.00    -0.131 A  
HETATM   22  C   UNL     1      -7.078  10.505  69.138  1.00  0.00    -0.089 A  
HETATM   23  C   UNL     1      -6.270  12.176  67.025  1.00  0.00    -0.098 A  
HETATM   24  C   UNL     1      -6.365  11.703  69.371  1.00  0.00    -0.106 A  
HETATM   25  C   UNL     1      -5.955  12.526  68.327  1.00  0.00    -0.061 A  
BRANCH  22  26
HETATM   26  C   UNL     1      -7.302   9.679  70.332  1.00  0.00    -0.149 A  
HETATM   27  N   UNL     1      -8.218   8.739  70.485  1.00  0.00    -0.116 NA 
HETATM   28  H   UNL     1      -8.903   8.437  69.792  1.00  0.00     0.000 HD 
HETATM   29  N   UNL     1      -8.071   8.245  71.758  1.00  0.00    -0.130 NA 
HETATM   30  N   UNL     1      -7.102   8.878  72.401  1.00  0.00    -0.329 NA 
HETATM   31  N   UNL     1      -6.655   9.797  71.535  1.00  0.00    -0.304 NA 
ENDBRANCH  22  26
ENDBRANCH  16  20
ENDBRANCH  13  14
ENDBRANCH   9  13
BRANCH   8  32
HETATM   32  C   UNL     1     -11.636   7.174  70.863  1.00  0.00    -0.311 C  
HETATM   33  O   UNL     1     -12.452   7.052  69.966  1.00  0.00     0.117 OA 
BRANCH  32  34
HETATM   34  O   UNL     1     -11.432   8.315  71.570  1.00  0.00    -0.256 OA 
BRANCH  34  35
HETATM   35  C   UNL     1     -12.411   9.323  71.279  1.00  0.00    -0.316 C  
HETATM   36  C   UNL     1     -13.513   9.142  72.324  1.00  0.00    -0.546 C  
BRANCH  35  37
HETATM   37  O   UNL     1     -11.923  10.649  71.485  1.00  0.00    -0.257 OA 
BRANCH  37  38
HETATM   38  C   UNL     1     -12.170  11.533  70.492  1.00  0.00    -0.377 C  
HETATM   39  O   UNL     1     -12.540  11.267  69.363  1.00  0.00    -0.239 OA 
BRANCH  38  40
HETATM   40  O   UNL     1     -11.953  12.758  71.005  1.00  0.00    -0.096 OA 
BRANCH  40  41
HETATM   41  C   UNL     1     -12.851  13.880  70.844  1.00  0.00    -0.300 C  
HETATM   42  C   UNL     1     -12.711  15.961  72.967  1.00  0.00    -0.611 C  
HETATM   43  C   UNL     1     -13.778  13.884  72.061  1.00  0.00    -0.577 C  
HETATM   44  C   UNL     1     -13.111  14.525  73.274  1.00  0.00    -0.440 C  
HETATM   45  C   UNL     1     -11.786  16.061  71.758  1.00  0.00    -0.599 C  
HETATM   46  C   UNL     1     -12.272  15.267  70.542  1.00  0.00    -0.415 C  
ENDBRANCH  40  41
ENDBRANCH  38  40
ENDBRANCH  37  38
ENDBRANCH  35  37
ENDBRANCH  34  35
ENDBRANCH  32  34
ENDBRANCH   8  32
ENDBRANCH   3   4
ENDBRANCH   2   3
TORSDOF 13
ENDMDL
MODEL      141
REMARK 921   NORMALIZED FREE ENERGY PREDICTED BY IDOCK:   -5.83 KCAL/MOL
REMARK 922        TOTAL FREE ENERGY PREDICTED BY IDOCK:  -12.72 KCAL/MOL
REMARK 923 INTER-LIGAND FREE ENERGY PREDICTED BY IDOCK:   -9.72 KCAL/MOL
REMARK 924 INTRA-LIGAND FREE ENERGY PREDICTED BY IDOCK:   -2.99 KCAL/MOL
REMARK 927      BINDING AFFINITY PREDICTED BY RF-SCORE:    0.00 PKD
ROOT
HETATM    1  C   UNL     1     -12.075   8.337  71.200  1.00  0.00    -0.274 C  
HETATM    2  C   UNL     1     -12.713   9.610  71.728  1.00  0.00    -0.420 C  
ENDROOT
BRANCH   2   3
HETATM    3  O   UNL     1     -12.991  10.457  70.608  1.00  0.00    -0.368 OA 
BRANCH   3   4
HETATM    4  C   UNL     1     -12.713  11.744  70.798  1.00  0.00    -0.167 A  
HETATM    5  N   UNL     1     -13.070  12.434  71.856  1.00  0.00    -0.412 NA 
HETATM    6  C   UNL     1     -12.590  13.692  71.633  1.00  0.00    -0.250 A  
HETATM    7  C   UNL     1     -11.853  13.775  70.435  1.00  0.00    -0.253 A  
HETATM    8  C   UNL     1     -11.181  14.979  70.108  1.00  0.00    -0.291 A  
HETATM    9  N   UNL     1     -12.054  12.522  69.870  1.00  0.00    -0.287 NA 
HETATM   10  C   UNL     1     -12.171  16.020  72.104  1.00  0.00    -0.597 A  
HETATM   11  C   UNL     1     -12.776  14.819  72.450  1.00  0.00    -0.432 A  
HETATM   12  C   UNL     1     -11.366  16.082  70.973  1.00  0.00    -0.423 A  
BRANCH   9  13
HETATM   13  C   UNL     1     -11.839  12.062  68.498  1.00  0.00    -0.311 C  
BRANCH  13  14
HETATM   14  C   UNL     1     -10.812  10.963  68.393  1.00  0.00    -0.266 A  
HETATM   15  C   UNL     1      -8.790   9.871  69.150  1.00  0.00    -0.165 A  
HETATM   16  C   UNL     1      -9.271   8.627  68.707  1.00  0.00    -0.142 A  
HETATM   17  C   UNL     1     -11.116   9.818  67.655  1.00  0.00    -0.118 A  
HETATM   18  C   UNL     1      -9.584  11.021  69.050  1.00  0.00    -0.136 A  
HETATM   19  C   UNL     1     -10.366   8.656  67.828  1.00  0.00    -0.303 A  
BRANCH  16  20
HETATM   20  C   UNL     1      -8.767   7.331  69.252  1.00  0.00    -0.137 A  
HETATM   21  C   UNL     1      -8.971   7.031  70.621  1.00  0.00    -0.154 A  
HETATM   22  C   UNL     1      -7.989   6.403  68.496  1.00  0.00    -0.106 A  
HETATM   23  C   UNL     1      -8.455   5.877  71.219  1.00  0.00    -0.128 A  
HETATM   24  C   UNL     1      -7.535   5.213  69.110  1.00  0.00    -0.065 A  
HETATM   25  C   UNL     1      -7.755   4.955  70.459  1.00  0.00    -0.063 A  
BRANCH  22  26
HETATM   26  C   UNL     1      -7.544   6.588  67.108  1.00  0.00    -0.096 A  
HETATM   27  N   UNL     1      -8.197   6.240  66.013  1.00  0.00    -0.119 NA 
HETATM   28  H   UNL     1      -9.115   5.797  65.966  1.00  0.00     0.000 HD 
HETATM   29  N   UNL     1      -7.402   6.588  64.949  1.00  0.00    -0.071 NA 
HETATM   30  N   UNL     1      -6.263   7.121  65.365  1.00  0.00    -0.037 NA 
HETATM   31  N   UNL     1      -6.331   7.079  66.703  1.00  0.00    -0.048 NA 
ENDBRANCH  22  26
ENDBRANCH  16  20
ENDBRANCH  13  14
ENDBRANCH   9  13
BRANCH   8  32
HETATM   32  C   UNL     1     -10.425  15.218  68.856  1.00  0.00    -0.241 C  
HETATM   33  O   UNL     1      -9.536  14.483  68.461  1.00  0.00    -0.210 OA 
BRANCH  32  34
HETATM   34  O   UNL     1     -10.995  16.204  68.117  1.00  0.00    -0.320 OA 
BRANCH  34  35
HETATM   35  C   UNL     1     -10.031  17.146  67.622  1.00  0.00    -0.283 C  
HETATM   36  C   UNL     1     -10.783  18.470  67.480  1.00  0.00    -0.419 C  
BRANCH  35  37
HETATM   37  O   UNL     1      -8.985  17.414  68.556  1.00  0.00    -0.266 OA 
BRANCH  37  38
HETATM   38  C   UNL     1      -7.723  17.283  68.088  1.00  0.00    -0.217 C  
HETATM   39  O   UNL     1      -7.340  17.537  66.960  1.00  0.00    -0.175 OA 
BRANCH  38  40
HETATM   40  O   UNL     1      -6.975  16.844  69.117  1.00  0.00    -0.224 OA 
BRANCH  40  41
HETATM   41  C   UNL     1      -5.741  16.105  68.970  1.00  0.00    -0.119 C  
HETATM   42  C   UNL     1      -5.943  13.164  69.385  1.00  0.00    -0.102 C  
HETATM   43  C   UNL     1      -5.461  15.438  70.319  1.00  0.00    -0.131 C  
HETATM   44  C   UNL     1      -6.271  14.157  70.491  1.00  0.00    -0.138 C  
HETATM   45  C   UNL     1      -6.185  13.743  67.994  1.00  0.00    -0.141 C  
HETATM   46  C   UNL     1      -5.582  15.137  67.793  1.00  0.00    -0.101 C  
ENDBRANCH  40  41
ENDBRANCH  38  40
ENDBRANCH  37  38
ENDBRANCH  35  37
ENDBRANCH  34  35
ENDBRANCH  32  34
ENDBRANCH   8  32
ENDBRANCH   3   4
ENDBRANCH   2   3
TORSDOF 13
ENDMDL
MODEL      142
REMARK 921   NORMALIZED FREE ENERGY PREDICTED BY IDOCK:   -5.83 KCAL/MOL
REMARK 922        TOTAL FREE ENERGY PREDICTED BY IDOCK:  -12.71 KCAL/MOL
REMARK 923 INTER-LIGAND FREE ENERGY PREDICTED BY IDOCK:  -11.08 KCAL/MOL
REMARK 924 INTRA-LIGAND FREE ENERGY PREDICTED BY IDOCK:   -1.63 KCAL/MOL
REMARK 927      BINDING AFFINITY PREDICTED BY RF-SCORE:    0.00 PKD
ROOT
HETATM    1  C   UNL     1     -12.384  14.559  69.864  1.00  0.00    -0.347 C  
HETATM    2  C   UNL     1     -12.519  13.418  70.857  1.00  0.00    -0.359 C  
ENDROOT
BRANCH   2   3
HETATM    3  O   UNL     1     -11.744  12.319  70.367  1.00  0.00    -0.242 OA 
BRANCH   3   4
HETATM    4  C   UNL     1     -12.186  11.118  70.732  1.00  0.00    -0.385 A  
HETATM    5  N   UNL     1     -13.276  10.907  71.432  1.00  0.00    -0.325 NA 
HETATM    6  C   UNL     1     -13.341   9.552  71.579  1.00  0.00    -0.393 A  
HETATM    7  C   UNL     1     -12.302   8.892  70.895  1.00  0.00    -0.090 A  
HETATM    8  C   UNL     1     -12.286   7.476  70.842  1.00  0.00    -0.198 A  
HETATM    9  N   UNL     1     -11.512   9.948  70.456  1.00  0.00    -0.295 NA 
HETATM   10  C   UNL     1     -14.251   7.444  72.321  1.00  0.00    -0.127 A  
HETATM   11  C   UNL     1     -14.295   8.832  72.318  1.00  0.00    -0.468 A  
HETATM   12  C   UNL     1     -13.283   6.787  71.571  1.00  0.00    -0.222 A  
BRANCH   9  13
HETATM   13  C   UNL     1     -10.132   9.953  69.970  1.00  0.00    -0.260 C  
BRANCH  13  14
HETATM   14  C   UNL     1      -9.942  10.794  68.733  1.00  0.00    -0.201 A  
HETATM   15  C   UNL     1     -10.763  11.738  66.662  1.00  0.00    -0.300 A  
HETATM   16  C   UNL     1      -9.910  12.846  66.804  1.00  0.00    -0.241 A  
HETATM   17  C   UNL     1      -8.873  11.691  68.681  1.00  0.00    -0.084 A  
HETATM   18  C   UNL     1     -10.823  10.750  67.653  1.00  0.00    -0.332 A  
HETATM   19  C   UNL     1      -8.871  12.719  67.739  1.00  0.00    -0.187 A  
BRANCH  16  20
HETATM   20  C   UNL     1     -10.170  14.151  66.128  1.00  0.00    -0.313 A  
HETATM   21  C   UNL     1      -9.614  15.334  66.672  1.00  0.00    -0.276 A  
HETATM   22  C   UNL     1     -11.043  14.304  65.008  1.00  0.00    -0.377 A  
HETATM   23  C   UNL     1      -9.882  16.601  66.143  1.00  0.00    -0.340 A  
HETATM   24  C   UNL     1     -11.245  15.588  64.453  1.00  0.00    -0.232 A  
HETATM   25  C   UNL     1     -10.681  16.727  65.019  1.00  0.00    -0.118 A  
BRANCH  22  26
HETATM   26  C   UNL     1     -11.829  13.232  64.383  1.00  0.00    -0.399 A  
HETATM   27  N   UNL     1     -11.570  12.623  63.238  1.00  0.00    -0.757 NA 
HETATM   28  H   UNL     1     -10.777  12.799  62.622  1.00  0.00     0.000 HD 
HETATM   29  N   UNL     1     -12.573  11.707  63.041  1.00  0.00    -0.126 NA 
HETATM   30  N   UNL     1     -13.458  11.755  64.024  1.00  0.00    -0.281 NA 
HETATM   31  N   UNL     1     -13.023  12.732  64.833  1.00  0.00    -0.853 NA 
ENDBRANCH  22  26
ENDBRANCH  16  20
ENDBRANCH  13  14
ENDBRANCH   9  13
BRANCH   8  32
HETATM   32  C   UNL     1     -11.222   6.660  70.210  1.00  0.00    -0.353 C  
HETATM   33  O   UNL     1     -10.961   6.708  69.020  1.00  0.00    -0.265 OA 
BRANCH  32  34
HETATM   34  O   UNL     1     -10.451   6.047  71.144  1.00  0.00    -0.212 OA 
BRANCH  34  35
HETATM   35  C   UNL     1      -9.139   6.622  71.236  1.00  0.00    -0.151 C  
HETATM   36  C   UNL     1      -9.151   7.471  72.509  1.00  0.00    -0.189 C  
BRANCH  35  37
HETATM   37  O   UNL     1      -8.118   5.648  71.452  1.00  0.00    -0.113 OA 
BRANCH  37  38
HETATM   38  C   UNL     1      -7.478   5.205  70.347  1.00  0.00    -0.067 C  
HETATM   39  O   UNL     1      -7.602   5.640  69.216  1.00  0.00    -0.083 OA 
BRANCH  38  40
HETATM   40  O   UNL     1      -6.661   4.213  70.748  1.00  0.00    -0.029 OA 
BRANCH  40  41
HETATM   41  C   UNL     1      -6.994   2.807  70.685  1.00  0.00    -0.033 C  
HETATM   42  C   UNL     1      -9.149   1.909  72.531  1.00  0.00    -0.105 C  
HETATM   43  C   UNL     1      -6.707   2.222  72.069  1.00  0.00    -0.015 C  
HETATM   44  C   UNL     1      -7.845   2.502  73.045  1.00  0.00    -0.047 C  
HETATM   45  C   UNL     1      -9.518   2.431  71.145  1.00  0.00    -0.220 C  
HETATM   46  C   UNL     1      -8.363   2.385  70.141  1.00  0.00    -0.073 C  
ENDBRANCH  40  41
ENDBRANCH  38  40
ENDBRANCH  37  38
ENDBRANCH  35  37
ENDBRANCH  34  35
ENDBRANCH  32  34
ENDBRANCH   8  32
ENDBRANCH   3   4
ENDBRANCH   2   3
TORSDOF 13
ENDMDL
MODEL      143
REMARK 921   NORMALIZED FREE ENERGY PREDICTED BY IDOCK:   -5.83 KCAL/MOL
REMARK 922        TOTAL FREE ENERGY PREDICTED BY IDOCK:  -12.71 KCAL/MOL
REMARK 923 INTER-LIGAND FREE ENERGY PREDICTED BY IDOCK:  -11.75 KCAL/MOL
REMARK 924 INTRA-LIGAND FREE ENERGY PREDICTED BY IDOCK:   -0.97 KCAL/MOL
REMARK 927      BINDING AFFINITY PREDICTED BY RF-SCORE:    0.00 PKD
ROOT
HETATM    1  C   UNL     1      -7.415   9.818  66.880  1.00  0.00    -0.091 C  
HETATM    2  C   UNL     1      -6.904   9.997  68.298  1.00  0.00    -0.063 C  
ENDROOT
BRANCH   2   3
HETATM    3  O   UNL     1      -8.007  10.408  69.112  1.00  0.00    -0.118 OA 
BRANCH   3   4
HETATM    4  C   UNL     1      -8.147   9.729  70.247  1.00  0.00    -0.154 A  
HETATM    5  N   UNL     1      -7.193   9.553  71.132  1.00  0.00    -0.329 NA 
HETATM    6  C   UNL     1      -7.765   8.804  72.120  1.00  0.00     0.063 A  
HETATM    7  C   UNL     1      -9.132   8.564  71.881  1.00  0.00    -0.244 A  
HETATM    8  C   UNL     1      -9.910   7.904  72.865  1.00  0.00    -0.348 A  
HETATM    9  N   UNL     1      -9.310   9.081  70.604  1.00  0.00    -0.213 NA 
HETATM   10  C   UNL     1      -7.869   7.592  74.203  1.00  0.00    -0.208 A  
HETATM   11  C   UNL     1      -7.126   8.293  73.262  1.00  0.00    -0.147 A  
HETATM   12  C   UNL     1      -9.237   7.433  74.017  1.00  0.00    -0.292 A  
BRANCH   9  13
HETATM   13  C   UNL     1     -10.396   8.871  69.646  1.00  0.00    -0.212 C  
BRANCH  13  14
HETATM   14  C   UNL     1     -10.927  10.154  69.059  1.00  0.00    -0.265 A  
HETATM   15  C   UNL     1     -11.518  12.492  69.256  1.00  0.00    -0.353 A  
HETATM   16  C   UNL     1     -11.244  12.698  67.893  1.00  0.00    -0.310 A  
HETATM   17  C   UNL     1     -11.004  10.285  67.671  1.00  0.00    -0.356 A  
HETATM   18  C   UNL     1     -11.299  11.242  69.848  1.00  0.00    -0.329 A  
HETATM   19  C   UNL     1     -11.139  11.547  67.095  1.00  0.00    -0.355 A  
BRANCH  16  20
HETATM   20  C   UNL     1     -10.922  14.044  67.333  1.00  0.00    -0.302 A  
HETATM   21  C   UNL     1     -10.495  15.072  68.208  1.00  0.00    -0.237 A  
HETATM   22  C   UNL     1     -11.118  14.401  65.964  1.00  0.00    -0.324 A  
HETATM   23  C   UNL     1     -10.256  16.378  67.769  1.00  0.00    -0.274 A  
HETATM   24  C   UNL     1     -10.807  15.711  65.535  1.00  0.00    -0.356 A  
HETATM   25  C   UNL     1     -10.390  16.694  66.427  1.00  0.00    -0.310 A  
BRANCH  22  26
HETATM   26  C   UNL     1     -11.686  13.531  64.925  1.00  0.00    -0.357 A  
HETATM   27  N   UNL     1     -11.062  13.056  63.861  1.00  0.00    -0.508 NA 
HETATM   28  H   UNL     1     -10.087  13.214  63.606  1.00  0.00     0.000 HD 
HETATM   29  N   UNL     1     -11.980  12.308  63.165  1.00  0.00    -0.349 NA 
HETATM   30  N   UNL     1     -13.160  12.332  63.763  1.00  0.00    -0.774 NA 
HETATM   31  N   UNL     1     -12.992  13.127  64.829  1.00  0.00    -0.736 NA 
ENDBRANCH  22  26
ENDBRANCH  16  20
ENDBRANCH  13  14
ENDBRANCH   9  13
BRANCH   8  32
HETATM   32  C   UNL     1     -11.338   7.536  72.716  1.00  0.00    -0.336 C  
HETATM   33  O   UNL     1     -12.220   8.353  72.510  1.00  0.00    -0.386 OA 
BRANCH  32  34
HETATM   34  O   UNL     1     -11.492   6.192  72.610  1.00  0.00    -0.276 OA 
BRANCH  34  35
HETATM   35  C   UNL     1     -10.442   5.577  71.850  1.00  0.00    -0.225 C  
HETATM   36  C   UNL     1     -10.166   4.238  72.536  1.00  0.00    -0.238 C  
BRANCH  35  37
HETATM   37  O   UNL     1     -10.842   5.235  70.522  1.00  0.00    -0.199 OA 
BRANCH  37  38
HETATM   38  C   UNL     1      -9.847   5.105  69.617  1.00  0.00    -0.216 C  
HETATM   39  O   UNL     1      -8.699   5.494  69.743  1.00  0.00    -0.113 OA 
BRANCH  38  40
HETATM   40  O   UNL     1     -10.366   4.441  68.568  1.00  0.00     0.113 OA 
BRANCH  40  41
HETATM   41  C   UNL     1      -9.769   4.405  67.251  1.00  0.00    -0.184 C  
HETATM   42  C   UNL     1      -8.794   7.016  66.206  1.00  0.00    -0.164 C  
HETATM   43  C   UNL     1     -10.620   5.308  66.355  1.00  0.00    -0.338 C  
HETATM   44  C   UNL     1     -10.261   6.779  66.536  1.00  0.00    -0.125 C  
HETATM   45  C   UNL     1      -7.862   6.151  67.048  1.00  0.00    -0.101 C  
HETATM   46  C   UNL     1      -8.268   4.675  67.099  1.00  0.00    -0.105 C  
ENDBRANCH  40  41
ENDBRANCH  38  40
ENDBRANCH  37  38
ENDBRANCH  35  37
ENDBRANCH  34  35
ENDBRANCH  32  34
ENDBRANCH   8  32
ENDBRANCH   3   4
ENDBRANCH   2   3
TORSDOF 13
ENDMDL
MODEL      144
REMARK 921   NORMALIZED FREE ENERGY PREDICTED BY IDOCK:   -5.82 KCAL/MOL
REMARK 922        TOTAL FREE ENERGY PREDICTED BY IDOCK:  -12.69 KCAL/MOL
REMARK 923 INTER-LIGAND FREE ENERGY PREDICTED BY IDOCK:   -8.60 KCAL/MOL
REMARK 924 INTRA-LIGAND FREE ENERGY PREDICTED BY IDOCK:   -4.09 KCAL/MOL
REMARK 927      BINDING AFFINITY PREDICTED BY RF-SCORE:    0.00 PKD
ROOT
HETATM    1  C   UNL     1      -7.044   2.888  65.643  1.00  0.00    -0.061 C  
HETATM    2  C   UNL     1      -7.343   2.686  67.118  1.00  0.00    -0.057 C  
ENDROOT
BRANCH   2   3
HETATM    3  O   UNL     1      -8.759   2.800  67.297  1.00  0.00    -0.102 OA 
BRANCH   3   4
HETATM    4  C   UNL     1      -9.136   3.281  68.478  1.00  0.00    -0.155 A  
HETATM    5  N   UNL     1      -8.785   2.773  69.636  1.00  0.00    -0.068 NA 
HETATM    6  C   UNL     1      -9.393   3.564  70.566  1.00  0.00    -0.160 A  
HETATM    7  C   UNL     1     -10.087   4.640  69.977  1.00  0.00    -0.197 A  
HETATM    8  C   UNL     1     -10.677   5.629  70.802  1.00  0.00    -0.320 A  
HETATM    9  N   UNL     1      -9.990   4.353  68.621  1.00  0.00    -0.067 NA 
HETATM   10  C   UNL     1     -10.008   4.319  72.774  1.00  0.00    -0.206 A  
HETATM   11  C   UNL     1      -9.380   3.386  71.960  1.00  0.00    -0.186 A  
HETATM   12  C   UNL     1     -10.613   5.431  72.201  1.00  0.00    -0.284 A  
BRANCH   9  13
HETATM   13  C   UNL     1     -10.755   4.881  67.490  1.00  0.00     0.311 C  
BRANCH  13  14
HETATM   14  C   UNL     1     -10.103   6.074  66.838  1.00  0.00    -0.229 A  
HETATM   15  C   UNL     1      -9.799   8.463  66.606  1.00  0.00    -0.343 A  
HETATM   16  C   UNL     1      -8.474   8.275  66.178  1.00  0.00    -0.141 A  
HETATM   17  C   UNL     1      -8.940   5.886  66.089  1.00  0.00    -0.157 A  
HETATM   18  C   UNL     1     -10.587   7.372  66.995  1.00  0.00    -0.414 A  
HETATM   19  C   UNL     1      -8.124   6.974  65.782  1.00  0.00    -0.123 A  
BRANCH  16  20
HETATM   20  C   UNL     1      -7.437   9.344  66.280  1.00  0.00    -0.096 A  
HETATM   21  C   UNL     1      -6.883   9.884  65.094  1.00  0.00    -0.124 A  
HETATM   22  C   UNL     1      -6.881   9.794  67.516  1.00  0.00    -0.082 A  
HETATM   23  C   UNL     1      -5.850  10.827  65.112  1.00  0.00    -0.030 A  
HETATM   24  C   UNL     1      -5.883  10.795  67.507  1.00  0.00    -0.044 A  
HETATM   25  C   UNL     1      -5.364  11.300  66.319  1.00  0.00    -0.134 A  
BRANCH  22  26
HETATM   26  C   UNL     1      -7.210   9.264  68.846  1.00  0.00    -0.073 A  
HETATM   27  N   UNL     1      -7.652   9.949  69.886  1.00  0.00    -0.146 NA 
HETATM   28  H   UNL     1      -7.843  10.951  69.918  1.00  0.00     0.000 HD 
HETATM   29  N   UNL     1      -7.808   9.053  70.915  1.00  0.00    -0.136 NA 
HETATM   30  N   UNL     1      -7.447   7.836  70.540  1.00  0.00    -0.073 NA 
HETATM   31  N   UNL     1      -7.033   7.973  69.273  1.00  0.00    -0.055 NA 
ENDBRANCH  22  26
ENDBRANCH  16  20
ENDBRANCH  13  14
ENDBRANCH   9  13
BRANCH   8  32
HETATM   32  C   UNL     1     -11.483   6.774  70.315  1.00  0.00    -0.360 C  
HETATM   33  O   UNL     1     -12.701   6.803  70.366  1.00  0.00    -0.053 OA 
BRANCH  32  34
HETATM   34  O   UNL     1     -10.698   7.844  70.029  1.00  0.00    -0.240 OA 
BRANCH  34  35
HETATM   35  C   UNL     1     -11.372   9.092  70.247  1.00  0.00    -0.188 C  
HETATM   36  C   UNL     1     -11.181   9.409  71.731  1.00  0.00    -0.359 C  
BRANCH  35  37
HETATM   37  O   UNL     1     -10.760  10.182  69.556  1.00  0.00    -0.215 OA 
BRANCH  37  38
HETATM   38  C   UNL     1     -11.577  11.206  69.223  1.00  0.00    -0.318 C  
HETATM   39  O   UNL     1     -11.981  12.082  69.967  1.00  0.00    -0.326 OA 
BRANCH  38  40
HETATM   40  O   UNL     1     -11.832  11.082  67.907  1.00  0.00    -0.600 OA 
BRANCH  40  41
HETATM   41  C   UNL     1     -11.040  11.693  66.862  1.00  0.00    -0.308 C  
HETATM   42  C   UNL     1     -10.968  14.668  66.871  1.00  0.00    -0.324 C  
HETATM   43  C   UNL     1     -11.995  12.546  66.025  1.00  0.00    -0.456 C  
HETATM   44  C   UNL     1     -12.266  13.896  66.682  1.00  0.00    -0.465 C  
HETATM   45  C   UNL     1      -9.945  13.891  67.694  1.00  0.00    -0.237 C  
HETATM   46  C   UNL     1      -9.756  12.442  67.235  1.00  0.00    -0.201 C  
ENDBRANCH  40  41
ENDBRANCH  38  40
ENDBRANCH  37  38
ENDBRANCH  35  37
ENDBRANCH  34  35
ENDBRANCH  32  34
ENDBRANCH   8  32
ENDBRANCH   3   4
ENDBRANCH   2   3
TORSDOF 13
ENDMDL
MODEL      145
REMARK 921   NORMALIZED FREE ENERGY PREDICTED BY IDOCK:   -5.80 KCAL/MOL
REMARK 922        TOTAL FREE ENERGY PREDICTED BY IDOCK:  -12.66 KCAL/MOL
REMARK 923 INTER-LIGAND FREE ENERGY PREDICTED BY IDOCK:  -10.58 KCAL/MOL
REMARK 924 INTRA-LIGAND FREE ENERGY PREDICTED BY IDOCK:   -2.08 KCAL/MOL
REMARK 927      BINDING AFFINITY PREDICTED BY RF-SCORE:    0.00 PKD
ROOT
HETATM    1  C   UNL     1     -12.458  14.303  65.155  1.00  0.00    -0.423 C  
HETATM    2  C   UNL     1     -12.259  13.724  66.544  1.00  0.00    -0.430 C  
ENDROOT
BRANCH   2   3
HETATM    3  O   UNL     1     -11.567  12.478  66.404  1.00  0.00    -0.349 OA 
BRANCH   3   4
HETATM    4  C   UNL     1     -11.415  11.794  67.534  1.00  0.00    -0.303 A  
HETATM    5  N   UNL     1     -12.393  11.475  68.350  1.00  0.00    -0.345 NA 
HETATM    6  C   UNL     1     -11.793  10.792  69.368  1.00  0.00    -0.298 A  
HETATM    7  C   UNL     1     -10.412  10.618  69.150  1.00  0.00    -0.222 A  
HETATM    8  C   UNL     1      -9.656   9.826  70.049  1.00  0.00    -0.282 A  
HETATM    9  N   UNL     1     -10.189  11.380  68.009  1.00  0.00    -0.180 NA 
HETATM   10  C   UNL     1     -11.664   9.574  71.446  1.00  0.00    -0.465 A  
HETATM   11  C   UNL     1     -12.413  10.300  70.529  1.00  0.00    -0.351 A  
HETATM   12  C   UNL     1     -10.323   9.320  71.188  1.00  0.00    -0.392 A  
BRANCH   9  13
HETATM   13  C   UNL     1      -8.937  11.884  67.444  1.00  0.00    -0.173 C  
BRANCH  13  14
HETATM   14  C   UNL     1      -8.675  13.331  67.778  1.00  0.00    -0.194 A  
HETATM   15  C   UNL     1      -7.966  15.558  67.151  1.00  0.00    -0.255 A  
HETATM   16  C   UNL     1      -8.814  16.123  68.118  1.00  0.00    -0.184 A  
HETATM   17  C   UNL     1      -9.224  13.868  68.943  1.00  0.00     0.081 A  
HETATM   18  C   UNL     1      -7.946  14.173  66.940  1.00  0.00     0.154 A  
HETATM   19  C   UNL     1      -9.311  15.251  69.100  1.00  0.00    -0.236 A  
BRANCH  16  20
HETATM   20  C   UNL     1      -9.299  17.533  68.036  1.00  0.00    -0.272 A  
HETATM   21  C   UNL     1     -10.502  17.809  67.342  1.00  0.00    -0.367 A  
HETATM   22  C   UNL     1      -8.565  18.654  68.529  1.00  0.00    -0.370 A  
HETATM   23  C   UNL     1     -10.975  19.112  67.152  1.00  0.00    -0.389 A  
HETATM   24  C   UNL     1      -9.098  19.954  68.380  1.00  0.00    -0.280 A  
HETATM   25  C   UNL     1     -10.284  20.185  67.690  1.00  0.00    -0.516 A  
BRANCH  22  26
HETATM   26  C   UNL     1      -7.235  18.601  69.150  1.00  0.00    -0.195 A  
HETATM   27  N   UNL     1      -6.519  17.518  69.399  1.00  0.00    -0.246 NA 
HETATM   28  H   UNL     1      -6.779  16.554  69.188  1.00  0.00     0.000 HD 
HETATM   29  N   UNL     1      -5.357  17.940  69.997  1.00  0.00    -0.217 NA 
HETATM   30  N   UNL     1      -5.352  19.255  70.144  1.00  0.00    -0.205 NA 
HETATM   31  N   UNL     1      -6.534  19.662  69.661  1.00  0.00    -0.329 NA 
ENDBRANCH  22  26
ENDBRANCH  16  20
ENDBRANCH  13  14
ENDBRANCH   9  13
BRANCH   8  32
HETATM   32  C   UNL     1      -8.191   9.613  69.970  1.00  0.00    -0.184 C  
HETATM   33  O   UNL     1      -7.374  10.442  70.335  1.00  0.00    -0.245 OA 
BRANCH  32  34
HETATM   34  O   UNL     1      -7.896   8.324  69.662  1.00  0.00    -0.097 OA 
BRANCH  34  35
HETATM   35  C   UNL     1      -8.173   8.010  68.289  1.00  0.00    -0.123 C  
HETATM   36  C   UNL     1      -6.993   8.569  67.493  1.00  0.00    -0.079 C  
BRANCH  35  37
HETATM   37  O   UNL     1      -8.163   6.606  68.027  1.00  0.00    -0.115 OA 
BRANCH  37  38
HETATM   38  C   UNL     1      -7.366   5.860  68.824  1.00  0.00    -0.084 C  
HETATM   39  O   UNL     1      -6.195   5.588  68.626  1.00  0.00    -0.030 OA 
BRANCH  38  40
HETATM   40  O   UNL     1      -8.112   5.501  69.886  1.00  0.00    -0.094 OA 
BRANCH  40  41
HETATM   41  C   UNL     1      -9.489   5.067  69.805  1.00  0.00    -0.150 C  
HETATM   42  C   UNL     1     -10.655   3.999  72.327  1.00  0.00    -0.046 C  
HETATM   43  C   UNL     1      -9.503   3.574  70.144  1.00  0.00    -0.252 C  
HETATM   44  C   UNL     1      -9.462   3.339  71.650  1.00  0.00    -0.220 C  
HETATM   45  C   UNL     1     -10.730   5.496  72.041  1.00  0.00    -0.293 C  
HETATM   46  C   UNL     1     -10.568   5.850  70.560  1.00  0.00    -0.342 C  
ENDBRANCH  40  41
ENDBRANCH  38  40
ENDBRANCH  37  38
ENDBRANCH  35  37
ENDBRANCH  34  35
ENDBRANCH  32  34
ENDBRANCH   8  32
ENDBRANCH   3   4
ENDBRANCH   2   3
TORSDOF 13
ENDMDL
MODEL      146
REMARK 921   NORMALIZED FREE ENERGY PREDICTED BY IDOCK:   -5.80 KCAL/MOL
REMARK 922        TOTAL FREE ENERGY PREDICTED BY IDOCK:  -12.66 KCAL/MOL
REMARK 923 INTER-LIGAND FREE ENERGY PREDICTED BY IDOCK:  -11.59 KCAL/MOL
REMARK 924 INTRA-LIGAND FREE ENERGY PREDICTED BY IDOCK:   -1.07 KCAL/MOL
REMARK 927      BINDING AFFINITY PREDICTED BY RF-SCORE:    0.00 PKD
ROOT
HETATM    1  C   UNL     1     -12.028  14.307  69.169  1.00  0.00    -0.372 C  
HETATM    2  C   UNL     1     -12.240  13.113  70.082  1.00  0.00    -0.290 C  
ENDROOT
BRANCH   2   3
HETATM    3  O   UNL     1     -11.179  12.183  69.840  1.00  0.00    -0.095 OA 
BRANCH   3   4
HETATM    4  C   UNL     1     -11.451  10.925  70.178  1.00  0.00    -0.319 A  
HETATM    5  N   UNL     1     -12.520  10.546  70.837  1.00  0.00    -0.356 NA 
HETATM    6  C   UNL     1     -12.390   9.194  70.969  1.00  0.00    -0.214 A  
HETATM    7  C   UNL     1     -11.242   8.704  70.315  1.00  0.00    -0.184 A  
HETATM    8  C   UNL     1     -11.016   7.306  70.249  1.00  0.00    -0.281 A  
HETATM    9  N   UNL     1     -10.603   9.870  69.914  1.00  0.00    -0.252 NA 
HETATM   10  C   UNL     1     -13.003   6.964  71.658  1.00  0.00    -0.359 A  
HETATM   11  C   UNL     1     -13.251   8.331  71.667  1.00  0.00    -0.349 A  
HETATM   12  C   UNL     1     -11.925   6.468  70.936  1.00  0.00    -0.353 A  
BRANCH   9  13
HETATM   13  C   UNL     1      -9.224  10.085  69.476  1.00  0.00    -0.221 C  
BRANCH  13  14
HETATM   14  C   UNL     1      -9.104  11.100  68.367  1.00  0.00    -0.168 A  
HETATM   15  C   UNL     1      -9.950  12.167  66.367  1.00  0.00    -0.243 A  
HETATM   16  C   UNL     1      -9.301  13.366  66.706  1.00  0.00    -0.260 A  
HETATM   17  C   UNL     1      -8.196  12.152  68.506  1.00  0.00    -0.104 A  
HETATM   18  C   UNL     1      -9.903  11.061  67.226  1.00  0.00    -0.204 A  
HETATM   19  C   UNL     1      -8.310  13.282  67.697  1.00  0.00    -0.181 A  
BRANCH  16  20
HETATM   20  C   UNL     1      -9.733  14.692  66.173  1.00  0.00    -0.344 A  
HETATM   21  C   UNL     1      -9.163  15.872  66.711  1.00  0.00    -0.264 A  
HETATM   22  C   UNL     1     -10.778  14.859  65.214  1.00  0.00    -0.409 A  
HETATM   23  C   UNL     1      -9.578  17.150  66.321  1.00  0.00    -0.273 A  
HETATM   24  C   UNL     1     -11.133  16.160  64.790  1.00  0.00    -0.345 A  
HETATM   25  C   UNL     1     -10.549  17.295  65.344  1.00  0.00    -0.083 A  
BRANCH  22  26
HETATM   26  C   UNL     1     -11.593  13.780  64.640  1.00  0.00    -0.378 A  
HETATM   27  N   UNL     1     -11.413  13.185  63.473  1.00  0.00    -0.647 NA 
HETATM   28  H   UNL     1     -10.673  13.379  62.799  1.00  0.00     0.000 HD 
HETATM   29  N   UNL     1     -12.415  12.255  63.344  1.00  0.00    -0.674 NA 
HETATM   30  N   UNL     1     -13.222  12.281  64.393  1.00  0.00    -0.749 NA 
HETATM   31  N   UNL     1     -12.741  13.257  65.175  1.00  0.00    -0.666 NA 
ENDBRANCH  22  26
ENDBRANCH  16  20
ENDBRANCH  13  14
ENDBRANCH   9  13
BRANCH   8  32
HETATM   32  C   UNL     1      -9.824   6.665  69.647  1.00  0.00    -0.157 C  
HETATM   33  O   UNL     1      -8.694   6.812  70.082  1.00  0.00    -0.139 OA 
BRANCH  32  34
HETATM   34  O   UNL     1     -10.177   5.739  68.720  1.00  0.00    -0.161 OA 
BRANCH  34  35
HETATM   35  C   UNL     1      -9.107   4.832  68.414  1.00  0.00    -0.117 C  
HETATM   36  C   UNL     1      -9.334   3.611  69.307  1.00  0.00    -0.245 C  
BRANCH  35  37
HETATM   37  O   UNL     1      -9.169   4.329  67.079  1.00  0.00    -0.128 OA 
BRANCH  37  38
HETATM   38  C   UNL     1      -7.987   4.211  66.434  1.00  0.00    -0.098 C  
HETATM   39  O   UNL     1      -7.009   4.922  66.580  1.00  0.00    -0.064 OA 
BRANCH  38  40
HETATM   40  O   UNL     1      -8.096   3.142  65.623  1.00  0.00    -0.085 OA 
BRANCH  40  41
HETATM   41  C   UNL     1      -8.155   3.216  64.180  1.00  0.00    -0.082 C  
HETATM   42  C   UNL     1     -10.784   2.540  62.960  1.00  0.00    -0.206 C  
HETATM   43  C   UNL     1      -8.498   1.812  63.678  1.00  0.00    -0.080 C  
HETATM   44  C   UNL     1      -9.993   1.528  63.777  1.00  0.00    -0.127 C  
HETATM   45  C   UNL     1     -10.503   3.978  63.385  1.00  0.00    -0.128 C  
HETATM   46  C   UNL     1      -9.012   4.301  63.519  1.00  0.00    -0.134 C  
ENDBRANCH  40  41
ENDBRANCH  38  40
ENDBRANCH  37  38
ENDBRANCH  35  37
ENDBRANCH  34  35
ENDBRANCH  32  34
ENDBRANCH   8  32
ENDBRANCH   3   4
ENDBRANCH   2   3
TORSDOF 13
ENDMDL
MODEL      147
REMARK 921   NORMALIZED FREE ENERGY PREDICTED BY IDOCK:   -5.80 KCAL/MOL
REMARK 922        TOTAL FREE ENERGY PREDICTED BY IDOCK:  -12.65 KCAL/MOL
REMARK 923 INTER-LIGAND FREE ENERGY PREDICTED BY IDOCK:   -9.16 KCAL/MOL
REMARK 924 INTRA-LIGAND FREE ENERGY PREDICTED BY IDOCK:   -3.49 KCAL/MOL
REMARK 927      BINDING AFFINITY PREDICTED BY RF-SCORE:    0.00 PKD
ROOT
HETATM    1  C   UNL     1      -6.122   1.619  72.210  1.00  0.00    -0.009 C  
HETATM    2  C   UNL     1      -7.478   1.776  71.544  1.00  0.00    -0.036 C  
ENDROOT
BRANCH   2   3
HETATM    3  O   UNL     1      -7.488   3.036  70.865  1.00  0.00    -0.036 OA 
BRANCH   3   4
HETATM    4  C   UNL     1      -8.106   4.017  71.517  1.00  0.00    -0.077 A  
HETATM    5  N   UNL     1      -7.821   4.392  72.743  1.00  0.00    -0.085 NA 
HETATM    6  C   UNL     1      -8.690   5.409  73.010  1.00  0.00    -0.121 A  
HETATM    7  C   UNL     1      -9.495   5.727  71.898  1.00  0.00    -0.151 A  
HETATM    8  C   UNL     1     -10.371   6.839  71.961  1.00  0.00    -0.217 A  
HETATM    9  N   UNL     1      -9.164   4.727  70.992  1.00  0.00    -0.135 NA 
HETATM   10  C   UNL     1      -9.730   7.151  74.316  1.00  0.00    -0.197 A  
HETATM   11  C   UNL     1      -8.829   6.098  74.226  1.00  0.00    -0.135 A  
HETATM   12  C   UNL     1     -10.458   7.528  73.193  1.00  0.00    -0.419 A  
BRANCH   9  13
HETATM   13  C   UNL     1      -9.859   4.285  69.781  1.00  0.00    -0.187 C  
BRANCH  13  14
HETATM   14  C   UNL     1      -9.438   5.041  68.546  1.00  0.00    -0.185 A  
HETATM   15  C   UNL     1      -9.878   5.880  66.320  1.00  0.00    -0.119 A  
HETATM   16  C   UNL     1      -9.015   6.968  66.536  1.00  0.00    -0.165 A  
HETATM   17  C   UNL     1      -8.340   5.900  68.618  1.00  0.00    -0.109 A  
HETATM   18  C   UNL     1     -10.137   4.959  67.343  1.00  0.00    -0.196 A  
HETATM   19  C   UNL     1      -8.144   6.867  67.632  1.00  0.00    -0.113 A  
BRANCH  16  20
HETATM   20  C   UNL     1      -9.110   8.236  65.754  1.00  0.00    -0.169 A  
HETATM   21  C   UNL     1     -10.049   9.221  66.146  1.00  0.00    -0.304 A  
HETATM   22  C   UNL     1      -8.377   8.484  64.554  1.00  0.00    -0.138 A  
HETATM   23  C   UNL     1     -10.253  10.395  65.414  1.00  0.00    -0.329 A  
HETATM   24  C   UNL     1      -8.556   9.708  63.870  1.00  0.00    -0.217 A  
HETATM   25  C   UNL     1      -9.490  10.650  64.287  1.00  0.00    -0.321 A  
BRANCH  22  26
HETATM   26  C   UNL     1      -7.463   7.540  63.898  1.00  0.00    -0.108 A  
HETATM   27  N   UNL     1      -6.141   7.580  63.907  1.00  0.00    -0.048 NA 
HETATM   28  H   UNL     1      -5.556   8.268  64.381  1.00  0.00     0.000 HD 
HETATM   29  N   UNL     1      -5.707   6.515  63.156  1.00  0.00    -0.033 NA 
HETATM   30  N   UNL     1      -6.731   5.835  62.665  1.00  0.00    -0.038 NA 
HETATM   31  N   UNL     1      -7.819   6.495  63.085  1.00  0.00    -0.102 NA 
ENDBRANCH  22  26
ENDBRANCH  16  20
ENDBRANCH  13  14
ENDBRANCH   9  13
BRANCH   8  32
HETATM   32  C   UNL     1     -11.312   7.243  70.890  1.00  0.00    -0.280 C  
HETATM   33  O   UNL     1     -12.524   7.186  71.008  1.00  0.00    -0.357 OA 
BRANCH  32  34
HETATM   34  O   UNL     1     -10.666   7.882  69.882  1.00  0.00    -0.244 OA 
BRANCH  34  35
HETATM   35  C   UNL     1     -10.425   9.267  70.175  1.00  0.00    -0.230 C  
HETATM   36  C   UNL     1      -8.909   9.397  70.331  1.00  0.00    -0.290 C  
BRANCH  35  37
HETATM   37  O   UNL     1     -10.759  10.132  69.089  1.00  0.00    -0.203 OA 
BRANCH  37  38
HETATM   38  C   UNL     1     -11.764  11.007  69.315  1.00  0.00    -0.326 C  
HETATM   39  O   UNL     1     -12.386  11.141  70.354  1.00  0.00    -0.320 OA 
BRANCH  38  40
HETATM   40  O   UNL     1     -11.921  11.714  68.181  1.00  0.00    -0.550 OA 
BRANCH  40  41
HETATM   41  C   UNL     1     -11.770  13.149  68.088  1.00  0.00    -0.355 C  
HETATM   42  C   UNL     1      -9.715  14.107  66.160  1.00  0.00    -0.310 C  
HETATM   43  C   UNL     1     -10.333  13.470  68.502  1.00  0.00    -0.242 C  
HETATM   44  C   UNL     1      -9.352  13.240  67.357  1.00  0.00    -0.217 C  
HETATM   45  C   UNL     1     -11.141  13.862  65.675  1.00  0.00    -0.298 C  
HETATM   46  C   UNL     1     -12.183  13.865  66.797  1.00  0.00    -0.438 C  
ENDBRANCH  40  41
ENDBRANCH  38  40
ENDBRANCH  37  38
ENDBRANCH  35  37
ENDBRANCH  34  35
ENDBRANCH  32  34
ENDBRANCH   8  32
ENDBRANCH   3   4
ENDBRANCH   2   3
TORSDOF 13
ENDMDL
MODEL      148
REMARK 921   NORMALIZED FREE ENERGY PREDICTED BY IDOCK:   -5.77 KCAL/MOL
REMARK 922        TOTAL FREE ENERGY PREDICTED BY IDOCK:  -12.61 KCAL/MOL
REMARK 923 INTER-LIGAND FREE ENERGY PREDICTED BY IDOCK:  -10.77 KCAL/MOL
REMARK 924 INTRA-LIGAND FREE ENERGY PREDICTED BY IDOCK:   -1.84 KCAL/MOL
REMARK 927      BINDING AFFINITY PREDICTED BY RF-SCORE:    0.00 PKD
ROOT
HETATM    1  C   UNL     1      -6.251   3.885  67.665  1.00  0.00    -0.036 C  
HETATM    2  C   UNL     1      -6.701   4.580  68.938  1.00  0.00    -0.046 C  
ENDROOT
BRANCH   2   3
HETATM    3  O   UNL     1      -8.126   4.475  69.013  1.00  0.00    -0.073 OA 
BRANCH   3   4
HETATM    4  C   UNL     1      -8.671   5.027  70.094  1.00  0.00    -0.109 A  
HETATM    5  N   UNL     1      -8.154   4.971  71.300  1.00  0.00    -0.108 NA 
HETATM    6  C   UNL     1      -9.032   5.653  72.090  1.00  0.00    -0.137 A  
HETATM    7  C   UNL     1     -10.092   6.212  71.348  1.00  0.00    -0.194 A  
HETATM    8  C   UNL     1     -11.031   7.055  71.993  1.00  0.00    -0.264 A  
HETATM    9  N   UNL     1      -9.881   5.686  70.080  1.00  0.00    -0.174 NA 
HETATM   10  C   UNL     1      -9.910   6.590  74.133  1.00  0.00    -0.318 A  
HETATM   11  C   UNL     1      -8.958   5.815  73.484  1.00  0.00    -0.128 A  
HETATM   12  C   UNL     1     -10.903   7.220  73.392  1.00  0.00    -0.370 A  
BRANCH   9  13
HETATM   13  C   UNL     1     -10.785   5.605  68.932  1.00  0.00    -0.209 C  
BRANCH  13  14
HETATM   14  C   UNL     1     -10.297   6.383  67.736  1.00  0.00    -0.238 A  
HETATM   15  C   UNL     1      -9.472   8.418  66.721  1.00  0.00    -0.255 A  
HETATM   16  C   UNL     1      -8.761   7.677  65.761  1.00  0.00    -0.151 A  
HETATM   17  C   UNL     1      -9.893   5.688  66.594  1.00  0.00    -0.191 A  
HETATM   18  C   UNL     1     -10.183   7.772  67.740  1.00  0.00    -0.271 A  
HETATM   19  C   UNL     1      -9.114   6.325  65.629  1.00  0.00     0.019 A  
BRANCH  16  20
HETATM   20  C   UNL     1      -7.586   8.233  65.026  1.00  0.00    -0.095 A  
HETATM   21  C   UNL     1      -6.354   7.537  65.068  1.00  0.00    -0.038 A  
HETATM   22  C   UNL     1      -7.593   9.494  64.358  1.00  0.00    -0.122 A  
HETATM   23  C   UNL     1      -5.190   8.037  64.474  1.00  0.00    -0.036 A  
HETATM   24  C   UNL     1      -6.421   9.946  63.711  1.00  0.00    -0.126 A  
HETATM   25  C   UNL     1      -5.228   9.233  63.775  1.00  0.00    -0.061 A  
BRANCH  22  26
HETATM   26  C   UNL     1      -8.721  10.436  64.318  1.00  0.00    -0.196 A  
HETATM   27  N   UNL     1      -8.950  11.434  65.154  1.00  0.00    -0.393 NA 
HETATM   28  H   UNL     1      -8.371  11.708  65.948  1.00  0.00     0.000 HD 
HETATM   29  N   UNL     1     -10.117  12.032  64.746  1.00  0.00    -0.265 NA 
HETATM   30  N   UNL     1     -10.625  11.409  63.694  1.00  0.00    -0.386 NA 
HETATM   31  N   UNL     1      -9.785  10.392  63.456  1.00  0.00    -0.309 NA 
ENDBRANCH  22  26
ENDBRANCH  16  20
ENDBRANCH  13  14
ENDBRANCH   9  13
BRANCH   8  32
HETATM   32  C   UNL     1     -12.221   7.655  71.346  1.00  0.00    -0.326 C  
HETATM   33  O   UNL     1     -13.365   7.415  71.696  1.00  0.00    -0.362 OA 
BRANCH  32  34
HETATM   34  O   UNL     1     -11.870   8.651  70.493  1.00  0.00    -0.174 OA 
BRANCH  34  35
HETATM   35  C   UNL     1     -11.323   9.789  71.176  1.00  0.00    -0.389 C  
HETATM   36  C   UNL     1     -10.098  10.209  70.361  1.00  0.00    -0.052 C  
BRANCH  35  37
HETATM   37  O   UNL     1     -12.190  10.924  71.148  1.00  0.00    -0.352 OA 
BRANCH  37  38
HETATM   38  C   UNL     1     -12.137  11.685  70.033  1.00  0.00    -0.319 C  
HETATM   39  O   UNL     1     -12.335  11.309  68.890  1.00  0.00    -0.485 OA 
BRANCH  38  40
HETATM   40  O   UNL     1     -11.850  12.937  70.434  1.00  0.00    -0.284 OA 
BRANCH  40  41
HETATM   41  C   UNL     1     -12.767  14.051  70.345  1.00  0.00    -0.253 C  
HETATM   42  C   UNL     1     -12.832  15.861  72.707  1.00  0.00    -0.572 C  
HETATM   43  C   UNL     1     -13.774  13.888  71.485  1.00  0.00    -0.323 C  
HETATM   44  C   UNL     1     -13.210  14.390  72.810  1.00  0.00    -0.611 C  
HETATM   45  C   UNL     1     -11.831  16.126  71.587  1.00  0.00    -0.557 C  
HETATM   46  C   UNL     1     -12.210  15.476  70.253  1.00  0.00    -0.432 C  
ENDBRANCH  40  41
ENDBRANCH  38  40
ENDBRANCH  37  38
ENDBRANCH  35  37
ENDBRANCH  34  35
ENDBRANCH  32  34
ENDBRANCH   8  32
ENDBRANCH   3   4
ENDBRANCH   2   3
TORSDOF 13
ENDMDL
MODEL      149
REMARK 921   NORMALIZED FREE ENERGY PREDICTED BY IDOCK:   -5.77 KCAL/MOL
REMARK 922        TOTAL FREE ENERGY PREDICTED BY IDOCK:  -12.60 KCAL/MOL
REMARK 923 INTER-LIGAND FREE ENERGY PREDICTED BY IDOCK:   -7.72 KCAL/MOL
REMARK 924 INTRA-LIGAND FREE ENERGY PREDICTED BY IDOCK:   -4.88 KCAL/MOL
REMARK 927      BINDING AFFINITY PREDICTED BY RF-SCORE:    0.00 PKD
ROOT
HETATM    1  C   UNL     1     -11.043   2.163  74.208  1.00  0.00    -0.105 C  
HETATM    2  C   UNL     1     -10.624   3.141  73.126  1.00  0.00    -0.167 C  
ENDROOT
BRANCH   2   3
HETATM    3  O   UNL     1     -10.988   4.456  73.560  1.00  0.00    -0.242 OA 
BRANCH   3   4
HETATM    4  C   UNL     1     -10.027   5.369  73.443  1.00  0.00    -0.173 A  
HETATM    5  N   UNL     1      -9.063   5.551  74.315  1.00  0.00    -0.121 NA 
HETATM    6  C   UNL     1      -8.320   6.576  73.808  1.00  0.00    -0.117 A  
HETATM    7  C   UNL     1      -8.790   7.002  72.550  1.00  0.00    -0.124 A  
HETATM    8  C   UNL     1      -8.064   7.978  71.824  1.00  0.00    -0.142 A  
HETATM    9  N   UNL     1      -9.964   6.272  72.404  1.00  0.00    -0.172 NA 
HETATM   10  C   UNL     1      -6.529   8.191  73.734  1.00  0.00    -0.131 A  
HETATM   11  C   UNL     1      -7.212   7.191  74.414  1.00  0.00    -0.111 A  
HETATM   12  C   UNL     1      -6.934   8.549  72.454  1.00  0.00    -0.081 A  
BRANCH   9  13
HETATM   13  C   UNL     1     -11.088   6.470  71.489  1.00  0.00    -0.265 C  
BRANCH  13  14
HETATM   14  C   UNL     1     -10.854   5.875  70.123  1.00  0.00    -0.402 A  
HETATM   15  C   UNL     1     -10.877   6.032  67.709  1.00  0.00    -0.380 A  
HETATM   16  C   UNL     1      -9.818   5.113  67.618  1.00  0.00    -0.197 A  
HETATM   17  C   UNL     1     -10.069   4.727  70.009  1.00  0.00    -0.308 A  
HETATM   18  C   UNL     1     -11.349   6.458  68.958  1.00  0.00    -0.332 A  
HETATM   19  C   UNL     1      -9.539   4.364  68.772  1.00  0.00    -0.224 A  
BRANCH  16  20
HETATM   20  C   UNL     1      -8.923   5.035  66.425  1.00  0.00    -0.123 A  
HETATM   21  C   UNL     1      -9.491   4.796  65.150  1.00  0.00    -0.114 A  
HETATM   22  C   UNL     1      -7.498   5.082  66.499  1.00  0.00    -0.087 A  
HETATM   23  C   UNL     1      -8.710   4.627  64.002  1.00  0.00    -0.141 A  
HETATM   24  C   UNL     1      -6.736   4.973  65.313  1.00  0.00    -0.048 A  
HETATM   25  C   UNL     1      -7.332   4.737  64.079  1.00  0.00    -0.058 A  
BRANCH  22  26
HETATM   26  C   UNL     1      -6.707   5.179  67.733  1.00  0.00    -0.055 A  
HETATM   27  N   UNL     1      -6.359   6.285  68.367  1.00  0.00    -0.045 NA 
HETATM   28  H   UNL     1      -6.597   7.240  68.100  1.00  0.00     0.000 HD 
HETATM   29  N   UNL     1      -5.616   5.901  69.456  1.00  0.00    -0.011 NA 
HETATM   30  N   UNL     1      -5.477   4.585  69.493  1.00  0.00    -0.008 NA 
HETATM   31  N   UNL     1      -6.113   4.140  68.401  1.00  0.00    -0.030 NA 
ENDBRANCH  22  26
ENDBRANCH  16  20
ENDBRANCH  13  14
ENDBRANCH   9  13
BRANCH   8  32
HETATM   32  C   UNL     1      -8.479   8.555  70.523  1.00  0.00    -0.137 C  
HETATM   33  O   UNL     1      -8.292   7.998  69.454  1.00  0.00    -0.127 OA 
BRANCH  32  34
HETATM   34  O   UNL     1      -9.275   9.641  70.697  1.00  0.00    -0.229 OA 
BRANCH  34  35
HETATM   35  C   UNL     1     -10.049   9.947  69.528  1.00  0.00    -0.221 C  
HETATM   36  C   UNL     1     -11.478  10.166  70.025  1.00  0.00    -0.344 C  
BRANCH  35  37
HETATM   37  O   UNL     1      -9.676  11.185  68.922  1.00  0.00    -0.198 OA 
BRANCH  37  38
HETATM   38  C   UNL     1      -8.899  11.096  67.820  1.00  0.00    -0.135 C  
HETATM   39  O   UNL     1      -7.708  10.840  67.792  1.00  0.00    -0.101 OA 
BRANCH  38  40
HETATM   40  O   UNL     1      -9.703  11.318  66.763  1.00  0.00    -0.189 OA 
BRANCH  40  41
HETATM   41  C   UNL     1     -10.294  10.275  65.955  1.00  0.00    -0.171 C  
HETATM   42  C   UNL     1      -8.527   9.107  63.864  1.00  0.00    -0.189 C  
HETATM   43  C   UNL     1     -10.281  10.775  64.508  1.00  0.00    -0.428 C  
HETATM   44  C   UNL     1      -8.916  10.579  63.858  1.00  0.00    -0.232 C  
HETATM   45  C   UNL     1      -8.518   8.514  65.270  1.00  0.00    -0.192 C  
HETATM   46  C   UNL     1      -9.773   8.840  66.085  1.00  0.00    -0.320 C  
ENDBRANCH  40  41
ENDBRANCH  38  40
ENDBRANCH  37  38
ENDBRANCH  35  37
ENDBRANCH  34  35
ENDBRANCH  32  34
ENDBRANCH   8  32
ENDBRANCH   3   4
ENDBRANCH   2   3
TORSDOF 13
ENDMDL
MODEL      150
REMARK 921   NORMALIZED FREE ENERGY PREDICTED BY IDOCK:   -5.76 KCAL/MOL
REMARK 922        TOTAL FREE ENERGY PREDICTED BY IDOCK:  -12.59 KCAL/MOL
REMARK 923 INTER-LIGAND FREE ENERGY PREDICTED BY IDOCK:  -10.03 KCAL/MOL
REMARK 924 INTRA-LIGAND FREE ENERGY PREDICTED BY IDOCK:   -2.56 KCAL/MOL
REMARK 927      BINDING AFFINITY PREDICTED BY RF-SCORE:    0.00 PKD
ROOT
HETATM    1  C   UNL     1     -13.497   9.447  72.060  1.00  0.00    -0.522 C  
HETATM    2  C   UNL     1     -12.919  10.675  71.378  1.00  0.00    -0.443 C  
ENDROOT
BRANCH   2   3
HETATM    3  O   UNL     1     -11.692  10.289  70.749  1.00  0.00    -0.307 OA 
BRANCH   3   4
HETATM    4  C   UNL     1     -11.380  10.985  69.659  1.00  0.00    -0.292 A  
HETATM    5  N   UNL     1     -12.240  11.671  68.943  1.00  0.00    -0.377 NA 
HETATM    6  C   UNL     1     -11.500  12.212  67.932  1.00  0.00    -0.328 A  
HETATM    7  C   UNL     1     -10.129  11.914  68.057  1.00  0.00    -0.195 A  
HETATM    8  C   UNL     1      -9.200  12.497  67.160  1.00  0.00    -0.205 A  
HETATM    9  N   UNL     1     -10.111  11.023  69.123  1.00  0.00    -0.185 NA 
HETATM   10  C   UNL     1     -11.082  13.503  65.936  1.00  0.00    -0.292 A  
HETATM   11  C   UNL     1     -11.981  12.978  66.856  1.00  0.00    -0.415 A  
HETATM   12  C   UNL     1      -9.720  13.289  66.110  1.00  0.00    -0.258 A  
BRANCH   9  13
HETATM   13  C   UNL     1      -9.066  10.096  69.558  1.00  0.00    -0.195 C  
BRANCH  13  14
HETATM   14  C   UNL     1      -9.112   8.771  68.841  1.00  0.00    -0.141 A  
HETATM   15  C   UNL     1      -8.056   6.727  68.089  1.00  0.00    -0.115 A  
HETATM   16  C   UNL     1      -9.284   6.047  68.145  1.00  0.00    -0.116 A  
HETATM   17  C   UNL     1     -10.352   8.197  68.555  1.00  0.00    -0.230 A  
HETATM   18  C   UNL     1      -7.961   8.064  68.496  1.00  0.00    -0.120 A  
HETATM   19  C   UNL     1     -10.437   6.843  68.232  1.00  0.00    -0.240 A  
BRANCH  16  20
HETATM   20  C   UNL     1      -9.375   4.562  68.268  1.00  0.00    -0.190 A  
HETATM   21  C   UNL     1      -9.401   3.975  69.557  1.00  0.00    -0.243 A  
HETATM   22  C   UNL     1      -9.331   3.670  67.154  1.00  0.00    -0.228 A  
HETATM   23  C   UNL     1      -9.401   2.590  69.751  1.00  0.00    -0.176 A  
HETATM   24  C   UNL     1      -9.397   2.275  67.376  1.00  0.00    -0.113 A  
HETATM   25  C   UNL     1      -9.421   1.738  68.659  1.00  0.00    -0.218 A  
BRANCH  22  26
HETATM   26  C   UNL     1      -9.160   4.062  65.749  1.00  0.00    -0.142 A  
HETATM   27  N   UNL     1      -8.079   4.587  65.198  1.00  0.00    -0.101 NA 
HETATM   28  H   UNL     1      -7.194   4.788  65.664  1.00  0.00     0.000 HD 
HETATM   29  N   UNL     1      -8.375   4.808  63.875  1.00  0.00    -0.119 NA 
HETATM   30  N   UNL     1      -9.622   4.454  63.605  1.00  0.00    -0.086 NA 
HETATM   31  N   UNL     1     -10.124   4.036  64.775  1.00  0.00    -0.212 NA 
ENDBRANCH  22  26
ENDBRANCH  16  20
ENDBRANCH  13  14
ENDBRANCH   9  13
BRANCH   8  32
HETATM   32  C   UNL     1      -7.744  12.220  67.144  1.00  0.00    -0.134 C  
HETATM   33  O   UNL     1      -7.275  11.121  66.897  1.00  0.00    -0.122 OA 
BRANCH  32  34
HETATM   34  O   UNL     1      -7.023  13.368  67.208  1.00  0.00    -0.132 OA 
BRANCH  34  35
HETATM   35  C   UNL     1      -6.947  13.894  68.542  1.00  0.00    -0.101 C  
HETATM   36  C   UNL     1      -6.334  12.778  69.390  1.00  0.00    -0.110 C  
BRANCH  35  37
HETATM   37  O   UNL     1      -6.036  14.988  68.657  1.00  0.00    -0.083 OA 
BRANCH  37  38
HETATM   38  C   UNL     1      -6.541  16.128  69.177  1.00  0.00    -0.176 C  
HETATM   39  O   UNL     1      -6.018  16.831  70.024  1.00  0.00    -0.224 OA 
BRANCH  38  40
HETATM   40  O   UNL     1      -7.717  16.345  68.559  1.00  0.00    -0.174 OA 
BRANCH  40  41
HETATM   41  C   UNL     1      -7.931  17.359  67.550  1.00  0.00    -0.195 C  
HETATM   42  C   UNL     1     -10.684  18.482  67.414  1.00  0.00    -0.424 C  
HETATM   43  C   UNL     1      -9.000  16.817  66.598  1.00  0.00    -0.278 C  
HETATM   44  C   UNL     1     -10.404  17.007  67.163  1.00  0.00    -0.305 C  
HETATM   45  C   UNL     1      -9.662  19.116  68.353  1.00  0.00    -0.451 C  
HETATM   46  C   UNL     1      -8.209  18.803  67.984  1.00  0.00    -0.317 C  
ENDBRANCH  40  41
ENDBRANCH  38  40
ENDBRANCH  37  38
ENDBRANCH  35  37
ENDBRANCH  34  35
ENDBRANCH  32  34
ENDBRANCH   8  32
ENDBRANCH   3   4
ENDBRANCH   2   3
TORSDOF 13
ENDMDL
MODEL      151
REMARK 921   NORMALIZED FREE ENERGY PREDICTED BY IDOCK:   -5.71 KCAL/MOL
REMARK 922        TOTAL FREE ENERGY PREDICTED BY IDOCK:  -12.50 KCAL/MOL
REMARK 923 INTER-LIGAND FREE ENERGY PREDICTED BY IDOCK:   -9.68 KCAL/MOL
REMARK 924 INTRA-LIGAND FREE ENERGY PREDICTED BY IDOCK:   -2.81 KCAL/MOL
REMARK 927      BINDING AFFINITY PREDICTED BY RF-SCORE:    0.00 PKD
ROOT
HETATM    1  C   UNL     1     -13.483   9.459  72.200  1.00  0.00    -0.543 C  
HETATM    2  C   UNL     1     -12.948  10.662  71.443  1.00  0.00    -0.443 C  
ENDROOT
BRANCH   2   3
HETATM    3  O   UNL     1     -11.714  10.278  70.828  1.00  0.00    -0.307 OA 
BRANCH   3   4
HETATM    4  C   UNL     1     -11.412  10.946  69.718  1.00  0.00    -0.313 A  
HETATM    5  N   UNL     1     -12.285  11.578  68.968  1.00  0.00    -0.387 NA 
HETATM    6  C   UNL     1     -11.552  12.108  67.947  1.00  0.00    -0.347 A  
HETATM    7  C   UNL     1     -10.173  11.861  68.098  1.00  0.00    -0.199 A  
HETATM    8  C   UNL     1      -9.253  12.444  67.191  1.00  0.00    -0.199 A  
HETATM    9  N   UNL     1     -10.138  11.009  69.195  1.00  0.00    -0.185 NA 
HETATM   10  C   UNL     1     -11.153  13.342  65.913  1.00  0.00    -0.293 A  
HETATM   11  C   UNL     1     -12.044  12.819  66.840  1.00  0.00    -0.267 A  
HETATM   12  C   UNL     1      -9.786  13.181  66.108  1.00  0.00    -0.284 A  
BRANCH   9  13
HETATM   13  C   UNL     1      -9.068  10.133  69.673  1.00  0.00    -0.174 C  
BRANCH  13  14
HETATM   14  C   UNL     1      -8.927   8.870  68.862  1.00  0.00    -0.137 A  
HETATM   15  C   UNL     1      -7.711   6.872  68.241  1.00  0.00    -0.113 A  
HETATM   16  C   UNL     1      -8.912   6.214  67.925  1.00  0.00    -0.112 A  
HETATM   17  C   UNL     1     -10.051   8.346  68.222  1.00  0.00    -0.232 A  
HETATM   18  C   UNL     1      -7.725   8.171  68.768  1.00  0.00    -0.107 A  
HETATM   19  C   UNL     1     -10.049   7.025  67.778  1.00  0.00    -0.205 A  
BRANCH  16  20
HETATM   20  C   UNL     1      -9.030   4.726  67.898  1.00  0.00    -0.124 A  
HETATM   21  C   UNL     1      -8.975   4.051  66.655  1.00  0.00    -0.134 A  
HETATM   22  C   UNL     1      -9.303   3.932  69.053  1.00  0.00    -0.237 A  
HETATM   23  C   UNL     1      -9.161   2.669  66.544  1.00  0.00    -0.131 A  
HETATM   24  C   UNL     1      -9.422   2.530  68.921  1.00  0.00    -0.165 A  
HETATM   25  C   UNL     1      -9.363   1.904  67.680  1.00  0.00    -0.149 A  
BRANCH  22  26
HETATM   26  C   UNL     1      -9.538   4.445  70.409  1.00  0.00    -0.196 A  
HETATM   27  N   UNL     1     -10.569   5.165  70.817  1.00  0.00    -0.188 NA 
HETATM   28  H   UNL     1     -11.364   5.464  70.252  1.00  0.00     0.000 HD 
HETATM   29  N   UNL     1     -10.364   5.432  72.149  1.00  0.00    -0.206 NA 
HETATM   30  N   UNL     1      -9.219   4.914  72.564  1.00  0.00    -0.131 NA 
HETATM   31  N   UNL     1      -8.683   4.342  71.476  1.00  0.00    -0.115 NA 
ENDBRANCH  22  26
ENDBRANCH  16  20
ENDBRANCH  13  14
ENDBRANCH   9  13
BRANCH   8  32
HETATM   32  C   UNL     1      -7.789  12.216  67.201  1.00  0.00    -0.160 C  
HETATM   33  O   UNL     1      -7.276  11.150  66.903  1.00  0.00    -0.122 OA 
BRANCH  32  34
HETATM   34  O   UNL     1      -7.110  13.381  67.355  1.00  0.00    -0.164 OA 
BRANCH  34  35
HETATM   35  C   UNL     1      -7.064  13.813  68.724  1.00  0.00    -0.106 C  
HETATM   36  C   UNL     1      -6.589  12.598  69.523  1.00  0.00    -0.032 C  
BRANCH  35  37
HETATM   37  O   UNL     1      -6.077  14.817  68.958  1.00  0.00    -0.090 OA 
BRANCH  37  38
HETATM   38  C   UNL     1      -6.534  16.000  69.427  1.00  0.00    -0.176 C  
HETATM   39  O   UNL     1      -5.970  16.727  70.226  1.00  0.00    -0.193 OA 
BRANCH  38  40
HETATM   40  O   UNL     1      -7.714  16.225  68.821  1.00  0.00    -0.176 OA 
BRANCH  40  41
HETATM   41  C   UNL     1      -7.957  17.300  67.884  1.00  0.00    -0.205 C  
HETATM   42  C   UNL     1     -10.800  18.125  67.577  1.00  0.00    -0.264 C  
HETATM   43  C   UNL     1      -8.868  16.737  66.791  1.00  0.00    -0.257 C  
HETATM   44  C   UNL     1     -10.329  16.720  67.231  1.00  0.00    -0.304 C  
HETATM   45  C   UNL     1      -9.944  18.775  68.659  1.00  0.00    -0.444 C  
HETATM   46  C   UNL     1      -8.437  18.657  68.408  1.00  0.00    -0.366 C  
ENDBRANCH  40  41
ENDBRANCH  38  40
ENDBRANCH  37  38
ENDBRANCH  35  37
ENDBRANCH  34  35
ENDBRANCH  32  34
ENDBRANCH   8  32
ENDBRANCH   3   4
ENDBRANCH   2   3
TORSDOF 13
ENDMDL
MODEL      152
REMARK 921   NORMALIZED FREE ENERGY PREDICTED BY IDOCK:   -5.70 KCAL/MOL
REMARK 922        TOTAL FREE ENERGY PREDICTED BY IDOCK:  -12.48 KCAL/MOL
REMARK 923 INTER-LIGAND FREE ENERGY PREDICTED BY IDOCK:  -10.36 KCAL/MOL
REMARK 924 INTRA-LIGAND FREE ENERGY PREDICTED BY IDOCK:   -2.11 KCAL/MOL
REMARK 927      BINDING AFFINITY PREDICTED BY RF-SCORE:    0.00 PKD
ROOT
HETATM    1  C   UNL     1      -9.452  17.584  68.269  1.00  0.00    -0.296 C  
HETATM    2  C   UNL     1      -8.609  16.579  67.503  1.00  0.00    -0.177 C  
ENDROOT
BRANCH   2   3
HETATM    3  O   UNL     1      -9.081  15.269  67.834  1.00  0.00    -0.173 OA 
BRANCH   3   4
HETATM    4  C   UNL     1      -9.734  14.647  66.856  1.00  0.00    -0.242 A  
HETATM    5  N   UNL     1     -10.714  15.176  66.162  1.00  0.00    -0.318 NA 
HETATM    6  C   UNL     1     -11.089  14.201  65.284  1.00  0.00    -0.331 A  
HETATM    7  C   UNL     1     -10.276  13.054  65.385  1.00  0.00    -0.288 A  
HETATM    8  C   UNL     1     -10.448  11.990  64.465  1.00  0.00    -0.341 A  
HETATM    9  N   UNL     1      -9.486  13.341  66.491  1.00  0.00    -0.259 NA 
HETATM   10  C   UNL     1     -12.366  13.193  63.503  1.00  0.00    -0.478 A  
HETATM   11  C   UNL     1     -12.153  14.258  64.368  1.00  0.00    -0.490 A  
HETATM   12  C   UNL     1     -11.508  12.100  63.536  1.00  0.00    -0.544 A  
BRANCH   9  13
HETATM   13  C   UNL     1      -8.668  12.455  67.320  1.00  0.00    -0.191 C  
BRANCH  13  14
HETATM   14  C   UNL     1      -9.431  11.842  68.466  1.00  0.00    -0.165 A  
HETATM   15  C   UNL     1     -11.501  11.378  69.631  1.00  0.00    -0.380 A  
HETATM   16  C   UNL     1     -10.967  10.186  70.149  1.00  0.00    -0.376 A  
HETATM   17  C   UNL     1      -8.808  10.871  69.253  1.00  0.00     0.020 A  
HETATM   18  C   UNL     1     -10.758  12.167  68.743  1.00  0.00    -0.252 A  
HETATM   19  C   UNL     1      -9.573  10.038  70.069  1.00  0.00    -0.205 A  
BRANCH  16  20
HETATM   20  C   UNL     1     -11.826   9.058  70.618  1.00  0.00    -0.193 A  
HETATM   21  C   UNL     1     -13.158   9.325  71.018  1.00  0.00    -0.164 A  
HETATM   22  C   UNL     1     -11.354   7.722  70.793  1.00  0.00    -0.291 A  
HETATM   23  C   UNL     1     -13.994   8.336  71.546  1.00  0.00    -0.412 A  
HETATM   24  C   UNL     1     -12.240   6.728  71.268  1.00  0.00    -0.415 A  
HETATM   25  C   UNL     1     -13.542   7.031  71.651  1.00  0.00    -0.346 A  
BRANCH  22  26
HETATM   26  C   UNL     1      -9.975   7.266  70.576  1.00  0.00    -0.190 A  
HETATM   27  N   UNL     1      -9.477   6.745  69.468  1.00  0.00    -0.149 NA 
HETATM   28  H   UNL     1      -9.974   6.591  68.591  1.00  0.00     0.000 HD 
HETATM   29  N   UNL     1      -8.160   6.452  69.724  1.00  0.00    -0.119 NA 
HETATM   30  N   UNL     1      -7.843   6.757  70.973  1.00  0.00    -0.100 NA 
HETATM   31  N   UNL     1      -8.978   7.218  71.515  1.00  0.00    -0.130 NA 
ENDBRANCH  22  26
ENDBRANCH  16  20
ENDBRANCH  13  14
ENDBRANCH   9  13
BRANCH   8  32
HETATM   32  C   UNL     1      -9.704  10.709  64.497  1.00  0.00    -0.309 C  
HETATM   33  O   UNL     1      -8.539  10.604  64.153  1.00  0.00    -0.169 OA 
BRANCH  32  34
HETATM   34  O   UNL     1     -10.402   9.750  65.157  1.00  0.00    -0.057 OA 
BRANCH  34  35
HETATM   35  C   UNL     1      -9.565   8.946  66.003  1.00  0.00    -0.250 C  
HETATM   36  C   UNL     1     -10.522   8.103  66.847  1.00  0.00    -0.379 C  
BRANCH  35  37
HETATM   37  O   UNL     1      -8.784   7.999  65.274  1.00  0.00    -0.130 OA 
BRANCH  37  38
HETATM   38  C   UNL     1      -7.803   7.380  65.967  1.00  0.00    -0.102 C  
HETATM   39  O   UNL     1      -7.073   7.890  66.799  1.00  0.00    -0.074 OA 
BRANCH  38  40
HETATM   40  O   UNL     1      -7.812   6.091  65.579  1.00  0.00    -0.095 OA 
BRANCH  40  41
HETATM   41  C   UNL     1      -8.277   4.996  66.402  1.00  0.00    -0.108 C  
HETATM   42  C   UNL     1      -9.324   2.631  64.929  1.00  0.00    -0.127 C  
HETATM   43  C   UNL     1      -9.763   4.808  66.089  1.00  0.00    -0.205 C  
HETATM   44  C   UNL     1      -9.970   4.004  64.809  1.00  0.00    -0.210 C  
HETATM   45  C   UNL     1      -7.834   2.716  65.248  1.00  0.00    -0.078 C  
HETATM   46  C   UNL     1      -7.503   3.673  66.397  1.00  0.00    -0.077 C  
ENDBRANCH  40  41
ENDBRANCH  38  40
ENDBRANCH  37  38
ENDBRANCH  35  37
ENDBRANCH  34  35
ENDBRANCH  32  34
ENDBRANCH   8  32
ENDBRANCH   3   4
ENDBRANCH   2   3
TORSDOF 13
ENDMDL
MODEL      153
REMARK 921   NORMALIZED FREE ENERGY PREDICTED BY IDOCK:   -5.69 KCAL/MOL
REMARK 922        TOTAL FREE ENERGY PREDICTED BY IDOCK:  -12.46 KCAL/MOL
REMARK 923 INTER-LIGAND FREE ENERGY PREDICTED BY IDOCK:   -9.92 KCAL/MOL
REMARK 924 INTRA-LIGAND FREE ENERGY PREDICTED BY IDOCK:   -2.54 KCAL/MOL
REMARK 927      BINDING AFFINITY PREDICTED BY RF-SCORE:    0.00 PKD
ROOT
HETATM    1  C   UNL     1     -12.322  14.392  70.103  1.00  0.00    -0.406 C  
HETATM    2  C   UNL     1     -12.526  13.241  71.072  1.00  0.00    -0.336 C  
ENDROOT
BRANCH   2   3
HETATM    3  O   UNL     1     -11.726  12.143  70.623  1.00  0.00    -0.127 OA 
BRANCH   3   4
HETATM    4  C   UNL     1     -12.193  10.941  70.949  1.00  0.00    -0.381 A  
HETATM    5  N   UNL     1     -13.239  10.731  71.713  1.00  0.00    -0.442 NA 
HETATM    6  C   UNL     1     -13.354   9.373  71.786  1.00  0.00    -0.415 A  
HETATM    7  C   UNL     1     -12.395   8.715  70.990  1.00  0.00    -0.143 A  
HETATM    8  C   UNL     1     -12.446   7.305  70.853  1.00  0.00    -0.266 A  
HETATM    9  N   UNL     1     -11.593   9.763  70.557  1.00  0.00    -0.281 NA 
HETATM   10  C   UNL     1     -14.301   7.261  72.468  1.00  0.00     0.151 A  
HETATM   11  C   UNL     1     -14.284   8.648  72.549  1.00  0.00    -0.371 A  
HETATM   12  C   UNL     1     -13.419   6.614  71.612  1.00  0.00    -0.049 A  
BRANCH   9  13
HETATM   13  C   UNL     1     -10.252   9.743  69.971  1.00  0.00    -0.263 C  
BRANCH  13  14
HETATM   14  C   UNL     1     -10.140  10.567  68.713  1.00  0.00    -0.202 A  
HETATM   15  C   UNL     1     -11.058  11.401  66.635  1.00  0.00    -0.333 A  
HETATM   16  C   UNL     1     -10.285  12.570  66.739  1.00  0.00    -0.243 A  
HETATM   17  C   UNL     1      -9.140  11.536  68.624  1.00  0.00    -0.124 A  
HETATM   18  C   UNL     1     -11.032  10.435  67.650  1.00  0.00    -0.374 A  
HETATM   19  C   UNL     1      -9.225  12.540  67.659  1.00  0.00    -0.190 A  
BRANCH  16  20
HETATM   20  C   UNL     1     -10.648  13.838  66.038  1.00  0.00    -0.290 A  
HETATM   21  C   UNL     1     -11.654  13.812  65.042  1.00  0.00    -0.350 A  
HETATM   22  C   UNL     1      -9.965  15.076  66.235  1.00  0.00    -0.300 A  
HETATM   23  C   UNL     1     -11.989  14.940  64.286  1.00  0.00    -0.355 A  
HETATM   24  C   UNL     1     -10.368  16.217  65.503  1.00  0.00    -0.391 A  
HETATM   25  C   UNL     1     -11.361  16.150  64.531  1.00  0.00    -0.273 A  
BRANCH  22  26
HETATM   26  C   UNL     1      -8.805  15.284  67.111  1.00  0.00    -0.212 A  
HETATM   27  N   UNL     1      -7.532  15.120  66.794  1.00  0.00    -0.285 NA 
HETATM   28  H   UNL     1      -7.162  14.834  65.888  1.00  0.00     0.000 HD 
HETATM   29  N   UNL     1      -6.802  15.410  67.921  1.00  0.00    -0.134 NA 
HETATM   30  N   UNL     1      -7.598  15.725  68.931  1.00  0.00    -0.167 NA 
HETATM   31  N   UNL     1      -8.840  15.602  68.444  1.00  0.00    -0.179 NA 
ENDBRANCH  22  26
ENDBRANCH  16  20
ENDBRANCH  13  14
ENDBRANCH   9  13
BRANCH   8  32
HETATM   32  C   UNL     1     -11.466   6.488  70.099  1.00  0.00    -0.415 C  
HETATM   33  O   UNL     1     -11.373   6.510  68.883  1.00  0.00    -0.289 OA 
BRANCH  32  34
HETATM   34  O   UNL     1     -10.564   5.907  70.931  1.00  0.00    -0.230 OA 
BRANCH  34  35
HETATM   35  C   UNL     1      -9.210   6.237  70.587  1.00  0.00    -0.158 C  
HETATM   36  C   UNL     1      -8.534   6.624  71.903  1.00  0.00    -0.114 C  
BRANCH  35  37
HETATM   37  O   UNL     1      -8.469   5.114  70.108  1.00  0.00    -0.097 OA 
BRANCH  37  38
HETATM   38  C   UNL     1      -8.436   4.953  68.767  1.00  0.00    -0.086 C  
HETATM   39  O   UNL     1      -8.641   3.919  68.157  1.00  0.00    -0.091 OA 
BRANCH  38  40
HETATM   40  O   UNL     1      -8.161   6.162  68.241  1.00  0.00    -0.109 OA 
BRANCH  40  41
HETATM   41  C   UNL     1      -7.530   6.366  66.956  1.00  0.00    -0.084 C  
HETATM   42  C   UNL     1      -8.189   8.925  65.587  1.00  0.00    -0.126 C  
HETATM   43  C   UNL     1      -8.654   6.487  65.925  1.00  0.00    -0.153 C  
HETATM   44  C   UNL     1      -9.256   7.888  65.911  1.00  0.00    -0.102 C  
HETATM   45  C   UNL     1      -7.017   8.877  66.562  1.00  0.00    -0.080 C  
HETATM   46  C   UNL     1      -6.473   7.466  66.805  1.00  0.00    -0.052 C  
ENDBRANCH  40  41
ENDBRANCH  38  40
ENDBRANCH  37  38
ENDBRANCH  35  37
ENDBRANCH  34  35
ENDBRANCH  32  34
ENDBRANCH   8  32
ENDBRANCH   3   4
ENDBRANCH   2   3
TORSDOF 13
ENDMDL
MODEL      154
REMARK 921   NORMALIZED FREE ENERGY PREDICTED BY IDOCK:   -5.67 KCAL/MOL
REMARK 922        TOTAL FREE ENERGY PREDICTED BY IDOCK:  -12.44 KCAL/MOL
REMARK 923 INTER-LIGAND FREE ENERGY PREDICTED BY IDOCK:  -10.33 KCAL/MOL
REMARK 924 INTRA-LIGAND FREE ENERGY PREDICTED BY IDOCK:   -2.10 KCAL/MOL
REMARK 927      BINDING AFFINITY PREDICTED BY RF-SCORE:    0.00 PKD
ROOT
HETATM    1  C   UNL     1     -13.009  14.912  73.314  1.00  0.00    -0.635 C  
HETATM    2  C   UNL     1     -12.571  15.622  72.045  1.00  0.00    -0.430 C  
ENDROOT
BRANCH   2   3
HETATM    3  O   UNL     1     -12.285  14.623  71.061  1.00  0.00    -0.292 OA 
BRANCH   3   4
HETATM    4  C   UNL     1     -11.237  14.887  70.285  1.00  0.00    -0.231 A  
HETATM    5  N   UNL     1     -10.418  15.898  70.459  1.00  0.00    -0.100 NA 
HETATM    6  C   UNL     1      -9.508  15.791  69.448  1.00  0.00    -0.275 A  
HETATM    7  C   UNL     1      -9.722  14.642  68.660  1.00  0.00    -0.220 A  
HETATM    8  C   UNL     1      -8.797  14.311  67.639  1.00  0.00    -0.196 A  
HETATM    9  N   UNL     1     -10.918  14.149  69.166  1.00  0.00    -0.257 NA 
HETATM   10  C   UNL     1      -7.587  16.398  68.121  1.00  0.00    -0.157 A  
HETATM   11  C   UNL     1      -8.463  16.684  69.160  1.00  0.00    -0.115 A  
HETATM   12  C   UNL     1      -7.739  15.219  67.401  1.00  0.00    -0.225 A  
BRANCH   9  13
HETATM   13  C   UNL     1     -11.852  13.178  68.595  1.00  0.00    -0.328 C  
BRANCH  13  14
HETATM   14  C   UNL     1     -11.296  11.777  68.546  1.00  0.00    -0.328 A  
HETATM   15  C   UNL     1     -10.965   9.664  67.414  1.00  0.00    -0.139 A  
HETATM   16  C   UNL     1      -9.750   9.467  68.093  1.00  0.00    -0.164 A  
HETATM   17  C   UNL     1     -10.300  11.410  69.453  1.00  0.00     0.022 A  
HETATM   18  C   UNL     1     -11.701  10.843  67.594  1.00  0.00    -0.009 A  
HETATM   19  C   UNL     1      -9.522  10.278  69.215  1.00  0.00    -0.230 A  
BRANCH  16  20
HETATM   20  C   UNL     1      -8.679   8.564  67.575  1.00  0.00    -0.135 A  
HETATM   21  C   UNL     1      -8.008   7.701  68.476  1.00  0.00    -0.123 A  
HETATM   22  C   UNL     1      -8.204   8.587  66.229  1.00  0.00    -0.109 A  
HETATM   23  C   UNL     1      -6.940   6.890  68.081  1.00  0.00    -0.080 A  
HETATM   24  C   UNL     1      -7.166   7.710  65.841  1.00  0.00    -0.069 A  
HETATM   25  C   UNL     1      -6.532   6.877  66.758  1.00  0.00    -0.047 A  
BRANCH  22  26
HETATM   26  C   UNL     1      -8.662   9.503  65.176  1.00  0.00    -0.172 A  
HETATM   27  N   UNL     1      -7.941  10.419  64.552  1.00  0.00    -0.280 NA 
HETATM   28  H   UNL     1      -6.952  10.621  64.703  1.00  0.00     0.000 HD 
HETATM   29  N   UNL     1      -8.778  11.047  63.663  1.00  0.00    -0.021 NA 
HETATM   30  N   UNL     1     -10.005  10.555  63.742  1.00  0.00    -0.309 NA 
HETATM   31  N   UNL     1      -9.945   9.631  64.711  1.00  0.00     0.042 NA 
ENDBRANCH  22  26
ENDBRANCH  16  20
ENDBRANCH  13  14
ENDBRANCH   9  13
BRANCH   8  32
HETATM   32  C   UNL     1      -8.935  13.171  66.702  1.00  0.00    -0.125 C  
HETATM   33  O   UNL     1      -8.136  12.252  66.645  1.00  0.00    -0.079 OA 
BRANCH  32  34
HETATM   34  O   UNL     1     -10.153  13.171  66.102  1.00  0.00    -0.280 OA 
BRANCH  34  35
HETATM   35  C   UNL     1     -10.315  14.268  65.191  1.00  0.00    -0.415 C  
HETATM   36  C   UNL     1     -11.290  13.774  64.121  1.00  0.00    -0.277 C  
BRANCH  35  37
HETATM   37  O   UNL     1     -10.961  15.394  65.786  1.00  0.00    -0.330 OA 
BRANCH  37  38
HETATM   38  C   UNL     1     -10.829  16.569  65.130  1.00  0.00    -0.233 C  
HETATM   39  O   UNL     1     -11.303  16.846  64.042  1.00  0.00    -1.109 OA 
BRANCH  38  40
HETATM   40  O   UNL     1     -10.099  17.374  65.924  1.00  0.00    -0.500 OA 
BRANCH  40  41
HETATM   41  C   UNL     1     -10.089  18.817  65.832  1.00  0.00    -0.188 C  
HETATM   42  C   UNL     1      -9.157  20.258  68.264  1.00  0.00    -0.074 C  
HETATM   43  C   UNL     1     -11.049  19.335  66.906  1.00  0.00    -0.204 C  
HETATM   44  C   UNL     1     -10.390  19.365  68.281  1.00  0.00    -0.500 C  
HETATM   45  C   UNL     1      -8.139  19.821  67.215  1.00  0.00    -0.327 C  
HETATM   46  C   UNL     1      -8.749  19.560  65.834  1.00  0.00    -0.080 C  
ENDBRANCH  40  41
ENDBRANCH  38  40
ENDBRANCH  37  38
ENDBRANCH  35  37
ENDBRANCH  34  35
ENDBRANCH  32  34
ENDBRANCH   8  32
ENDBRANCH   3   4
ENDBRANCH   2   3
TORSDOF 13
ENDMDL
MODEL      155
REMARK 921   NORMALIZED FREE ENERGY PREDICTED BY IDOCK:   -5.67 KCAL/MOL
REMARK 922        TOTAL FREE ENERGY PREDICTED BY IDOCK:  -12.44 KCAL/MOL
REMARK 923 INTER-LIGAND FREE ENERGY PREDICTED BY IDOCK:  -10.38 KCAL/MOL
REMARK 924 INTRA-LIGAND FREE ENERGY PREDICTED BY IDOCK:   -2.06 KCAL/MOL
REMARK 927      BINDING AFFINITY PREDICTED BY RF-SCORE:    0.00 PKD
ROOT
HETATM    1  C   UNL     1      -6.886   5.807  71.540  1.00  0.00    -0.067 C  
HETATM    2  C   UNL     1      -7.820   6.315  70.456  1.00  0.00    -0.106 C  
ENDROOT
BRANCH   2   3
HETATM    3  O   UNL     1      -7.812   7.745  70.506  1.00  0.00    -0.093 OA 
BRANCH   3   4
HETATM    4  C   UNL     1      -9.001   8.304  70.717  1.00  0.00    -0.149 A  
HETATM    5  N   UNL     1      -9.811   7.984  71.699  1.00  0.00    -0.163 NA 
HETATM    6  C   UNL     1     -10.901   8.787  71.531  1.00  0.00    -0.304 A  
HETATM    7  C   UNL     1     -10.741   9.683  70.455  1.00  0.00    -0.311 A  
HETATM    8  C   UNL     1     -11.727  10.671  70.214  1.00  0.00    -0.433 A  
HETATM    9  N   UNL     1      -9.547   9.258  69.885  1.00  0.00    -0.186 NA 
HETATM   10  C   UNL     1     -13.080   9.699  72.024  1.00  0.00    -0.537 A  
HETATM   11  C   UNL     1     -12.081   8.772  72.294  1.00  0.00    -0.423 A  
HETATM   12  C   UNL     1     -12.886  10.645  71.024  1.00  0.00    -0.496 A  
BRANCH   9  13
HETATM   13  C   UNL     1      -8.979   9.544  68.568  1.00  0.00    -0.128 C  
BRANCH  13  14
HETATM   14  C   UNL     1      -8.805   8.312  67.716  1.00  0.00    -0.137 A  
HETATM   15  C   UNL     1      -7.406   6.723  66.544  1.00  0.00    -0.074 A  
HETATM   16  C   UNL     1      -8.358   5.708  66.740  1.00  0.00    -0.108 A  
HETATM   17  C   UNL     1      -9.869   7.417  67.592  1.00  0.00    -0.194 A  
HETATM   18  C   UNL     1      -7.601   8.000  67.086  1.00  0.00    -0.097 A  
HETATM   19  C   UNL     1      -9.641   6.122  67.129  1.00  0.00    -0.139 A  
BRANCH  16  20
HETATM   20  C   UNL     1      -8.006   4.258  66.697  1.00  0.00    -0.098 A  
HETATM   21  C   UNL     1      -7.215   3.708  67.735  1.00  0.00    -0.059 A  
HETATM   22  C   UNL     1      -8.330   3.395  65.607  1.00  0.00    -0.102 A  
HETATM   23  C   UNL     1      -6.776   2.380  67.720  1.00  0.00    -0.039 A  
HETATM   24  C   UNL     1      -7.930   2.040  65.648  1.00  0.00    -0.074 A  
HETATM   25  C   UNL     1      -7.152   1.538  66.687  1.00  0.00    -0.046 A  
BRANCH  22  26
HETATM   26  C   UNL     1      -9.016   3.797  64.371  1.00  0.00    -0.124 A  
HETATM   27  N   UNL     1      -8.482   4.419  63.334  1.00  0.00    -0.103 NA 
HETATM   28  H   UNL     1      -7.509   4.704  63.231  1.00  0.00     0.000 HD 
HETATM   29  N   UNL     1      -9.491   4.606  62.422  1.00  0.00    -0.112 NA 
HETATM   30  N   UNL     1     -10.639   4.136  62.884  1.00  0.00    -0.112 NA 
HETATM   31  N   UNL     1     -10.356   3.676  64.110  1.00  0.00    -0.238 NA 
ENDBRANCH  22  26
ENDBRANCH  16  20
ENDBRANCH  13  14
ENDBRANCH   9  13
BRANCH   8  32
HETATM   32  C   UNL     1     -11.711  11.631  69.084  1.00  0.00    -0.326 C  
HETATM   33  O   UNL     1     -12.382  11.488  68.076  1.00  0.00    -0.445 OA 
BRANCH  32  34
HETATM   34  O   UNL     1     -11.049  12.769  69.414  1.00  0.00    -0.179 OA 
BRANCH  34  35
HETATM   35  C   UNL     1     -11.910  13.917  69.444  1.00  0.00    -0.334 C  
HETATM   36  C   UNL     1     -12.545  13.919  70.836  1.00  0.00    -0.431 C  
BRANCH  35  37
HETATM   37  O   UNL     1     -11.196  15.151  69.363  1.00  0.00    -0.251 OA 
BRANCH  37  38
HETATM   38  C   UNL     1     -11.084  15.690  68.129  1.00  0.00    -0.330 C  
HETATM   39  O   UNL     1     -10.895  16.865  67.867  1.00  0.00    -0.354 OA 
BRANCH  38  40
HETATM   40  O   UNL     1     -11.193  14.674  67.253  1.00  0.00    -0.313 OA 
BRANCH  40  41
HETATM   41  C   UNL     1     -10.591  14.663  65.938  1.00  0.00    -0.311 C  
HETATM   42  C   UNL     1     -11.667  12.637  64.042  1.00  0.00    -0.496 C  
HETATM   43  C   UNL     1      -9.956  13.283  65.753  1.00  0.00    -0.261 C  
HETATM   44  C   UNL     1     -10.990  12.239  65.346  1.00  0.00    -0.341 C  
HETATM   45  C   UNL     1     -12.328  14.010  64.127  1.00  0.00    -0.374 C  
HETATM   46  C   UNL     1     -11.426  15.093  64.727  1.00  0.00    -0.383 C  
ENDBRANCH  40  41
ENDBRANCH  38  40
ENDBRANCH  37  38
ENDBRANCH  35  37
ENDBRANCH  34  35
ENDBRANCH  32  34
ENDBRANCH   8  32
ENDBRANCH   3   4
ENDBRANCH   2   3
TORSDOF 13
ENDMDL
MODEL      156
REMARK 921   NORMALIZED FREE ENERGY PREDICTED BY IDOCK:   -5.67 KCAL/MOL
REMARK 922        TOTAL FREE ENERGY PREDICTED BY IDOCK:  -12.42 KCAL/MOL
REMARK 923 INTER-LIGAND FREE ENERGY PREDICTED BY IDOCK:   -8.90 KCAL/MOL
REMARK 924 INTRA-LIGAND FREE ENERGY PREDICTED BY IDOCK:   -3.53 KCAL/MOL
REMARK 927      BINDING AFFINITY PREDICTED BY RF-SCORE:    0.00 PKD
ROOT
HETATM    1  C   UNL     1     -10.256  13.607  66.469  1.00  0.00    -0.284 C  
HETATM    2  C   UNL     1     -11.108  12.550  65.789  1.00  0.00    -0.308 C  
ENDROOT
BRANCH   2   3
HETATM    3  O   UNL     1     -10.688  11.271  66.275  1.00  0.00    -0.262 OA 
BRANCH   3   4
HETATM    4  C   UNL     1     -11.032  11.012  67.534  1.00  0.00    -0.281 A  
HETATM    5  N   UNL     1     -12.126  11.449  68.113  1.00  0.00    -0.617 NA 
HETATM    6  C   UNL     1     -12.071  10.957  69.384  1.00  0.00    -0.290 A  
HETATM    7  C   UNL     1     -10.947  10.132  69.587  1.00  0.00    -0.264 A  
HETATM    8  C   UNL     1     -10.798   9.441  70.815  1.00  0.00    -0.372 A  
HETATM    9  N   UNL     1     -10.241  10.287  68.401  1.00  0.00    -0.160 NA 
HETATM   10  C   UNL     1     -12.812  10.580  71.649  1.00  0.00    -0.581 A  
HETATM   11  C   UNL     1     -12.984  11.207  70.422  1.00  0.00    -0.063 A  
HETATM   12  C   UNL     1     -11.756   9.693  71.824  1.00  0.00    -0.356 A  
BRANCH   9  13
HETATM   13  C   UNL     1      -8.848   9.969  68.085  1.00  0.00    -0.122 C  
BRANCH  13  14
HETATM   14  C   UNL     1      -8.673   8.592  67.495  1.00  0.00    -0.135 A  
HETATM   15  C   UNL     1      -7.417   6.541  67.232  1.00  0.00    -0.088 A  
HETATM   16  C   UNL     1      -8.601   5.819  67.008  1.00  0.00    -0.110 A  
HETATM   17  C   UNL     1      -9.777   7.950  66.931  1.00  0.00    -0.285 A  
HETATM   18  C   UNL     1      -7.460   7.908  67.537  1.00  0.00    -0.093 A  
HETATM   19  C   UNL     1      -9.747   6.574  66.711  1.00  0.00    -0.208 A  
BRANCH  16  20
HETATM   20  C   UNL     1      -8.696   4.345  67.225  1.00  0.00    -0.108 A  
HETATM   21  C   UNL     1      -8.563   3.830  68.538  1.00  0.00    -0.120 A  
HETATM   22  C   UNL     1      -8.810   3.393  66.167  1.00  0.00    -0.137 A  
HETATM   23  C   UNL     1      -8.558   2.457  68.808  1.00  0.00    -0.111 A  
HETATM   24  C   UNL     1      -8.868   2.014  66.474  1.00  0.00    -0.130 A  
HETATM   25  C   UNL     1      -8.732   1.548  67.777  1.00  0.00    -0.119 A  
BRANCH  22  26
HETATM   26  C   UNL     1      -8.819   3.706  64.732  1.00  0.00    -0.120 A  
HETATM   27  N   UNL     1      -9.879   3.819  63.951  1.00  0.00    -0.164 NA 
HETATM   28  H   UNL     1     -10.855   3.717  64.231  1.00  0.00     0.000 HD 
HETATM   29  N   UNL     1      -9.415   4.103  62.690  1.00  0.00    -0.124 NA 
HETATM   30  N   UNL     1      -8.092   4.141  62.672  1.00  0.00    -0.073 NA 
HETATM   31  N   UNL     1      -7.720   3.850  63.926  1.00  0.00    -0.081 NA 
ENDBRANCH  22  26
ENDBRANCH  16  20
ENDBRANCH  13  14
ENDBRANCH   9  13
BRANCH   8  32
HETATM   32  C   UNL     1      -9.637   8.594  71.179  1.00  0.00    -0.220 C  
HETATM   33  O   UNL     1      -8.891   8.846  72.110  1.00  0.00    -0.381 OA 
BRANCH  32  34
HETATM   34  O   UNL     1      -9.655   7.416  70.504  1.00  0.00    -0.172 OA 
BRANCH  34  35
HETATM   35  C   UNL     1     -10.692   6.536  70.964  1.00  0.00    -0.243 C  
HETATM   36  C   UNL     1     -11.159   5.769  69.726  1.00  0.00    -0.318 C  
BRANCH  35  37
HETATM   37  O   UNL     1     -10.213   5.533  71.860  1.00  0.00    -0.187 OA 
BRANCH  37  38
HETATM   38  C   UNL     1     -10.634   5.631  73.140  1.00  0.00    -0.247 C  
HETATM   39  O   UNL     1     -10.908   6.659  73.735  1.00  0.00    -0.247 OA 
BRANCH  38  40
HETATM   40  O   UNL     1     -10.718   4.375  73.616  1.00  0.00    -0.206 OA 
BRANCH  40  41
HETATM   41  C   UNL     1      -9.642   3.688  74.295  1.00  0.00    -0.099 C  
HETATM   42  C   UNL     1      -7.414   2.747  72.560  1.00  0.00    -0.048 C  
HETATM   43  C   UNL     1      -9.585   2.272  73.715  1.00  0.00    -0.114 C  
HETATM   44  C   UNL     1      -8.839   2.239  72.386  1.00  0.00    -0.091 C  
HETATM   45  C   UNL     1      -7.367   4.156  73.141  1.00  0.00    -0.070 C  
HETATM   46  C   UNL     1      -8.260   4.347  74.371  1.00  0.00    -0.091 C  
ENDBRANCH  40  41
ENDBRANCH  38  40
ENDBRANCH  37  38
ENDBRANCH  35  37
ENDBRANCH  34  35
ENDBRANCH  32  34
ENDBRANCH   8  32
ENDBRANCH   3   4
ENDBRANCH   2   3
TORSDOF 13
ENDMDL
MODEL      157
REMARK 921   NORMALIZED FREE ENERGY PREDICTED BY IDOCK:   -5.66 KCAL/MOL
REMARK 922        TOTAL FREE ENERGY PREDICTED BY IDOCK:  -12.41 KCAL/MOL
REMARK 923 INTER-LIGAND FREE ENERGY PREDICTED BY IDOCK:   -9.83 KCAL/MOL
REMARK 924 INTRA-LIGAND FREE ENERGY PREDICTED BY IDOCK:   -2.58 KCAL/MOL
REMARK 927      BINDING AFFINITY PREDICTED BY RF-SCORE:    0.00 PKD
ROOT
HETATM    1  C   UNL     1      -6.011   7.310  62.785  1.00  0.00    -0.049 C  
HETATM    2  C   UNL     1      -6.636   6.168  63.566  1.00  0.00    -0.033 C  
ENDROOT
BRANCH   2   3
HETATM    3  O   UNL     1      -6.145   6.237  64.909  1.00  0.00    -0.028 OA 
BRANCH   3   4
HETATM    4  C   UNL     1      -6.872   5.573  65.804  1.00  0.00    -0.057 A  
HETATM    5  N   UNL     1      -7.270   4.329  65.666  1.00  0.00    -0.070 NA 
HETATM    6  C   UNL     1      -7.982   4.061  66.799  1.00  0.00    -0.097 A  
HETATM    7  C   UNL     1      -7.972   5.142  67.702  1.00  0.00    -0.099 A  
HETATM    8  C   UNL     1      -8.561   4.992  68.981  1.00  0.00    -0.091 A  
HETATM    9  N   UNL     1      -7.340   6.140  66.970  1.00  0.00    -0.081 NA 
HETATM   10  C   UNL     1      -9.308   2.742  68.323  1.00  0.00    -0.258 A  
HETATM   11  C   UNL     1      -8.675   2.875  67.094  1.00  0.00    -0.139 A  
HETATM   12  C   UNL     1      -9.221   3.771  69.254  1.00  0.00    -0.228 A  
BRANCH   9  13
HETATM   13  C   UNL     1      -7.295   7.586  67.192  1.00  0.00    -0.094 C  
BRANCH  13  14
HETATM   14  C   UNL     1      -8.346   8.339  66.416  1.00  0.00    -0.117 A  
HETATM   15  C   UNL     1     -10.494   9.443  66.274  1.00  0.00    -0.112 A  
HETATM   16  C   UNL     1     -10.012  10.298  65.268  1.00  0.00    -0.387 A  
HETATM   17  C   UNL     1      -7.996   8.933  65.202  1.00  0.00    -0.122 A  
HETATM   18  C   UNL     1      -9.646   8.512  66.888  1.00  0.00    -0.257 A  
HETATM   19  C   UNL     1      -8.812   9.918  64.647  1.00  0.00    -0.234 A  
BRANCH  16  20
HETATM   20  C   UNL     1     -10.638  11.621  64.970  1.00  0.00    -0.342 A  
HETATM   21  C   UNL     1     -11.452  11.756  63.819  1.00  0.00    -0.510 A  
HETATM   22  C   UNL     1     -10.382  12.806  65.723  1.00  0.00    -0.297 A  
HETATM   23  C   UNL     1     -12.003  12.982  63.431  1.00  0.00    -0.592 A  
HETATM   24  C   UNL     1     -11.003  14.018  65.346  1.00  0.00    -0.321 A  
HETATM   25  C   UNL     1     -11.796  14.110  64.207  1.00  0.00    -0.420 A  
BRANCH  22  26
HETATM   26  C   UNL     1      -9.459  12.915  66.861  1.00  0.00    -0.237 A  
HETATM   27  N   UNL     1      -9.664  13.575  67.988  1.00  0.00    -0.221 NA 
HETATM   28  H   UNL     1     -10.501  14.101  68.242  1.00  0.00     0.000 HD 
HETATM   29  N   UNL     1      -8.534  13.416  68.752  1.00  0.00     0.019 NA 
HETATM   30  N   UNL     1      -7.629  12.694  68.111  1.00  0.00    -0.121 NA 
HETATM   31  N   UNL     1      -8.182  12.422  66.921  1.00  0.00    -0.135 NA 
ENDBRANCH  22  26
ENDBRANCH  16  20
ENDBRANCH  13  14
ENDBRANCH   9  13
BRANCH   8  32
HETATM   32  C   UNL     1      -8.673   6.064  69.999  1.00  0.00    -0.135 C  
HETATM   33  O   UNL     1      -8.698   7.251  69.719  1.00  0.00    -0.140 OA 
BRANCH  32  34
HETATM   34  O   UNL     1      -8.966   5.555  71.222  1.00  0.00    -0.139 OA 
BRANCH  34  35
HETATM   35  C   UNL     1     -10.192   6.078  71.755  1.00  0.00    -0.202 C  
HETATM   36  C   UNL     1     -10.940   4.873  72.327  1.00  0.00    -0.114 C  
BRANCH  35  37
HETATM   37  O   UNL     1      -9.989   6.948  72.868  1.00  0.00    -0.168 OA 
BRANCH  37  38
HETATM   38  C   UNL     1      -9.983   8.272  72.594  1.00  0.00    -0.287 C  
HETATM   39  O   UNL     1      -9.001   8.967  72.400  1.00  0.00    -0.383 OA 
BRANCH  38  40
HETATM   40  O   UNL     1     -11.271   8.661  72.550  1.00  0.00    -0.329 OA 
BRANCH  40  41
HETATM   41  C   UNL     1     -12.024   8.850  71.330  1.00  0.00    -0.311 C  
HETATM   42  C   UNL     1     -12.246  11.659  70.373  1.00  0.00    -0.434 C  
HETATM   43  C   UNL     1     -13.211   9.751  71.678  1.00  0.00    -0.514 C  
HETATM   44  C   UNL     1     -12.807  11.221  71.719  1.00  0.00    -0.466 C  
HETATM   45  C   UNL     1     -11.056  10.811  69.936  1.00  0.00    -0.339 C  
HETATM   46  C   UNL     1     -11.295   9.303  70.061  1.00  0.00    -0.137 C  
ENDBRANCH  40  41
ENDBRANCH  38  40
ENDBRANCH  37  38
ENDBRANCH  35  37
ENDBRANCH  34  35
ENDBRANCH  32  34
ENDBRANCH   8  32
ENDBRANCH   3   4
ENDBRANCH   2   3
TORSDOF 13
ENDMDL
MODEL      158
REMARK 921   NORMALIZED FREE ENERGY PREDICTED BY IDOCK:   -5.65 KCAL/MOL
REMARK 922        TOTAL FREE ENERGY PREDICTED BY IDOCK:  -12.40 KCAL/MOL
REMARK 923 INTER-LIGAND FREE ENERGY PREDICTED BY IDOCK:  -10.43 KCAL/MOL
REMARK 924 INTRA-LIGAND FREE ENERGY PREDICTED BY IDOCK:   -1.97 KCAL/MOL
REMARK 927      BINDING AFFINITY PREDICTED BY RF-SCORE:    0.00 PKD
ROOT
HETATM    1  C   UNL     1      -7.245   9.622  62.541  1.00  0.00    -0.107 C  
HETATM    2  C   UNL     1      -8.761   9.581  62.479  1.00  0.00    -0.227 C  
ENDROOT
BRANCH   2   3
HETATM    3  O   UNL     1      -9.254   9.577  63.823  1.00  0.00    -0.209 OA 
BRANCH   3   4
HETATM    4  C   UNL     1      -9.866  10.698  64.196  1.00  0.00    -0.335 A  
HETATM    5  N   UNL     1     -10.843  11.270  63.532  1.00  0.00    -0.359 NA 
HETATM    6  C   UNL     1     -11.160  12.379  64.259  1.00  0.00    -0.349 A  
HETATM    7  C   UNL     1     -10.410  12.469  65.449  1.00  0.00    -0.282 A  
HETATM    8  C   UNL     1     -10.696  13.495  66.382  1.00  0.00    -0.287 A  
HETATM    9  N   UNL     1      -9.504  11.423  65.312  1.00  0.00    -0.225 NA 
HETATM   10  C   UNL     1     -12.348  14.407  64.805  1.00  0.00    -0.427 A  
HETATM   11  C   UNL     1     -12.105  13.364  63.922  1.00  0.00    -0.514 A  
HETATM   12  C   UNL     1     -11.677  14.447  66.022  1.00  0.00    -0.378 A  
BRANCH   9  13
HETATM   13  C   UNL     1      -8.255  11.160  66.026  1.00  0.00    -0.094 C  
BRANCH  13  14
HETATM   14  C   UNL     1      -8.423  10.216  67.190  1.00  0.00    -0.125 A  
HETATM   15  C   UNL     1      -8.667   9.790  69.559  1.00  0.00    -0.193 A  
HETATM   16  C   UNL     1      -9.408   8.625  69.296  1.00  0.00    -0.153 A  
HETATM   17  C   UNL     1      -8.837   8.905  66.944  1.00  0.00    -0.141 A  
HETATM   18  C   UNL     1      -8.233  10.614  68.512  1.00  0.00    -0.128 A  
HETATM   19  C   UNL     1      -9.344   8.127  67.985  1.00  0.00    -0.144 A  
BRANCH  16  20
HETATM   20  C   UNL     1     -10.342   8.025  70.293  1.00  0.00    -0.212 A  
HETATM   21  C   UNL     1     -11.733   8.027  70.025  1.00  0.00     0.278 A  
HETATM   22  C   UNL     1      -9.932   7.534  71.569  1.00  0.00    -0.197 A  
HETATM   23  C   UNL     1     -12.675   7.559  70.947  1.00  0.00    -0.108 A  
HETATM   24  C   UNL     1     -10.898   7.008  72.456  1.00  0.00    -0.285 A  
HETATM   25  C   UNL     1     -12.256   7.028  72.156  1.00  0.00    -0.255 A  
BRANCH  22  26
HETATM   26  C   UNL     1      -8.563   7.573  72.101  1.00  0.00    -0.114 A  
HETATM   27  N   UNL     1      -7.513   6.915  71.638  1.00  0.00    -0.085 NA 
HETATM   28  H   UNL     1      -7.494   6.289  70.833  1.00  0.00     0.000 HD 
HETATM   29  N   UNL     1      -6.454   7.238  72.450  1.00  0.00    -0.051 NA 
HETATM   30  N   UNL     1      -6.832   8.060  73.416  1.00  0.00    -0.096 NA 
HETATM   31  N   UNL     1      -8.148   8.231  73.229  1.00  0.00    -0.292 NA 
ENDBRANCH  22  26
ENDBRANCH  16  20
ENDBRANCH  13  14
ENDBRANCH   9  13
BRANCH   8  32
HETATM   32  C   UNL     1      -9.945  13.737  67.637  1.00  0.00    -0.238 C  
HETATM   33  O   UNL     1     -10.256  13.243  68.708  1.00  0.00    -0.207 OA 
BRANCH  32  34
HETATM   34  O   UNL     1      -8.770  14.372  67.394  1.00  0.00    -0.181 OA 
BRANCH  34  35
HETATM   35  C   UNL     1      -7.917  14.410  68.548  1.00  0.00    -0.144 C  
HETATM   36  C   UNL     1      -6.613  13.736  68.119  1.00  0.00    -0.126 C  
BRANCH  35  37
HETATM   37  O   UNL     1      -7.542  15.737  68.920  1.00  0.00    -0.154 OA 
BRANCH  37  38
HETATM   38  C   UNL     1      -8.531  16.658  68.910  1.00  0.00    -0.233 C  
HETATM   39  O   UNL     1      -9.664  16.507  69.330  1.00  0.00    -0.225 OA 
BRANCH  38  40
HETATM   40  O   UNL     1      -8.009  17.776  68.372  1.00  0.00    -0.273 OA 
BRANCH  40  41
HETATM   41  C   UNL     1      -8.537  19.105  68.586  1.00  0.00    -0.361 C  
HETATM   42  C   UNL     1     -10.068  20.268  66.315  1.00  0.00    -0.460 C  
HETATM   43  C   UNL     1      -7.895  20.011  67.533  1.00  0.00    -0.337 C  
HETATM   44  C   UNL     1      -8.599  19.892  66.185  1.00  0.00    -0.348 C  
HETATM   45  C   UNL     1     -10.796  19.419  67.352  1.00  0.00    -0.555 C  
HETATM   46  C   UNL     1     -10.053  19.304  68.687  1.00  0.00    -0.499 C  
ENDBRANCH  40  41
ENDBRANCH  38  40
ENDBRANCH  37  38
ENDBRANCH  35  37
ENDBRANCH  34  35
ENDBRANCH  32  34
ENDBRANCH   8  32
ENDBRANCH   3   4
ENDBRANCH   2   3
TORSDOF 13
ENDMDL
MODEL      159
REMARK 921   NORMALIZED FREE ENERGY PREDICTED BY IDOCK:   -5.65 KCAL/MOL
REMARK 922        TOTAL FREE ENERGY PREDICTED BY IDOCK:  -12.40 KCAL/MOL
REMARK 923 INTER-LIGAND FREE ENERGY PREDICTED BY IDOCK:   -9.48 KCAL/MOL
REMARK 924 INTRA-LIGAND FREE ENERGY PREDICTED BY IDOCK:   -2.92 KCAL/MOL
REMARK 927      BINDING AFFINITY PREDICTED BY RF-SCORE:    0.00 PKD
ROOT
HETATM    1  C   UNL     1      -8.887   4.930  64.763  1.00  0.00    -0.147 C  
HETATM    2  C   UNL     1      -8.127   6.232  64.944  1.00  0.00    -0.130 C  
ENDROOT
BRANCH   2   3
HETATM    3  O   UNL     1      -8.239   6.617  66.318  1.00  0.00    -0.111 OA 
BRANCH   3   4
HETATM    4  C   UNL     1      -7.835   7.856  66.585  1.00  0.00    -0.102 A  
HETATM    5  N   UNL     1      -6.590   8.198  66.825  1.00  0.00    -0.056 NA 
HETATM    6  C   UNL     1      -6.633   9.543  67.052  1.00  0.00    -0.068 A  
HETATM    7  C   UNL     1      -7.929  10.070  66.881  1.00  0.00    -0.113 A  
HETATM    8  C   UNL     1      -8.131  11.470  66.960  1.00  0.00    -0.161 A  
HETATM    9  N   UNL     1      -8.696   8.927  66.693  1.00  0.00    -0.125 NA 
HETATM   10  C   UNL     1      -5.761  11.734  67.563  1.00  0.00    -0.084 A  
HETATM   11  C   UNL     1      -5.558  10.367  67.424  1.00  0.00    -0.041 A  
HETATM   12  C   UNL     1      -7.017  12.270  67.303  1.00  0.00    -0.142 A  
BRANCH   9  13
HETATM   13  C   UNL     1     -10.145   8.741  66.778  1.00  0.00    -0.288 C  
BRANCH  13  14
HETATM   14  C   UNL     1     -10.586   8.096  68.067  1.00  0.00    -0.188 A  
HETATM   15  C   UNL     1     -11.207   6.147  69.361  1.00  0.00    -0.466 A  
HETATM   16  C   UNL     1     -10.732   6.750  70.538  1.00  0.00    -0.277 A  
HETATM   17  C   UNL     1     -10.453   8.806  69.262  1.00  0.00    -0.228 A  
HETATM   18  C   UNL     1     -11.076   6.792  68.124  1.00  0.00    -0.229 A  
HETATM   19  C   UNL     1     -10.503   8.134  70.483  1.00  0.00    -0.222 A  
BRANCH  16  20
HETATM   20  C   UNL     1     -10.333   5.960  71.740  1.00  0.00    -0.263 A  
HETATM   21  C   UNL     1     -11.289   5.719  72.756  1.00  0.00    -0.328 A  
HETATM   22  C   UNL     1      -9.001   5.512  71.988  1.00  0.00    -0.140 A  
HETATM   23  C   UNL     1     -10.968   5.060  73.947  1.00  0.00    -0.268 A  
HETATM   24  C   UNL     1      -8.717   4.792  73.171  1.00  0.00    -0.109 A  
HETATM   25  C   UNL     1      -9.685   4.577  74.146  1.00  0.00    -0.152 A  
BRANCH  22  26
HETATM   26  C   UNL     1      -7.834   5.780  71.136  1.00  0.00    -0.111 A  
HETATM   27  N   UNL     1      -6.955   6.757  71.279  1.00  0.00    -0.072 NA 
HETATM   28  H   UNL     1      -6.949   7.468  72.010  1.00  0.00     0.000 HD 
HETATM   29  N   UNL     1      -6.052   6.631  70.252  1.00  0.00    -0.027 NA 
HETATM   30  N   UNL     1      -6.369   5.614  69.467  1.00  0.00    -0.035 NA 
HETATM   31  N   UNL     1      -7.498   5.114  69.986  1.00  0.00    -0.062 NA 
ENDBRANCH  22  26
ENDBRANCH  16  20
ENDBRANCH  13  14
ENDBRANCH   9  13
BRANCH   8  32
HETATM   32  C   UNL     1      -9.447  12.146  66.861  1.00  0.00    -0.210 C  
HETATM   33  O   UNL     1     -10.116  12.159  65.841  1.00  0.00    -0.234 OA 
BRANCH  32  34
HETATM   34  O   UNL     1      -9.894  12.536  68.082  1.00  0.00    -0.211 OA 
BRANCH  34  35
HETATM   35  C   UNL     1     -11.043  13.393  67.997  1.00  0.00    -0.255 C  
HETATM   36  C   UNL     1     -11.879  13.085  69.240  1.00  0.00    -0.370 C  
BRANCH  35  37
HETATM   37  O   UNL     1     -10.712  14.778  68.109  1.00  0.00    -0.240 OA 
BRANCH  37  38
HETATM   38  C   UNL     1     -11.020  15.549  67.042  1.00  0.00    -0.283 C  
HETATM   39  O   UNL     1     -11.346  15.156  65.935  1.00  0.00    -0.319 OA 
BRANCH  38  40
HETATM   40  O   UNL     1     -10.922  16.828  67.450  1.00  0.00    -0.232 OA 
BRANCH  40  41
HETATM   41  C   UNL     1     -10.210  17.860  66.729  1.00  0.00    -0.360 C  
HETATM   42  C   UNL     1      -8.497  19.643  68.386  1.00  0.00    -0.352 C  
HETATM   43  C   UNL     1     -10.700  19.202  67.279  1.00  0.00    -0.585 C  
HETATM   44  C   UNL     1     -10.004  19.561  68.587  1.00  0.00    -0.538 C  
HETATM   45  C   UNL     1      -7.914  18.347  67.832  1.00  0.00    -0.269 C  
HETATM   46  C   UNL     1      -8.682  17.789  66.630  1.00  0.00    -0.281 C  
ENDBRANCH  40  41
ENDBRANCH  38  40
ENDBRANCH  37  38
ENDBRANCH  35  37
ENDBRANCH  34  35
ENDBRANCH  32  34
ENDBRANCH   8  32
ENDBRANCH   3   4
ENDBRANCH   2   3
TORSDOF 13
ENDMDL
MODEL      160
REMARK 921   NORMALIZED FREE ENERGY PREDICTED BY IDOCK:   -5.65 KCAL/MOL
REMARK 922        TOTAL FREE ENERGY PREDICTED BY IDOCK:  -12.39 KCAL/MOL
REMARK 923 INTER-LIGAND FREE ENERGY PREDICTED BY IDOCK:   -9.34 KCAL/MOL
REMARK 924 INTRA-LIGAND FREE ENERGY PREDICTED BY IDOCK:   -3.05 KCAL/MOL
REMARK 927      BINDING AFFINITY PREDICTED BY RF-SCORE:    0.00 PKD
ROOT
HETATM    1  C   UNL     1      -7.049  10.777  66.254  1.00  0.00    -0.134 C  
HETATM    2  C   UNL     1      -6.982  10.060  67.590  1.00  0.00    -0.085 C  
ENDROOT
BRANCH   2   3
HETATM    3  O   UNL     1      -7.767  10.805  68.527  1.00  0.00    -0.104 OA 
BRANCH   3   4
HETATM    4  C   UNL     1      -8.118  10.134  69.620  1.00  0.00    -0.168 A  
HETATM    5  N   UNL     1      -7.273   9.654  70.503  1.00  0.00    -0.158 NA 
HETATM    6  C   UNL     1      -8.054   9.044  71.441  1.00  0.00    -0.044 A  
HETATM    7  C   UNL     1      -9.428   9.206  71.176  1.00  0.00    -0.261 A  
HETATM    8  C   UNL     1     -10.382   8.740  72.114  1.00  0.00    -0.378 A  
HETATM    9  N   UNL     1      -9.424   9.819  69.929  1.00  0.00    -0.222 NA 
HETATM   10  C   UNL     1      -8.543   7.803  73.451  1.00  0.00    -0.267 A  
HETATM   11  C   UNL     1      -7.611   8.316  72.558  1.00  0.00    -0.159 A  
HETATM   12  C   UNL     1      -9.896   8.041  73.243  1.00  0.00    -0.281 A  
BRANCH   9  13
HETATM   13  C   UNL     1     -10.501   9.969  68.950  1.00  0.00    -0.210 C  
BRANCH  13  14
HETATM   14  C   UNL     1     -10.766  11.405  68.575  1.00  0.00    -0.235 A  
HETATM   15  C   UNL     1     -11.267  13.696  69.170  1.00  0.00    -0.309 A  
HETATM   16  C   UNL     1     -10.589  14.163  68.032  1.00  0.00    -0.241 A  
HETATM   17  C   UNL     1     -10.418  11.847  67.297  1.00  0.00    -0.248 A  
HETATM   18  C   UNL     1     -11.300  12.329  69.472  1.00  0.00    -0.258 A  
HETATM   19  C   UNL     1     -10.310  13.213  67.037  1.00  0.00    -0.249 A  
BRANCH  16  20
HETATM   20  C   UNL     1     -10.045  15.550  67.933  1.00  0.00    -0.224 A  
HETATM   21  C   UNL     1     -10.923  16.616  67.620  1.00  0.00    -0.193 A  
HETATM   22  C   UNL     1      -8.656  15.866  68.032  1.00  0.00    -0.164 A  
HETATM   23  C   UNL     1     -10.473  17.926  67.429  1.00  0.00    -0.390 A  
HETATM   24  C   UNL     1      -8.237  17.209  67.899  1.00  0.00    -0.202 A  
HETATM   25  C   UNL     1      -9.132  18.228  67.590  1.00  0.00    -0.267 A  
BRANCH  22  26
HETATM   26  C   UNL     1      -7.568  14.896  68.210  1.00  0.00    -0.113 A  
HETATM   27  N   UNL     1      -7.172  14.347  69.345  1.00  0.00    -0.260 NA 
HETATM   28  H   UNL     1      -7.570  14.507  70.270  1.00  0.00     0.000 HD 
HETATM   29  N   UNL     1      -6.120  13.518  69.039  1.00  0.00    -0.081 NA 
HETATM   30  N   UNL     1      -5.844  13.563  67.746  1.00  0.00    -0.223 NA 
HETATM   31  N   UNL     1      -6.710  14.451  67.238  1.00  0.00    -0.224 NA 
ENDBRANCH  22  26
ENDBRANCH  16  20
ENDBRANCH  13  14
ENDBRANCH   9  13
BRANCH   8  32
HETATM   32  C   UNL     1     -11.852   8.793  71.930  1.00  0.00    -0.367 C  
HETATM   33  O   UNL     1     -12.467   9.831  71.751  1.00  0.00    -0.371 OA 
BRANCH  32  34
HETATM   34  O   UNL     1     -12.373   7.551  71.761  1.00  0.00    -0.304 OA 
BRANCH  34  35
HETATM   35  C   UNL     1     -11.483   6.674  71.055  1.00  0.00    -0.330 C  
HETATM   36  C   UNL     1     -11.484   5.364  71.845  1.00  0.00     0.025 C  
BRANCH  35  37
HETATM   37  O   UNL     1     -11.963   6.322  69.757  1.00  0.00    -0.185 OA 
BRANCH  37  38
HETATM   38  C   UNL     1     -11.067   6.414  68.749  1.00  0.00    -0.326 C  
HETATM   39  O   UNL     1     -11.322   6.536  67.564  1.00  0.00    -0.284 OA 
BRANCH  38  40
HETATM   40  O   UNL     1      -9.846   6.372  69.314  1.00  0.00    -0.145 OA 
BRANCH  40  41
HETATM   41  C   UNL     1      -8.773   5.510  68.871  1.00  0.00    -0.102 C  
HETATM   42  C   UNL     1      -7.957   3.379  70.781  1.00  0.00    -0.053 C  
HETATM   43  C   UNL     1      -7.624   5.687  69.866  1.00  0.00    -0.075 C  
HETATM   44  C   UNL     1      -7.841   4.857  71.127  1.00  0.00    -0.088 C  
HETATM   45  C   UNL     1      -9.078   3.103  69.784  1.00  0.00    -0.200 C  
HETATM   46  C   UNL     1      -9.069   4.037  68.570  1.00  0.00    -0.189 C  
ENDBRANCH  40  41
ENDBRANCH  38  40
ENDBRANCH  37  38
ENDBRANCH  35  37
ENDBRANCH  34  35
ENDBRANCH  32  34
ENDBRANCH   8  32
ENDBRANCH   3   4
ENDBRANCH   2   3
TORSDOF 13
ENDMDL
MODEL      161
REMARK 921   NORMALIZED FREE ENERGY PREDICTED BY IDOCK:   -5.63 KCAL/MOL
REMARK 922        TOTAL FREE ENERGY PREDICTED BY IDOCK:  -12.35 KCAL/MOL
REMARK 923 INTER-LIGAND FREE ENERGY PREDICTED BY IDOCK:   -8.89 KCAL/MOL
REMARK 924 INTRA-LIGAND FREE ENERGY PREDICTED BY IDOCK:   -3.46 KCAL/MOL
REMARK 927      BINDING AFFINITY PREDICTED BY RF-SCORE:    0.00 PKD
ROOT
HETATM    1  C   UNL     1     -11.085   1.932  73.969  1.00  0.00    -0.239 C  
HETATM    2  C   UNL     1     -10.473   2.894  72.965  1.00  0.00    -0.161 C  
ENDROOT
BRANCH   2   3
HETATM    3  O   UNL     1     -10.982   4.202  73.246  1.00  0.00    -0.213 OA 
BRANCH   3   4
HETATM    4  C   UNL     1     -10.066   5.166  73.263  1.00  0.00    -0.173 A  
HETATM    5  N   UNL     1      -9.120   5.278  74.167  1.00  0.00    -0.118 NA 
HETATM    6  C   UNL     1      -8.423   6.394  73.808  1.00  0.00    -0.122 A  
HETATM    7  C   UNL     1      -8.900   6.957  72.608  1.00  0.00    -0.124 A  
HETATM    8  C   UNL     1      -8.215   8.052  72.026  1.00  0.00    -0.174 A  
HETATM    9  N   UNL     1     -10.036   6.199  72.351  1.00  0.00    -0.169 NA 
HETATM   10  C   UNL     1      -6.711   8.087  73.973  1.00  0.00    -0.139 A  
HETATM   11  C   UNL     1      -7.351   6.976  74.506  1.00  0.00    -0.112 A  
HETATM   12  C   UNL     1      -7.120   8.589  72.743  1.00  0.00    -0.057 A  
BRANCH   9  13
HETATM   13  C   UNL     1     -11.159   6.461  71.451  1.00  0.00    -0.277 C  
BRANCH  13  14
HETATM   14  C   UNL     1     -10.937   5.937  70.055  1.00  0.00    -0.430 A  
HETATM   15  C   UNL     1     -10.887   6.246  67.656  1.00  0.00    -0.433 A  
HETATM   16  C   UNL     1      -9.899   5.255  67.527  1.00  0.00    -0.183 A  
HETATM   17  C   UNL     1     -10.241   4.739  69.883  1.00  0.00    -0.238 A  
HETATM   18  C   UNL     1     -11.355   6.629  68.920  1.00  0.00    -0.209 A  
HETATM   19  C   UNL     1      -9.709   4.414  68.636  1.00  0.00    -0.190 A  
BRANCH  16  20
HETATM   20  C   UNL     1      -8.983   5.181  66.351  1.00  0.00    -0.125 A  
HETATM   21  C   UNL     1      -9.475   4.677  65.123  1.00  0.00    -0.147 A  
HETATM   22  C   UNL     1      -7.591   5.493  66.409  1.00  0.00    -0.091 A  
HETATM   23  C   UNL     1      -8.656   4.501  64.003  1.00  0.00    -0.133 A  
HETATM   24  C   UNL     1      -6.800   5.367  65.245  1.00  0.00    -0.053 A  
HETATM   25  C   UNL     1      -7.321   4.867  64.056  1.00  0.00    -0.055 A  
BRANCH  22  26
HETATM   26  C   UNL     1      -6.853   5.894  67.615  1.00  0.00    -0.060 A  
HETATM   27  N   UNL     1      -6.454   7.114  67.932  1.00  0.00    -0.046 NA 
HETATM   28  H   UNL     1      -6.608   7.964  67.391  1.00  0.00     0.000 HD 
HETATM   29  N   UNL     1      -5.793   7.015  69.132  1.00  0.00    -0.018 NA 
HETATM   30  N   UNL     1      -5.754   5.760  69.548  1.00  0.00    -0.015 NA 
HETATM   31  N   UNL     1      -6.370   5.057  68.587  1.00  0.00    -0.034 NA 
ENDBRANCH  22  26
ENDBRANCH  16  20
ENDBRANCH  13  14
ENDBRANCH   9  13
BRANCH   8  32
HETATM   32  C   UNL     1      -8.645   8.773  70.805  1.00  0.00    -0.187 C  
HETATM   33  O   UNL     1      -8.449   8.353  69.677  1.00  0.00    -0.123 OA 
BRANCH  32  34
HETATM   34  O   UNL     1      -9.463   9.813  71.108  1.00  0.00    -0.063 OA 
BRANCH  34  35
HETATM   35  C   UNL     1     -10.544   9.952  70.174  1.00  0.00    -0.297 C  
HETATM   36  C   UNL     1     -11.796  10.174  71.023  1.00  0.00    -0.475 C  
BRANCH  35  37
HETATM   37  O   UNL     1     -10.433  11.124  69.366  1.00  0.00    -0.191 OA 
BRANCH  37  38
HETATM   38  C   UNL     1     -10.593  10.945  68.036  1.00  0.00    -0.202 C  
HETATM   39  O   UNL     1     -10.726   9.879  67.460  1.00  0.00    -0.258 OA 
BRANCH  38  40
HETATM   40  O   UNL     1     -10.602  12.171  67.480  1.00  0.00    -0.208 OA 
BRANCH  40  41
HETATM   41  C   UNL     1     -11.789  12.835  66.991  1.00  0.00    -0.361 C  
HETATM   42  C   UNL     1     -11.320  15.146  65.176  1.00  0.00    -0.357 C  
HETATM   43  C   UNL     1     -11.727  14.280  67.490  1.00  0.00    -0.415 C  
HETATM   44  C   UNL     1     -10.821  15.139  66.614  1.00  0.00    -0.318 C  
HETATM   45  C   UNL     1     -11.422  13.742  64.589  1.00  0.00    -0.385 C  
HETATM   46  C   UNL     1     -12.140  12.743  65.502  1.00  0.00    -0.517 C  
ENDBRANCH  40  41
ENDBRANCH  38  40
ENDBRANCH  37  38
ENDBRANCH  35  37
ENDBRANCH  34  35
ENDBRANCH  32  34
ENDBRANCH   8  32
ENDBRANCH   3   4
ENDBRANCH   2   3
TORSDOF 13
ENDMDL
MODEL      162
REMARK 921   NORMALIZED FREE ENERGY PREDICTED BY IDOCK:   -5.57 KCAL/MOL
REMARK 922        TOTAL FREE ENERGY PREDICTED BY IDOCK:  -12.26 KCAL/MOL
REMARK 923 INTER-LIGAND FREE ENERGY PREDICTED BY IDOCK:   -8.83 KCAL/MOL
REMARK 924 INTRA-LIGAND FREE ENERGY PREDICTED BY IDOCK:   -3.43 KCAL/MOL
REMARK 927      BINDING AFFINITY PREDICTED BY RF-SCORE:    0.00 PKD
ROOT
HETATM    1  C   UNL     1     -12.533  13.525  65.618  1.00  0.00    -0.528 C  
HETATM    2  C   UNL     1     -11.110  13.275  66.085  1.00  0.00    -0.285 C  
ENDROOT
BRANCH   2   3
HETATM    3  O   UNL     1     -10.909  11.859  66.136  1.00  0.00    -0.270 OA 
BRANCH   3   4
HETATM    4  C   UNL     1     -10.935  11.335  67.359  1.00  0.00    -0.282 A  
HETATM    5  N   UNL     1     -12.007  11.256  68.113  1.00  0.00    -0.641 NA 
HETATM    6  C   UNL     1     -11.582  10.665  69.267  1.00  0.00    -0.275 A  
HETATM    7  C   UNL     1     -10.222  10.300  69.208  1.00  0.00    -0.227 A  
HETATM    8  C   UNL     1      -9.647   9.567  70.275  1.00  0.00    -0.314 A  
HETATM    9  N   UNL     1      -9.814  10.855  68.001  1.00  0.00    -0.168 NA 
HETATM   10  C   UNL     1     -11.774   9.759  71.495  1.00  0.00    -0.450 A  
HETATM   11  C   UNL     1     -12.349  10.425  70.419  1.00  0.00    -0.370 A  
HETATM   12  C   UNL     1     -10.461   9.315  71.404  1.00  0.00    -0.408 A  
BRANCH   9  13
HETATM   13  C   UNL     1      -8.467  11.121  67.495  1.00  0.00    -0.126 C  
BRANCH  13  14
HETATM   14  C   UNL     1      -7.973  10.066  66.538  1.00  0.00    -0.115 A  
HETATM   15  C   UNL     1      -6.841   7.976  66.084  1.00  0.00    -0.058 A  
HETATM   16  C   UNL     1      -7.635   7.770  64.942  1.00  0.00    -0.102 A  
HETATM   17  C   UNL     1      -8.491  10.030  65.242  1.00  0.00    -0.161 A  
HETATM   18  C   UNL     1      -7.055   9.086  66.911  1.00  0.00    -0.078 A  
HETATM   19  C   UNL     1      -8.341   8.884  64.462  1.00  0.00    -0.178 A  
BRANCH  16  20
HETATM   20  C   UNL     1      -7.855   6.417  64.351  1.00  0.00    -0.115 A  
HETATM   21  C   UNL     1      -7.328   6.129  63.068  1.00  0.00    -0.061 A  
HETATM   22  C   UNL     1      -8.666   5.409  64.956  1.00  0.00    -0.116 A  
HETATM   23  C   UNL     1      -7.565   4.914  62.416  1.00  0.00    -0.055 A  
HETATM   24  C   UNL     1      -8.835   4.167  64.304  1.00  0.00    -0.139 A  
HETATM   25  C   UNL     1      -8.301   3.923  63.043  1.00  0.00    -0.086 A  
BRANCH  22  26
HETATM   26  C   UNL     1      -9.418   5.555  66.210  1.00  0.00    -0.157 A  
HETATM   27  N   UNL     1      -9.009   5.226  67.423  1.00  0.00    -0.109 NA 
HETATM   28  H   UNL     1      -8.103   4.830  67.673  1.00  0.00     0.000 HD 
HETATM   29  N   UNL     1     -10.039   5.520  68.283  1.00  0.00    -0.162 NA 
HETATM   30  N   UNL     1     -11.081   6.000  67.623  1.00  0.00    -0.232 NA 
HETATM   31  N   UNL     1     -10.715   5.979  66.334  1.00  0.00    -0.137 NA 
ENDBRANCH  22  26
ENDBRANCH  16  20
ENDBRANCH  13  14
ENDBRANCH   9  13
BRANCH   8  32
HETATM   32  C   UNL     1      -8.220   9.175  70.366  1.00  0.00    -0.171 C  
HETATM   33  O   UNL     1      -7.302   9.974  70.299  1.00  0.00    -0.154 OA 
BRANCH  32  34
HETATM   34  O   UNL     1      -8.088   7.881  70.754  1.00  0.00    -0.097 OA 
BRANCH  34  35
HETATM   35  C   UNL     1      -7.050   7.704  71.729  1.00  0.00    -0.063 C  
HETATM   36  C   UNL     1      -7.733   7.847  73.090  1.00  0.00    -0.174 C  
BRANCH  35  37
HETATM   37  O   UNL     1      -6.505   6.384  71.727  1.00  0.00    -0.048 OA 
BRANCH  37  38
HETATM   38  C   UNL     1      -7.131   5.485  70.936  1.00  0.00    -0.069 C  
HETATM   39  O   UNL     1      -6.918   5.291  69.752  1.00  0.00    -0.054 OA 
BRANCH  38  40
HETATM   40  O   UNL     1      -8.010   4.831  71.718  1.00  0.00    -0.095 OA 
BRANCH  40  41
HETATM   41  C   UNL     1      -9.407   4.643  71.392  1.00  0.00    -0.149 C  
HETATM   42  C   UNL     1     -11.194   4.018  73.688  1.00  0.00    -0.305 C  
HETATM   43  C   UNL     1      -9.767   3.211  71.795  1.00  0.00    -0.234 C  
HETATM   44  C   UNL     1     -10.046   3.101  73.290  1.00  0.00    -0.198 C  
HETATM   45  C   UNL     1     -10.929   5.474  73.320  1.00  0.00    -0.339 C  
HETATM   46  C   UNL     1     -10.436   5.667  71.883  1.00  0.00    -0.279 C  
ENDBRANCH  40  41
ENDBRANCH  38  40
ENDBRANCH  37  38
ENDBRANCH  35  37
ENDBRANCH  34  35
ENDBRANCH  32  34
ENDBRANCH   8  32
ENDBRANCH   3   4
ENDBRANCH   2   3
TORSDOF 13
ENDMDL
MODEL      163
REMARK 921   NORMALIZED FREE ENERGY PREDICTED BY IDOCK:   -5.57 KCAL/MOL
REMARK 922        TOTAL FREE ENERGY PREDICTED BY IDOCK:  -12.25 KCAL/MOL
REMARK 923 INTER-LIGAND FREE ENERGY PREDICTED BY IDOCK:  -10.56 KCAL/MOL
REMARK 924 INTRA-LIGAND FREE ENERGY PREDICTED BY IDOCK:   -1.69 KCAL/MOL
REMARK 927      BINDING AFFINITY PREDICTED BY RF-SCORE:    0.00 PKD
ROOT
HETATM    1  C   UNL     1      -7.761   4.274  63.610  1.00  0.00    -0.071 C  
HETATM    2  C   UNL     1      -8.184   5.729  63.512  1.00  0.00    -0.072 C  
ENDROOT
BRANCH   2   3
HETATM    3  O   UNL     1      -8.644   6.139  64.804  1.00  0.00    -0.062 OA 
BRANCH   3   4
HETATM    4  C   UNL     1      -8.141   7.292  65.236  1.00  0.00    -0.134 A  
HETATM    5  N   UNL     1      -6.967   7.768  64.893  1.00  0.00    -0.054 NA 
HETATM    6  C   UNL     1      -6.858   8.950  65.564  1.00  0.00    -0.076 A  
HETATM    7  C   UNL     1      -8.023   9.258  66.293  1.00  0.00    -0.107 A  
HETATM    8  C   UNL     1      -8.128  10.508  66.953  1.00  0.00    -0.120 A  
HETATM    9  N   UNL     1      -8.784   8.104  66.146  1.00  0.00    -0.147 NA 
HETATM   10  C   UNL     1      -5.817  11.007  66.276  1.00  0.00    -0.148 A  
HETATM   11  C   UNL     1      -5.744   9.807  65.581  1.00  0.00    -0.057 A  
HETATM   12  C   UNL     1      -6.998  11.357  66.919  1.00  0.00    -0.140 A  
BRANCH   9  13
HETATM   13  C   UNL     1      -9.946   7.639  66.903  1.00  0.00    -0.255 C  
BRANCH  13  14
HETATM   14  C   UNL     1      -9.582   6.740  68.058  1.00  0.00    -0.117 A  
HETATM   15  C   UNL     1      -8.889   6.409  70.352  1.00  0.00    -0.151 A  
HETATM   16  C   UNL     1      -9.561   5.176  70.400  1.00  0.00    -0.252 A  
HETATM   17  C   UNL     1      -9.930   5.390  68.002  1.00  0.00    -0.199 A  
HETATM   18  C   UNL     1      -8.953   7.215  69.208  1.00  0.00    -0.138 A  
HETATM   19  C   UNL     1      -9.940   4.623  69.167  1.00  0.00    -0.208 A  
BRANCH  16  20
HETATM   20  C   UNL     1      -9.998   4.549  71.682  1.00  0.00    -0.266 A  
HETATM   21  C   UNL     1      -9.591   3.225  71.978  1.00  0.00    -0.215 A  
HETATM   22  C   UNL     1     -10.902   5.166  72.599  1.00  0.00    -0.303 A  
HETATM   23  C   UNL     1     -10.029   2.543  73.118  1.00  0.00    -0.183 A  
HETATM   24  C   UNL     1     -11.277   4.479  73.776  1.00  0.00    -0.275 A  
HETATM   25  C   UNL     1     -10.856   3.178  74.030  1.00  0.00    -0.264 A  
BRANCH  22  26
HETATM   26  C   UNL     1     -11.553   6.470  72.413  1.00  0.00    -0.255 A  
HETATM   27  N   UNL     1     -12.560   6.745  71.602  1.00  0.00    -0.358 NA 
HETATM   28  H   UNL     1     -13.045   6.089  70.990  1.00  0.00     0.000 HD 
HETATM   29  N   UNL     1     -12.829   8.084  71.743  1.00  0.00    -0.326 NA 
HETATM   30  N   UNL     1     -11.994   8.645  72.604  1.00  0.00    -0.287 NA 
HETATM   31  N   UNL     1     -11.173   7.656  72.984  1.00  0.00    -0.380 NA 
ENDBRANCH  22  26
ENDBRANCH  16  20
ENDBRANCH  13  14
ENDBRANCH   9  13
BRANCH   8  32
HETATM   32  C   UNL     1      -9.269  10.930  67.800  1.00  0.00    -0.153 C  
HETATM   33  O   UNL     1      -9.149  11.248  68.971  1.00  0.00    -0.104 OA 
BRANCH  32  34
HETATM   34  O   UNL     1     -10.387  11.130  67.057  1.00  0.00    -0.206 OA 
BRANCH  34  35
HETATM   35  C   UNL     1     -11.523  11.485  67.860  1.00  0.00    -0.301 C  
HETATM   36  C   UNL     1     -11.631  10.395  68.927  1.00  0.00    -0.208 C  
BRANCH  35  37
HETATM   37  O   UNL     1     -11.330  12.697  68.590  1.00  0.00    -0.248 OA 
BRANCH  37  38
HETATM   38  C   UNL     1     -12.137  13.728  68.254  1.00  0.00    -0.279 C  
HETATM   39  O   UNL     1     -12.514  14.015  67.131  1.00  0.00    -0.293 OA 
BRANCH  38  40
HETATM   40  O   UNL     1     -12.463  14.353  69.400  1.00  0.00    -0.248 OA 
BRANCH  40  41
HETATM   41  C   UNL     1     -12.063  13.903  70.715  1.00  0.00    -0.330 C  
HETATM   42  C   UNL     1     -13.337  15.314  73.005  1.00  0.00    -0.610 C  
HETATM   43  C   UNL     1     -11.414  15.099  71.415  1.00  0.00    -0.405 C  
HETATM   44  C   UNL     1     -12.460  16.044  71.998  1.00  0.00    -0.498 C  
HETATM   45  C   UNL     1     -14.026  14.095  72.399  1.00  0.00    -0.613 C  
HETATM   46  C   UNL     1     -13.084  13.185  71.605  1.00  0.00    -0.444 C  
ENDBRANCH  40  41
ENDBRANCH  38  40
ENDBRANCH  37  38
ENDBRANCH  35  37
ENDBRANCH  34  35
ENDBRANCH  32  34
ENDBRANCH   8  32
ENDBRANCH   3   4
ENDBRANCH   2   3
TORSDOF 13
ENDMDL
MODEL      164
REMARK 921   NORMALIZED FREE ENERGY PREDICTED BY IDOCK:   -5.57 KCAL/MOL
REMARK 922        TOTAL FREE ENERGY PREDICTED BY IDOCK:  -12.25 KCAL/MOL
REMARK 923 INTER-LIGAND FREE ENERGY PREDICTED BY IDOCK:   -9.64 KCAL/MOL
REMARK 924 INTRA-LIGAND FREE ENERGY PREDICTED BY IDOCK:   -2.61 KCAL/MOL
REMARK 927      BINDING AFFINITY PREDICTED BY RF-SCORE:    0.00 PKD
ROOT
HETATM    1  C   UNL     1      -9.241   8.051  73.605  1.00  0.00    -0.269 C  
HETATM    2  C   UNL     1      -9.886   6.800  74.174  1.00  0.00    -0.321 C  
ENDROOT
BRANCH   2   3
HETATM    3  O   UNL     1     -10.545   6.120  73.101  1.00  0.00    -0.221 OA 
BRANCH   3   4
HETATM    4  C   UNL     1      -9.814   5.975  71.999  1.00  0.00    -0.156 A  
HETATM    5  N   UNL     1      -8.561   5.583  71.983  1.00  0.00    -0.130 NA 
HETATM    6  C   UNL     1      -8.211   5.581  70.665  1.00  0.00    -0.116 A  
HETATM    7  C   UNL     1      -9.293   5.912  69.826  1.00  0.00    -0.148 A  
HETATM    8  C   UNL     1      -9.137   5.840  68.420  1.00  0.00    -0.118 A  
HETATM    9  N   UNL     1     -10.279   6.272  70.736  1.00  0.00    -0.189 NA 
HETATM   10  C   UNL     1      -6.764   5.287  68.756  1.00  0.00    -0.050 A  
HETATM   11  C   UNL     1      -6.941   5.300  70.133  1.00  0.00    -0.056 A  
HETATM   12  C   UNL     1      -7.852   5.522  67.923  1.00  0.00    -0.096 A  
BRANCH   9  13
HETATM   13  C   UNL     1     -11.523   7.015  70.532  1.00  0.00    -0.319 C  
BRANCH  13  14
HETATM   14  C   UNL     1     -11.324   8.509  70.504  1.00  0.00    -0.235 A  
HETATM   15  C   UNL     1     -10.081  10.472  69.829  1.00  0.00    -0.126 A  
HETATM   16  C   UNL     1     -11.256  11.243  69.829  1.00  0.00    -0.294 A  
HETATM   17  C   UNL     1     -12.393   9.342  70.841  1.00  0.00    -0.229 A  
HETATM   18  C   UNL     1     -10.127   9.099  70.103  1.00  0.00    -0.233 A  
HETATM   19  C   UNL     1     -12.366  10.690  70.486  1.00  0.00    -0.448 A  
BRANCH  16  20
HETATM   20  C   UNL     1     -11.387  12.507  69.045  1.00  0.00    -0.342 A  
HETATM   21  C   UNL     1     -10.880  12.556  67.723  1.00  0.00    -0.254 A  
HETATM   22  C   UNL     1     -11.905  13.723  69.583  1.00  0.00    -0.393 A  
HETATM   23  C   UNL     1     -10.892  13.727  66.959  1.00  0.00    -0.288 A  
HETATM   24  C   UNL     1     -11.964  14.876  68.767  1.00  0.00    -0.284 A  
HETATM   25  C   UNL     1     -11.454  14.884  67.473  1.00  0.00    -0.361 A  
BRANCH  22  26
HETATM   26  C   UNL     1     -12.348  13.926  70.969  1.00  0.00    -0.376 A  
HETATM   27  N   UNL     1     -11.681  14.537  71.934  1.00  0.00    -0.345 NA 
HETATM   28  H   UNL     1     -10.761  14.969  71.858  1.00  0.00     0.000 HD 
HETATM   29  N   UNL     1     -12.467  14.477  73.058  1.00  0.00    -0.293 NA 
HETATM   30  N   UNL     1     -13.592  13.822  72.814  1.00  0.00    -0.694 NA 
HETATM   31  N   UNL     1     -13.498  13.440  71.533  1.00  0.00    -0.268 NA 
ENDBRANCH  22  26
ENDBRANCH  16  20
ENDBRANCH  13  14
ENDBRANCH   9  13
BRANCH   8  32
HETATM   32  C   UNL     1     -10.172   6.219  67.428  1.00  0.00    -0.180 C  
HETATM   33  O   UNL     1     -10.872   5.406  66.849  1.00  0.00    -0.237 OA 
BRANCH  32  34
HETATM   34  O   UNL     1     -10.386   7.560  67.427  1.00  0.00    -0.221 OA 
BRANCH  34  35
HETATM   35  C   UNL     1      -9.491   8.258  66.549  1.00  0.00    -0.220 C  
HETATM   36  C   UNL     1     -10.271   9.473  66.045  1.00  0.00    -0.242 C  
BRANCH  35  37
HETATM   37  O   UNL     1      -8.358   8.802  67.227  1.00  0.00    -0.104 OA 
BRANCH  37  38
HETATM   38  C   UNL     1      -7.194   8.794  66.540  1.00  0.00    -0.081 C  
HETATM   39  O   UNL     1      -7.065   8.637  65.338  1.00  0.00    -0.080 OA 
BRANCH  38  40
HETATM   40  O   UNL     1      -6.216   9.019  67.436  1.00  0.00    -0.057 OA 
BRANCH  40  41
HETATM   41  C   UNL     1      -5.468  10.253  67.532  1.00  0.00    -0.041 C  
HETATM   42  C   UNL     1      -7.050  12.668  68.254  1.00  0.00    -0.105 C  
HETATM   43  C   UNL     1      -6.049  11.206  66.484  1.00  0.00    -0.144 C  
HETATM   44  C   UNL     1      -7.324  11.878  66.982  1.00  0.00    -0.118 C  
HETATM   45  C   UNL     1      -6.460  11.801  69.361  1.00  0.00    -0.120 C  
HETATM   46  C   UNL     1      -5.294  10.921  68.900  1.00  0.00    -0.040 C  
ENDBRANCH  40  41
ENDBRANCH  38  40
ENDBRANCH  37  38
ENDBRANCH  35  37
ENDBRANCH  34  35
ENDBRANCH  32  34
ENDBRANCH   8  32
ENDBRANCH   3   4
ENDBRANCH   2   3
TORSDOF 13
ENDMDL
MODEL      165
REMARK 921   NORMALIZED FREE ENERGY PREDICTED BY IDOCK:   -5.56 KCAL/MOL
REMARK 922        TOTAL FREE ENERGY PREDICTED BY IDOCK:  -12.24 KCAL/MOL
REMARK 923 INTER-LIGAND FREE ENERGY PREDICTED BY IDOCK:  -10.85 KCAL/MOL
REMARK 924 INTRA-LIGAND FREE ENERGY PREDICTED BY IDOCK:   -1.39 KCAL/MOL
REMARK 927      BINDING AFFINITY PREDICTED BY RF-SCORE:    0.00 PKD
ROOT
HETATM    1  C   UNL     1     -11.451  13.641  64.460  1.00  0.00    -0.401 C  
HETATM    2  C   UNL     1     -11.825  12.632  63.389  1.00  0.00    -0.514 C  
ENDROOT
BRANCH   2   3
HETATM    3  O   UNL     1     -11.661  11.323  63.944  1.00  0.00    -0.196 OA 
BRANCH   3   4
HETATM    4  C   UNL     1     -10.399  10.912  64.041  1.00  0.00    -0.349 A  
HETATM    5  N   UNL     1      -9.512  10.995  63.077  1.00  0.00    -0.328 NA 
HETATM    6  C   UNL     1      -8.372  10.459  63.602  1.00  0.00    -0.153 A  
HETATM    7  C   UNL     1      -8.529  10.095  64.954  1.00  0.00    -0.172 A  
HETATM    8  C   UNL     1      -7.410   9.634  65.690  1.00  0.00    -0.101 A  
HETATM    9  N   UNL     1      -9.887  10.299  65.165  1.00  0.00    -0.302 NA 
HETATM   10  C   UNL     1      -6.067   9.747  63.632  1.00  0.00    -0.114 A  
HETATM   11  C   UNL     1      -7.154  10.256  62.933  1.00  0.00    -0.127 A  
HETATM   12  C   UNL     1      -6.192   9.474  64.989  1.00  0.00    -0.078 A  
BRANCH   9  13
HETATM   13  C   UNL     1     -10.756   9.817  66.239  1.00  0.00     0.114 C  
BRANCH  13  14
HETATM   14  C   UNL     1     -10.761  10.717  67.448  1.00  0.00    -0.317 A  
HETATM   15  C   UNL     1     -10.747  12.917  68.456  1.00  0.00    -0.275 A  
HETATM   16  C   UNL     1     -11.451  12.434  69.572  1.00  0.00    -0.309 A  
HETATM   17  C   UNL     1     -11.130  10.188  68.686  1.00  0.00    -0.254 A  
HETATM   18  C   UNL     1     -10.461  12.076  67.372  1.00  0.00    -0.239 A  
HETATM   19  C   UNL     1     -11.492  11.040  69.729  1.00  0.00    -0.387 A  
BRANCH  16  20
HETATM   20  C   UNL     1     -12.251  13.325  70.464  1.00  0.00    -0.416 A  
HETATM   21  C   UNL     1     -13.103  12.745  71.436  1.00  0.00    -0.318 A  
HETATM   22  C   UNL     1     -12.295  14.746  70.333  1.00  0.00    -0.402 A  
HETATM   23  C   UNL     1     -13.943  13.511  72.249  1.00  0.00    -0.638 A  
HETATM   24  C   UNL     1     -13.105  15.501  71.211  1.00  0.00    -0.581 A  
HETATM   25  C   UNL     1     -13.929  14.893  72.152  1.00  0.00    -0.598 A  
BRANCH  22  26
HETATM   26  C   UNL     1     -11.604  15.532  69.302  1.00  0.00    -0.357 A  
HETATM   27  N   UNL     1     -10.773  16.541  69.500  1.00  0.00    -0.317 NA 
HETATM   28  H   UNL     1     -10.478  16.919  70.400  1.00  0.00     0.000 HD 
HETATM   29  N   UNL     1     -10.382  16.981  68.259  1.00  0.00    -0.326 NA 
HETATM   30  N   UNL     1     -10.973  16.283  67.302  1.00  0.00    -0.211 NA 
HETATM   31  N   UNL     1     -11.765  15.415  67.946  1.00  0.00    -0.269 NA 
ENDBRANCH  22  26
ENDBRANCH  16  20
ENDBRANCH  13  14
ENDBRANCH   9  13
BRANCH   8  32
HETATM   32  C   UNL     1      -7.450   9.163  67.095  1.00  0.00    -0.087 C  
HETATM   33  O   UNL     1      -6.789   9.665  67.988  1.00  0.00    -0.071 OA 
BRANCH  32  34
HETATM   34  O   UNL     1      -8.463   8.280  67.290  1.00  0.00    -0.122 OA 
BRANCH  34  35
HETATM   35  C   UNL     1      -8.112   7.237  68.211  1.00  0.00    -0.124 C  
HETATM   36  C   UNL     1      -8.558   7.734  69.587  1.00  0.00    -0.135 C  
BRANCH  35  37
HETATM   37  O   UNL     1      -8.850   6.033  67.997  1.00  0.00    -0.112 OA 
BRANCH  37  38
HETATM   38  C   UNL     1     -10.054   6.175  67.399  1.00  0.00    -0.156 C  
HETATM   39  O   UNL     1     -11.052   6.671  67.891  1.00  0.00    -0.269 OA 
BRANCH  38  40
HETATM   40  O   UNL     1      -9.924   5.686  66.151  1.00  0.00    -0.138 OA 
BRANCH  40  41
HETATM   41  C   UNL     1      -8.707   5.112  65.624  1.00  0.00    -0.143 C  
HETATM   42  C   UNL     1      -8.582   4.846  62.663  1.00  0.00    -0.119 C  
HETATM   43  C   UNL     1      -9.104   3.829  64.891  1.00  0.00    -0.140 C  
HETATM   44  C   UNL     1      -9.634   4.122  63.491  1.00  0.00    -0.128 C  
HETATM   45  C   UNL     1      -8.116   6.142  63.319  1.00  0.00    -0.072 C  
HETATM   46  C   UNL     1      -7.758   5.989  64.801  1.00  0.00    -0.101 C  
ENDBRANCH  40  41
ENDBRANCH  38  40
ENDBRANCH  37  38
ENDBRANCH  35  37
ENDBRANCH  34  35
ENDBRANCH  32  34
ENDBRANCH   8  32
ENDBRANCH   3   4
ENDBRANCH   2   3
TORSDOF 13
ENDMDL
MODEL      166
REMARK 921   NORMALIZED FREE ENERGY PREDICTED BY IDOCK:   -5.53 KCAL/MOL
REMARK 922        TOTAL FREE ENERGY PREDICTED BY IDOCK:  -12.18 KCAL/MOL
REMARK 923 INTER-LIGAND FREE ENERGY PREDICTED BY IDOCK:   -9.20 KCAL/MOL
REMARK 924 INTRA-LIGAND FREE ENERGY PREDICTED BY IDOCK:   -2.98 KCAL/MOL
REMARK 927      BINDING AFFINITY PREDICTED BY RF-SCORE:    0.00 PKD
ROOT
HETATM    1  C   UNL     1     -13.956  14.444  71.948  1.00  0.00    -0.574 C  
HETATM    2  C   UNL     1     -12.773  14.203  71.027  1.00  0.00    -0.362 C  
ENDROOT
BRANCH   2   3
HETATM    3  O   UNL     1     -13.152  13.197  70.082  1.00  0.00     0.321 OA 
BRANCH   3   4
HETATM    4  C   UNL     1     -12.443  12.073  70.148  1.00  0.00    -0.048 A  
HETATM    5  N   UNL     1     -12.183  11.421  71.257  1.00  0.00    -0.219 NA 
HETATM    6  C   UNL     1     -11.434  10.349  70.867  1.00  0.00    -0.297 A  
HETATM    7  C   UNL     1     -11.278  10.291  69.467  1.00  0.00    -0.261 A  
HETATM    8  C   UNL     1     -10.629   9.177  68.881  1.00  0.00    -0.214 A  
HETATM    9  N   UNL     1     -11.849  11.487  69.051  1.00  0.00    -0.329 NA 
HETATM   10  C   UNL     1     -10.157   8.320  71.138  1.00  0.00    -0.237 A  
HETATM   11  C   UNL     1     -10.847   9.384  71.703  1.00  0.00    -0.348 A  
HETATM   12  C   UNL     1     -10.081   8.209  69.754  1.00  0.00    -0.197 A  
BRANCH   9  13
HETATM   13  C   UNL     1     -11.733  12.191  67.774  1.00  0.00    -0.320 C  
BRANCH  13  14
HETATM   14  C   UNL     1     -10.960  13.482  67.875  1.00  0.00    -0.275 A  
HETATM   15  C   UNL     1      -9.236  14.850  68.880  1.00  0.00    -0.192 A  
HETATM   16  C   UNL     1      -9.056  15.548  67.674  1.00  0.00    -0.183 A  
HETATM   17  C   UNL     1     -11.025  14.396  66.821  1.00  0.00    -0.314 A  
HETATM   18  C   UNL     1     -10.138  13.781  68.960  1.00  0.00     0.005 A  
HETATM   19  C   UNL     1     -10.069  15.404  66.712  1.00  0.00    -0.266 A  
BRANCH  16  20
HETATM   20  C   UNL     1      -7.796  16.279  67.349  1.00  0.00    -0.184 A  
HETATM   21  C   UNL     1      -6.563  15.585  67.398  1.00  0.00    -0.174 A  
HETATM   22  C   UNL     1      -7.737  17.682  67.090  1.00  0.00    -0.228 A  
HETATM   23  C   UNL     1      -5.335  16.222  67.187  1.00  0.00    -0.036 A  
HETATM   24  C   UNL     1      -6.489  18.288  66.817  1.00  0.00    -0.209 A  
HETATM   25  C   UNL     1      -5.299  17.570  66.876  1.00  0.00    -0.183 A  
BRANCH  22  26
HETATM   26  C   UNL     1      -8.876  18.609  67.134  1.00  0.00    -0.274 A  
HETATM   27  N   UNL     1      -9.374  19.204  68.205  1.00  0.00    -0.320 NA 
HETATM   28  H   UNL     1      -9.035  19.116  69.163  1.00  0.00     0.000 HD 
HETATM   29  N   UNL     1     -10.436  19.963  67.779  1.00  0.00    -0.398 NA 
HETATM   30  N   UNL     1     -10.618  19.831  66.475  1.00  0.00    -0.482 NA 
HETATM   31  N   UNL     1      -9.682  18.957  66.081  1.00  0.00    -0.468 NA 
ENDBRANCH  22  26
ENDBRANCH  16  20
ENDBRANCH  13  14
ENDBRANCH   9  13
BRANCH   8  32
HETATM   32  C   UNL     1     -10.346   9.021  67.434  1.00  0.00    -0.268 C  
HETATM   33  O   UNL     1     -10.829   8.134  66.750  1.00  0.00    -0.197 OA 
BRANCH  32  34
HETATM   34  O   UNL     1      -9.685  10.100  66.942  1.00  0.00    -0.174 OA 
BRANCH  34  35
HETATM   35  C   UNL     1      -8.867   9.772  65.809  1.00  0.00    -0.153 C  
HETATM   36  C   UNL     1      -9.195  10.822  64.746  1.00  0.00    -0.245 C  
BRANCH  35  37
HETATM   37  O   UNL     1      -7.471   9.931  66.066  1.00  0.00    -0.099 OA 
BRANCH  37  38
HETATM   38  C   UNL     1      -6.905   8.995  66.860  1.00  0.00    -0.077 C  
HETATM   39  O   UNL     1      -6.916   7.790  66.681  1.00  0.00    -0.068 OA 
BRANCH  38  40
HETATM   40  O   UNL     1      -6.306   9.658  67.868  1.00  0.00    -0.056 OA 
BRANCH  40  41
HETATM   41  C   UNL     1      -7.013  10.387  68.897  1.00  0.00    -0.067 C  
HETATM   42  C   UNL     1      -5.317  12.021  70.717  1.00  0.00    -0.152 C  
HETATM   43  C   UNL     1      -6.501   9.865  70.241  1.00  0.00    -0.103 C  
HETATM   44  C   UNL     1      -5.172  10.508  70.624  1.00  0.00    -0.071 C  
HETATM   45  C   UNL     1      -5.832  12.636  69.419  1.00  0.00    -0.094 C  
HETATM   46  C   UNL     1      -7.054  11.918  68.838  1.00  0.00    -0.110 C  
ENDBRANCH  40  41
ENDBRANCH  38  40
ENDBRANCH  37  38
ENDBRANCH  35  37
ENDBRANCH  34  35
ENDBRANCH  32  34
ENDBRANCH   8  32
ENDBRANCH   3   4
ENDBRANCH   2   3
TORSDOF 13
ENDMDL
MODEL      167
REMARK 921   NORMALIZED FREE ENERGY PREDICTED BY IDOCK:   -5.52 KCAL/MOL
REMARK 922        TOTAL FREE ENERGY PREDICTED BY IDOCK:  -12.16 KCAL/MOL
REMARK 923 INTER-LIGAND FREE ENERGY PREDICTED BY IDOCK:   -9.40 KCAL/MOL
REMARK 924 INTRA-LIGAND FREE ENERGY PREDICTED BY IDOCK:   -2.76 KCAL/MOL
REMARK 927      BINDING AFFINITY PREDICTED BY RF-SCORE:    0.00 PKD
ROOT
HETATM    1  C   UNL     1     -14.372   8.826  72.081  1.00  0.00    -0.481 C  
HETATM    2  C   UNL     1     -13.157   9.292  71.298  1.00  0.00    -0.265 C  
ENDROOT
BRANCH   2   3
HETATM    3  O   UNL     1     -12.009   9.129  72.136  1.00  0.00    -0.354 OA 
BRANCH   3   4
HETATM    4  C   UNL     1     -11.306   8.021  71.910  1.00  0.00    -0.283 A  
HETATM    5  N   UNL     1     -11.651   6.824  72.322  1.00  0.00    -0.278 NA 
HETATM    6  C   UNL     1     -10.656   6.001  71.882  1.00  0.00    -0.226 A  
HETATM    7  C   UNL     1      -9.696   6.690  71.114  1.00  0.00    -0.174 A  
HETATM    8  C   UNL     1      -8.657   5.967  70.478  1.00  0.00    -0.137 A  
HETATM    9  N   UNL     1     -10.094   8.014  71.254  1.00  0.00    -0.183 NA 
HETATM   10  C   UNL     1      -9.481   3.918  71.561  1.00  0.00    -0.226 A  
HETATM   11  C   UNL     1     -10.532   4.624  72.132  1.00  0.00    -0.219 A  
HETATM   12  C   UNL     1      -8.585   4.577  70.727  1.00  0.00    -0.115 A  
BRANCH   9  13
HETATM   13  C   UNL     1      -9.360   9.251  70.983  1.00  0.00    -0.227 C  
BRANCH  13  14
HETATM   14  C   UNL     1      -9.508   9.730  69.561  1.00  0.00    -0.226 A  
HETATM   15  C   UNL     1     -10.765   9.907  67.502  1.00  0.00    -0.333 A  
HETATM   16  C   UNL     1     -10.147  11.134  67.205  1.00  0.00    -0.223 A  
HETATM   17  C   UNL     1      -8.662  10.737  69.094  1.00  0.00    -0.101 A  
HETATM   18  C   UNL     1     -10.493   9.242  68.704  1.00  0.00    -0.236 A  
HETATM   19  C   UNL     1      -8.992  11.446  67.939  1.00  0.00    -0.153 A  
BRANCH  16  20
HETATM   20  C   UNL     1     -10.755  12.136  66.280  1.00  0.00    -0.296 A  
HETATM   21  C   UNL     1     -11.735  13.030  66.777  1.00  0.00    -0.440 A  
HETATM   22  C   UNL     1     -10.486  12.187  64.879  1.00  0.00    -0.325 A  
HETATM   23  C   UNL     1     -12.407  13.938  65.953  1.00  0.00    -0.517 A  
HETATM   24  C   UNL     1     -11.132  13.159  64.081  1.00  0.00    -0.426 A  
HETATM   25  C   UNL     1     -12.090  14.018  64.607  1.00  0.00    -0.462 A  
BRANCH  22  26
HETATM   26  C   UNL     1      -9.615  11.263  64.140  1.00  0.00    -0.225 A  
HETATM   27  N   UNL     1      -8.331  11.036  64.359  1.00  0.00    -0.360 NA 
HETATM   28  H   UNL     1      -7.753  11.463  65.082  1.00  0.00     0.000 HD 
HETATM   29  N   UNL     1      -7.927  10.115  63.424  1.00  0.00    -0.157 NA 
HETATM   30  N   UNL     1      -8.925   9.788  62.619  1.00  0.00    -0.257 NA 
HETATM   31  N   UNL     1      -9.960  10.533  63.032  1.00  0.00    -0.221 NA 
ENDBRANCH  22  26
ENDBRANCH  16  20
ENDBRANCH  13  14
ENDBRANCH   9  13
BRANCH   8  32
HETATM   32  C   UNL     1      -7.554   6.574  69.696  1.00  0.00    -0.098 C  
HETATM   33  O   UNL     1      -6.376   6.417  69.969  1.00  0.00    -0.036 OA 
BRANCH  32  34
HETATM   34  O   UNL     1      -8.010   7.116  68.538  1.00  0.00    -0.119 OA 
BRANCH  34  35
HETATM   35  C   UNL     1      -8.708   6.163  67.723  1.00  0.00    -0.112 C  
HETATM   36  C   UNL     1      -8.982   6.876  66.398  1.00  0.00    -0.172 C  
BRANCH  35  37
HETATM   37  O   UNL     1      -7.905   5.035  67.375  1.00  0.00    -0.094 OA 
BRANCH  37  38
HETATM   38  C   UNL     1      -8.562   3.979  66.845  1.00  0.00    -0.105 C  
HETATM   39  O   UNL     1      -9.685   3.607  67.134  1.00  0.00    -0.199 OA 
BRANCH  38  40
HETATM   40  O   UNL     1      -7.744   3.441  65.921  1.00  0.00    -0.080 OA 
BRANCH  40  41
HETATM   41  C   UNL     1      -8.096   3.254  64.531  1.00  0.00    -0.086 C  
HETATM   42  C   UNL     1      -5.826   3.291  62.608  1.00  0.00    -0.013 C  
HETATM   43  C   UNL     1      -7.660   4.520  63.789  1.00  0.00    -0.067 C  
HETATM   44  C   UNL     1      -6.170   4.498  63.469  1.00  0.00    -0.022 C  
HETATM   45  C   UNL     1      -6.230   1.974  63.264  1.00  0.00    -0.010 C  
HETATM   46  C   UNL     1      -7.660   1.973  63.812  1.00  0.00    -0.059 C  
ENDBRANCH  40  41
ENDBRANCH  38  40
ENDBRANCH  37  38
ENDBRANCH  35  37
ENDBRANCH  34  35
ENDBRANCH  32  34
ENDBRANCH   8  32
ENDBRANCH   3   4
ENDBRANCH   2   3
TORSDOF 13
ENDMDL
MODEL      168
REMARK 921   NORMALIZED FREE ENERGY PREDICTED BY IDOCK:   -5.51 KCAL/MOL
REMARK 922        TOTAL FREE ENERGY PREDICTED BY IDOCK:  -12.14 KCAL/MOL
REMARK 923 INTER-LIGAND FREE ENERGY PREDICTED BY IDOCK:   -9.77 KCAL/MOL
REMARK 924 INTRA-LIGAND FREE ENERGY PREDICTED BY IDOCK:   -2.37 KCAL/MOL
REMARK 927      BINDING AFFINITY PREDICTED BY RF-SCORE:    0.00 PKD
ROOT
HETATM    1  C   UNL     1      -9.069   2.078  65.165  1.00  0.00    -0.116 C  
HETATM    2  C   UNL     1      -9.131   3.560  64.837  1.00  0.00    -0.137 C  
ENDROOT
BRANCH   2   3
HETATM    3  O   UNL     1      -8.840   4.286  66.035  1.00  0.00    -0.116 OA 
BRANCH   3   4
HETATM    4  C   UNL     1      -8.239   5.458  65.846  1.00  0.00    -0.119 A  
HETATM    5  N   UNL     1      -6.970   5.604  65.544  1.00  0.00    -0.063 NA 
HETATM    6  C   UNL     1      -6.784   6.952  65.451  1.00  0.00    -0.051 A  
HETATM    7  C   UNL     1      -7.985   7.668  65.631  1.00  0.00    -0.116 A  
HETATM    8  C   UNL     1      -7.997   9.073  65.447  1.00  0.00    -0.111 A  
HETATM    9  N   UNL     1      -8.878   6.669  65.997  1.00  0.00    -0.154 NA 
HETATM   10  C   UNL     1      -5.564   9.003  65.094  1.00  0.00    -0.050 A  
HETATM   11  C   UNL     1      -5.571   7.619  65.215  1.00  0.00    -0.033 A  
HETATM   12  C   UNL     1      -6.761   9.704  65.178  1.00  0.00    -0.094 A  
BRANCH   9  13
HETATM   13  C   UNL     1     -10.194   6.769  66.630  1.00  0.00    -0.141 C  
BRANCH  13  14
HETATM   14  C   UNL     1     -10.137   6.685  68.135  1.00  0.00    -0.174 A  
HETATM   15  C   UNL     1     -11.117   6.088  70.265  1.00  0.00    -0.415 A  
HETATM   16  C   UNL     1      -9.842   5.872  70.815  1.00  0.00    -0.229 A  
HETATM   17  C   UNL     1      -8.903   6.815  68.775  1.00  0.00    -0.131 A  
HETATM   18  C   UNL     1     -11.264   6.430  68.914  1.00  0.00    -0.385 A  
HETATM   19  C   UNL     1      -8.754   6.391  70.095  1.00  0.00    -0.139 A  
BRANCH  16  20
HETATM   20  C   UNL     1      -9.620   5.006  72.011  1.00  0.00    -0.200 A  
HETATM   21  C   UNL     1     -10.150   3.693  72.022  1.00  0.00    -0.199 A  
HETATM   22  C   UNL     1      -8.986   5.457  73.209  1.00  0.00    -0.120 A  
HETATM   23  C   UNL     1     -10.054   2.855  73.138  1.00  0.00    -0.204 A  
HETATM   24  C   UNL     1      -8.846   4.567  74.299  1.00  0.00    -0.108 A  
HETATM   25  C   UNL     1      -9.382   3.284  74.270  1.00  0.00    -0.112 A  
BRANCH  22  26
HETATM   26  C   UNL     1      -8.496   6.819  73.458  1.00  0.00    -0.121 A  
HETATM   27  N   UNL     1      -9.205   7.853  73.876  1.00  0.00    -0.360 NA 
HETATM   28  H   UNL     1     -10.200   7.858  74.100  1.00  0.00     0.000 HD 
HETATM   29  N   UNL     1      -8.344   8.920  73.953  1.00  0.00    -0.103 NA 
HETATM   30  N   UNL     1      -7.126   8.572  73.568  1.00  0.00    -0.307 NA 
HETATM   31  N   UNL     1      -7.229   7.283  73.217  1.00  0.00    -0.072 NA 
ENDBRANCH  22  26
ENDBRANCH  16  20
ENDBRANCH  13  14
ENDBRANCH   9  13
BRANCH   8  32
HETATM   32  C   UNL     1      -9.173   9.949  65.664  1.00  0.00    -0.194 C  
HETATM   33  O   UNL     1      -9.271  10.714  66.609  1.00  0.00    -0.160 OA 
BRANCH  32  34
HETATM   34  O   UNL     1      -9.991   9.954  64.581  1.00  0.00    -0.254 OA 
BRANCH  34  35
HETATM   35  C   UNL     1      -9.981  11.212  63.891  1.00  0.00    -0.329 C  
HETATM   36  C   UNL     1      -9.077  11.008  62.674  1.00  0.00    -0.375 C  
BRANCH  35  37
HETATM   37  O   UNL     1     -11.256  11.560  63.349  1.00  0.00    -0.387 OA 
BRANCH  37  38
HETATM   38  C   UNL     1     -11.802  12.707  63.808  1.00  0.00    -0.498 C  
HETATM   39  O   UNL     1     -12.567  13.438  63.202  1.00  0.00    -0.710 OA 
BRANCH  38  40
HETATM   40  O   UNL     1     -11.359  12.868  65.069  1.00  0.00    -0.294 OA 
BRANCH  40  41
HETATM   41  C   UNL     1     -11.295  14.140  65.754  1.00  0.00    -0.317 C  
HETATM   42  C   UNL     1      -9.724  14.166  68.281  1.00  0.00    -0.227 C  
HETATM   43  C   UNL     1     -11.935  13.935  67.129  1.00  0.00    -0.455 C  
HETATM   44  C   UNL     1     -10.961  13.296  68.113  1.00  0.00    -0.278 C  
HETATM   45  C   UNL     1      -9.016  14.433  66.956  1.00  0.00    -0.257 C  
HETATM   46  C   UNL     1      -9.957  14.883  65.834  1.00  0.00    -0.357 C  
ENDBRANCH  40  41
ENDBRANCH  38  40
ENDBRANCH  37  38
ENDBRANCH  35  37
ENDBRANCH  34  35
ENDBRANCH  32  34
ENDBRANCH   8  32
ENDBRANCH   3   4
ENDBRANCH   2   3
TORSDOF 13
ENDMDL
MODEL      169
REMARK 921   NORMALIZED FREE ENERGY PREDICTED BY IDOCK:   -5.43 KCAL/MOL
REMARK 922        TOTAL FREE ENERGY PREDICTED BY IDOCK:  -12.00 KCAL/MOL
REMARK 923 INTER-LIGAND FREE ENERGY PREDICTED BY IDOCK:  -10.23 KCAL/MOL
REMARK 924 INTRA-LIGAND FREE ENERGY PREDICTED BY IDOCK:   -1.78 KCAL/MOL
REMARK 927      BINDING AFFINITY PREDICTED BY RF-SCORE:    0.00 PKD
ROOT
HETATM    1  C   UNL     1     -11.648  13.951  64.439  1.00  0.00    -0.401 C  
HETATM    2  C   UNL     1     -11.764  12.800  63.456  1.00  0.00    -0.530 C  
ENDROOT
BRANCH   2   3
HETATM    3  O   UNL     1     -11.746  11.581  64.205  1.00  0.00    -0.229 OA 
BRANCH   3   4
HETATM    4  C   UNL     1     -10.559  10.985  64.274  1.00  0.00    -0.331 A  
HETATM    5  N   UNL     1      -9.672  10.979  63.306  1.00  0.00    -0.327 NA 
HETATM    6  C   UNL     1      -8.622  10.258  63.797  1.00  0.00    -0.187 A  
HETATM    7  C   UNL     1      -8.828   9.860  65.133  1.00  0.00    -0.180 A  
HETATM    8  C   UNL     1      -7.788   9.206  65.838  1.00  0.00    -0.105 A  
HETATM    9  N   UNL     1     -10.141  10.252  65.364  1.00  0.00    -0.298 NA 
HETATM   10  C   UNL     1      -6.447   9.213  63.776  1.00  0.00    -0.089 A  
HETATM   11  C   UNL     1      -7.448   9.908  63.109  1.00  0.00    -0.132 A  
HETATM   12  C   UNL     1      -6.608   8.901  65.120  1.00  0.00    -0.065 A  
BRANCH   9  13
HETATM   13  C   UNL     1     -11.070   9.856  66.423  1.00  0.00     0.502 C  
BRANCH  13  14
HETATM   14  C   UNL     1     -11.004  10.749  67.636  1.00  0.00    -0.365 A  
HETATM   15  C   UNL     1     -10.841  12.939  68.651  1.00  0.00    -0.288 A  
HETATM   16  C   UNL     1     -11.560  12.496  69.774  1.00  0.00    -0.291 A  
HETATM   17  C   UNL     1     -11.391  10.238  68.876  1.00  0.00    -0.230 A  
HETATM   18  C   UNL     1     -10.620  12.087  67.562  1.00  0.00    -0.250 A  
HETATM   19  C   UNL     1     -11.687  11.106  69.927  1.00  0.00    -0.433 A  
BRANCH  16  20
HETATM   20  C   UNL     1     -12.293  13.431  70.679  1.00  0.00    -0.423 A  
HETATM   21  C   UNL     1     -13.276  12.914  71.558  1.00  0.00    -0.346 A  
HETATM   22  C   UNL     1     -12.141  14.850  70.644  1.00  0.00    -0.366 A  
HETATM   23  C   UNL     1     -14.059  13.737  72.373  1.00  0.00    -0.593 A  
HETATM   24  C   UNL     1     -12.900  15.654  71.525  1.00  0.00    -0.538 A  
HETATM   25  C   UNL     1     -13.857  15.107  72.373  1.00  0.00    -0.617 A  
BRANCH  22  26
HETATM   26  C   UNL     1     -11.285  15.597  69.712  1.00  0.00    -0.321 A  
HETATM   27  N   UNL     1     -10.014  15.916  69.884  1.00  0.00    -0.221 NA 
HETATM   28  H   UNL     1      -9.431  15.682  70.687  1.00  0.00     0.000 HD 
HETATM   29  N   UNL     1      -9.629  16.623  68.771  1.00  0.00    -0.246 NA 
HETATM   30  N   UNL     1     -10.640  16.768  67.930  1.00  0.00    -0.340 NA 
HETATM   31  N   UNL     1     -11.679  16.173  68.532  1.00  0.00    -0.281 NA 
ENDBRANCH  22  26
ENDBRANCH  16  20
ENDBRANCH  13  14
ENDBRANCH   9  13
BRANCH   8  32
HETATM   32  C   UNL     1      -7.895   8.684  67.221  1.00  0.00    -0.097 C  
HETATM   33  O   UNL     1      -8.102   9.394  68.190  1.00  0.00    -0.108 OA 
BRANCH  32  34
HETATM   34  O   UNL     1      -7.961   7.328  67.232  1.00  0.00    -0.108 OA 
BRANCH  34  35
HETATM   35  C   UNL     1      -9.289   6.841  66.989  1.00  0.00    -0.143 C  
HETATM   36  C   UNL     1      -9.159   5.320  66.892  1.00  0.00    -0.113 C  
BRANCH  35  37
HETATM   37  O   UNL     1     -10.173   7.066  68.088  1.00  0.00    -0.166 OA 
BRANCH  37  38
HETATM   38  C   UNL     1     -10.017   6.247  69.152  1.00  0.00    -0.150 C  
HETATM   39  O   UNL     1     -10.623   5.211  69.363  1.00  0.00    -0.212 OA 
BRANCH  38  40
HETATM   40  O   UNL     1      -9.046   6.786  69.913  1.00  0.00    -0.144 OA 
BRANCH  40  41
HETATM   41  C   UNL     1      -8.039   6.019  70.612  1.00  0.00    -0.116 C  
HETATM   42  C   UNL     1      -6.368   7.544  72.546  1.00  0.00    -0.051 C  
HETATM   43  C   UNL     1      -6.684   6.625  70.238  1.00  0.00    -0.053 C  
HETATM   44  C   UNL     1      -6.379   7.873  71.060  1.00  0.00    -0.037 C  
HETATM   45  C   UNL     1      -7.682   6.927  73.015  1.00  0.00    -0.091 C  
HETATM   46  C   UNL     1      -8.182   5.789  72.120  1.00  0.00    -0.112 C  
ENDBRANCH  40  41
ENDBRANCH  38  40
ENDBRANCH  37  38
ENDBRANCH  35  37
ENDBRANCH  34  35
ENDBRANCH  32  34
ENDBRANCH   8  32
ENDBRANCH   3   4
ENDBRANCH   2   3
TORSDOF 13
ENDMDL
MODEL      170
REMARK 921   NORMALIZED FREE ENERGY PREDICTED BY IDOCK:   -5.41 KCAL/MOL
REMARK 922        TOTAL FREE ENERGY PREDICTED BY IDOCK:  -11.97 KCAL/MOL
REMARK 923 INTER-LIGAND FREE ENERGY PREDICTED BY IDOCK:   -8.82 KCAL/MOL
REMARK 924 INTRA-LIGAND FREE ENERGY PREDICTED BY IDOCK:   -3.14 KCAL/MOL
REMARK 927      BINDING AFFINITY PREDICTED BY RF-SCORE:    0.00 PKD
ROOT
HETATM    1  C   UNL     1     -12.250  14.425  64.730  1.00  0.00    -0.458 C  
HETATM    2  C   UNL     1     -11.930  13.820  66.085  1.00  0.00    -0.418 C  
ENDROOT
BRANCH   2   3
HETATM    3  O   UNL     1     -11.245  12.583  65.862  1.00  0.00    -0.294 OA 
BRANCH   3   4
HETATM    4  C   UNL     1     -10.128  12.429  66.568  1.00  0.00    -0.232 A  
HETATM    5  N   UNL     1      -9.073  13.204  66.472  1.00  0.00    -0.179 NA 
HETATM    6  C   UNL     1      -8.174  12.684  67.358  1.00  0.00    -0.184 A  
HETATM    7  C   UNL     1      -8.705  11.596  68.078  1.00  0.00    -0.157 A  
HETATM    8  C   UNL     1      -7.949  11.012  69.124  1.00  0.00    -0.081 A  
HETATM    9  N   UNL     1      -9.930  11.392  67.454  1.00  0.00    -0.185 NA 
HETATM   10  C   UNL     1      -6.088  12.516  68.557  1.00  0.00    -0.061 A  
HETATM   11  C   UNL     1      -6.857  13.124  67.574  1.00  0.00    -0.156 A  
HETATM   12  C   UNL     1      -6.640  11.504  69.333  1.00  0.00    -0.117 A  
BRANCH   9  13
HETATM   13  C   UNL     1     -10.827  10.236  67.497  1.00  0.00    -0.298 C  
BRANCH  13  14
HETATM   14  C   UNL     1     -10.255   9.015  66.822  1.00  0.00    -0.341 A  
HETATM   15  C   UNL     1      -8.526   7.917  65.534  1.00  0.00    -0.153 A  
HETATM   16  C   UNL     1      -8.818   6.688  66.149  1.00  0.00    -0.160 A  
HETATM   17  C   UNL     1     -10.763   7.758  67.152  1.00  0.00    -0.337 A  
HETATM   18  C   UNL     1      -9.198   9.086  65.916  1.00  0.00    -0.290 A  
HETATM   19  C   UNL     1     -10.039   6.608  66.837  1.00  0.00    -0.258 A  
BRANCH  16  20
HETATM   20  C   UNL     1      -7.832   5.569  66.217  1.00  0.00    -0.100 A  
HETATM   21  C   UNL     1      -6.701   5.696  67.059  1.00  0.00    -0.062 A  
HETATM   22  C   UNL     1      -7.898   4.403  65.396  1.00  0.00    -0.090 A  
HETATM   23  C   UNL     1      -5.693   4.727  67.112  1.00  0.00    -0.021 A  
HETATM   24  C   UNL     1      -6.900   3.409  65.516  1.00  0.00    -0.052 A  
HETATM   25  C   UNL     1      -5.803   3.572  66.356  1.00  0.00    -0.023 A  
BRANCH  22  26
HETATM   26  C   UNL     1      -8.905   4.143  64.358  1.00  0.00    -0.138 A  
HETATM   27  N   UNL     1      -8.834   4.481  63.082  1.00  0.00    -0.126 NA 
HETATM   28  H   UNL     1      -8.063   4.965  62.623  1.00  0.00     0.000 HD 
HETATM   29  N   UNL     1      -9.999   4.053  62.493  1.00  0.00    -0.153 NA 
HETATM   30  N   UNL     1     -10.796   3.482  63.382  1.00  0.00    -0.224 NA 
HETATM   31  N   UNL     1     -10.139   3.578  64.547  1.00  0.00    -0.175 NA 
ENDBRANCH  22  26
ENDBRANCH  16  20
ENDBRANCH  13  14
ENDBRANCH   9  13
BRANCH   8  32
HETATM   32  C   UNL     1      -8.363   9.829  69.916  1.00  0.00    -0.184 C  
HETATM   33  O   UNL     1      -9.493   9.677  70.348  1.00  0.00    -0.252 OA 
BRANCH  32  34
HETATM   34  O   UNL     1      -7.409   8.864  69.895  1.00  0.00    -0.049 OA 
BRANCH  34  35
HETATM   35  C   UNL     1      -7.426   8.050  71.077  1.00  0.00    -0.071 C  
HETATM   36  C   UNL     1      -6.033   7.426  71.168  1.00  0.00    -0.036 C  
BRANCH  35  37
HETATM   37  O   UNL     1      -7.568   8.813  72.276  1.00  0.00    -0.321 OA 
BRANCH  37  38
HETATM   38  C   UNL     1      -8.231   8.211  73.288  1.00  0.00    -0.199 C  
HETATM   39  O   UNL     1      -7.734   7.685  74.268  1.00  0.00    -0.131 OA 
BRANCH  38  40
HETATM   40  O   UNL     1      -9.544   8.330  73.012  1.00  0.00    -0.272 OA 
BRANCH  40  41
HETATM   41  C   UNL     1     -10.479   7.228  73.009  1.00  0.00    -0.310 C  
HETATM   42  C   UNL     1     -11.944   6.784  70.457  1.00  0.00    -0.385 C  
HETATM   43  C   UNL     1     -11.863   7.822  72.735  1.00  0.00    -0.247 C  
HETATM   44  C   UNL     1     -12.080   8.078  71.248  1.00  0.00    -0.314 C  
HETATM   45  C   UNL     1     -10.592   6.111  70.672  1.00  0.00    -0.307 C  
HETATM   46  C   UNL     1     -10.187   5.997  72.144  1.00  0.00    -0.222 C  
ENDBRANCH  40  41
ENDBRANCH  38  40
ENDBRANCH  37  38
ENDBRANCH  35  37
ENDBRANCH  34  35
ENDBRANCH  32  34
ENDBRANCH   8  32
ENDBRANCH   3   4
ENDBRANCH   2   3
TORSDOF 13
ENDMDL
MODEL      171
REMARK 921   NORMALIZED FREE ENERGY PREDICTED BY IDOCK:   -5.39 KCAL/MOL
REMARK 922        TOTAL FREE ENERGY PREDICTED BY IDOCK:  -11.94 KCAL/MOL
REMARK 923 INTER-LIGAND FREE ENERGY PREDICTED BY IDOCK:   -9.67 KCAL/MOL
REMARK 924 INTRA-LIGAND FREE ENERGY PREDICTED BY IDOCK:   -2.27 KCAL/MOL
REMARK 927      BINDING AFFINITY PREDICTED BY RF-SCORE:    0.00 PKD
ROOT
HETATM    1  C   UNL     1     -12.207  13.259  63.736  1.00  0.00    -0.508 C  
HETATM    2  C   UNL     1     -12.297  13.214  65.251  1.00  0.00    -0.481 C  
ENDROOT
BRANCH   2   3
HETATM    3  O   UNL     1     -12.106  11.856  65.660  1.00  0.00    -0.439 OA 
BRANCH   3   4
HETATM    4  C   UNL     1     -10.910  11.348  65.370  1.00  0.00    -0.229 A  
HETATM    5  N   UNL     1     -10.646  10.629  64.304  1.00  0.00    -0.183 NA 
HETATM    6  C   UNL     1      -9.321  10.318  64.411  1.00  0.00    -0.277 A  
HETATM    7  C   UNL     1      -8.723  10.918  65.537  1.00  0.00    -0.171 A  
HETATM    8  C   UNL     1      -7.325  10.799  65.734  1.00  0.00    -0.061 A  
HETATM    9  N   UNL     1      -9.812  11.480  66.192  1.00  0.00    -0.213 NA 
HETATM   10  C   UNL     1      -7.218   9.328  63.766  1.00  0.00    -0.095 A  
HETATM   11  C   UNL     1      -8.578   9.499  63.544  1.00  0.00    -0.221 A  
HETATM   12  C   UNL     1      -6.606   9.993  64.822  1.00  0.00    -0.127 A  
BRANCH   9  13
HETATM   13  C   UNL     1      -9.936  11.963  67.567  1.00  0.00    -0.187 C  
BRANCH  13  14
HETATM   14  C   UNL     1      -9.678  13.443  67.703  1.00  0.00    -0.222 A  
HETATM   15  C   UNL     1      -9.550  15.461  69.032  1.00  0.00    -0.236 A  
HETATM   16  C   UNL     1      -8.572  15.990  68.173  1.00  0.00    -0.171 A  
HETATM   17  C   UNL     1      -8.992  14.108  66.685  1.00  0.00    -0.193 A  
HETATM   18  C   UNL     1     -10.052  14.168  68.833  1.00  0.00    -0.155 A  
HETATM   19  C   UNL     1      -8.426  15.359  66.927  1.00  0.00    -0.287 A  
BRANCH  16  20
HETATM   20  C   UNL     1      -7.621  17.058  68.600  1.00  0.00    -0.238 A  
HETATM   21  C   UNL     1      -6.509  16.712  69.406  1.00  0.00    -0.220 A  
HETATM   22  C   UNL     1      -7.817  18.447  68.334  1.00  0.00    -0.323 A  
HETATM   23  C   UNL     1      -5.623  17.669  69.912  1.00  0.00    -0.238 A  
HETATM   24  C   UNL     1      -6.871  19.387  68.804  1.00  0.00    -0.354 A  
HETATM   25  C   UNL     1      -5.792  19.006  69.593  1.00  0.00    -0.272 A  
BRANCH  22  26
HETATM   26  C   UNL     1      -8.975  19.031  67.643  1.00  0.00    -0.289 A  
HETATM   27  N   UNL     1      -9.059  19.344  66.361  1.00  0.00    -0.349 NA 
HETATM   28  H   UNL     1      -8.334  19.216  65.655  1.00  0.00     0.000 HD 
HETATM   29  N   UNL     1     -10.311  19.872  66.163  1.00  0.00    -0.489 NA 
HETATM   30  N   UNL     1     -10.990  19.916  67.298  1.00  0.00    -0.275 NA 
HETATM   31  N   UNL     1     -10.147  19.438  68.224  1.00  0.00    -0.411 NA 
ENDBRANCH  22  26
ENDBRANCH  16  20
ENDBRANCH  13  14
ENDBRANCH   9  13
BRANCH   8  32
HETATM   32  C   UNL     1      -6.583  11.327  66.904  1.00  0.00    -0.130 C  
HETATM   33  O   UNL     1      -5.765  12.228  66.825  1.00  0.00    -0.307 OA 
BRANCH  32  34
HETATM   34  O   UNL     1      -7.091  10.847  68.068  1.00  0.00    -0.075 OA 
BRANCH  34  35
HETATM   35  C   UNL     1      -6.243  11.125  69.192  1.00  0.00    -0.055 C  
HETATM   36  C   UNL     1      -6.689  12.491  69.716  1.00  0.00     0.146 C  
BRANCH  35  37
HETATM   37  O   UNL     1      -6.453  10.226  70.282  1.00  0.00    -0.107 OA 
BRANCH  37  38
HETATM   38  C   UNL     1      -6.246   8.917  70.020  1.00  0.00    -0.037 C  
HETATM   39  O   UNL     1      -5.645   8.457  69.065  1.00  0.00    -0.037 OA 
BRANCH  38  40
HETATM   40  O   UNL     1      -6.808   8.228  71.030  1.00  0.00    -0.041 OA 
BRANCH  40  41
HETATM   41  C   UNL     1      -8.204   7.853  71.083  1.00  0.00    -0.107 C  
HETATM   42  C   UNL     1      -9.080   6.490  73.580  1.00  0.00    -0.139 C  
HETATM   43  C   UNL     1      -8.248   6.330  71.223  1.00  0.00    -0.122 C  
HETATM   44  C   UNL     1      -8.021   5.891  72.665  1.00  0.00    -0.105 C  
HETATM   45  C   UNL     1      -9.117   8.013  73.505  1.00  0.00    -0.327 C  
HETATM   46  C   UNL     1      -9.134   8.561  72.074  1.00  0.00    -0.317 C  
ENDBRANCH  40  41
ENDBRANCH  38  40
ENDBRANCH  37  38
ENDBRANCH  35  37
ENDBRANCH  34  35
ENDBRANCH  32  34
ENDBRANCH   8  32
ENDBRANCH   3   4
ENDBRANCH   2   3
TORSDOF 13
ENDMDL
MODEL      172
REMARK 921   NORMALIZED FREE ENERGY PREDICTED BY IDOCK:   -5.37 KCAL/MOL
REMARK 922        TOTAL FREE ENERGY PREDICTED BY IDOCK:  -11.91 KCAL/MOL
REMARK 923 INTER-LIGAND FREE ENERGY PREDICTED BY IDOCK:   -8.45 KCAL/MOL
REMARK 924 INTRA-LIGAND FREE ENERGY PREDICTED BY IDOCK:   -3.46 KCAL/MOL
REMARK 927      BINDING AFFINITY PREDICTED BY RF-SCORE:    0.00 PKD
ROOT
HETATM    1  C   UNL     1      -6.040  11.738  70.256  1.00  0.00    -0.116 C  
HETATM    2  C   UNL     1      -6.462  10.577  69.373  1.00  0.00    -0.062 C  
ENDROOT
BRANCH   2   3
HETATM    3  O   UNL     1      -6.050   9.367  70.016  1.00  0.00    -0.036 OA 
BRANCH   3   4
HETATM    4  C   UNL     1      -6.997   8.765  70.732  1.00  0.00    -0.066 A  
HETATM    5  N   UNL     1      -7.319   9.088  71.962  1.00  0.00    -0.337 NA 
HETATM    6  C   UNL     1      -8.317   8.222  72.303  1.00  0.00    -0.169 A  
HETATM    7  C   UNL     1      -8.677   7.379  71.233  1.00  0.00    -0.126 A  
HETATM    8  C   UNL     1      -9.779   6.499  71.374  1.00  0.00    -0.184 A  
HETATM    9  N   UNL     1      -7.721   7.685  70.273  1.00  0.00    -0.089 NA 
HETATM   10  C   UNL     1      -9.992   7.215  73.718  1.00  0.00    -0.373 A  
HETATM   11  C   UNL     1      -8.950   8.119  73.553  1.00  0.00    -0.295 A  
HETATM   12  C   UNL     1     -10.412   6.448  72.638  1.00  0.00    -0.234 A  
BRANCH   9  13
HETATM   13  C   UNL     1      -7.329   6.954  69.068  1.00  0.00    -0.093 C  
BRANCH  13  14
HETATM   14  C   UNL     1      -7.987   7.476  67.815  1.00  0.00    -0.118 A  
HETATM   15  C   UNL     1      -9.960   8.010  66.520  1.00  0.00    -0.283 A  
HETATM   16  C   UNL     1      -9.269   9.034  65.850  1.00  0.00    -0.290 A  
HETATM   17  C   UNL     1      -7.232   8.231  66.916  1.00  0.00    -0.083 A  
HETATM   18  C   UNL     1      -9.339   7.279  67.542  1.00  0.00    -0.144 A  
HETATM   19  C   UNL     1      -7.869   9.018  65.958  1.00  0.00    -0.102 A  
BRANCH  16  20
HETATM   20  C   UNL     1      -9.969  10.174  65.188  1.00  0.00    -0.379 A  
HETATM   21  C   UNL     1      -9.760  10.405  63.806  1.00  0.00    -0.351 A  
HETATM   22  C   UNL     1     -10.767  11.129  65.888  1.00  0.00    -0.261 A  
HETATM   23  C   UNL     1     -10.314  11.500  63.137  1.00  0.00    -0.376 A  
HETATM   24  C   UNL     1     -11.368  12.191  65.175  1.00  0.00    -0.379 A  
HETATM   25  C   UNL     1     -11.137  12.383  63.817  1.00  0.00    -0.506 A  
BRANCH  22  26
HETATM   26  C   UNL     1     -10.992  11.157  67.340  1.00  0.00    -0.290 A  
HETATM   27  N   UNL     1     -12.136  10.951  67.969  1.00  0.00    -0.704 NA 
HETATM   28  H   UNL     1     -13.035  10.731  67.541  1.00  0.00     0.000 HD 
HETATM   29  N   UNL     1     -11.881  11.090  69.311  1.00  0.00    -0.321 NA 
HETATM   30  N   UNL     1     -10.611  11.401  69.521  1.00  0.00    -0.063 NA 
HETATM   31  N   UNL     1     -10.070  11.488  68.298  1.00  0.00    -0.193 NA 
ENDBRANCH  22  26
ENDBRANCH  16  20
ENDBRANCH  13  14
ENDBRANCH   9  13
BRANCH   8  32
HETATM   32  C   UNL     1     -10.224   5.521  70.353  1.00  0.00    -0.251 C  
HETATM   33  O   UNL     1     -11.267   5.630  69.732  1.00  0.00    -0.274 OA 
BRANCH  32  34
HETATM   34  O   UNL     1      -9.234   4.642  70.048  1.00  0.00    -0.105 OA 
BRANCH  34  35
HETATM   35  C   UNL     1      -9.730   3.458  69.407  1.00  0.00     0.051 C  
HETATM   36  C   UNL     1      -9.330   3.588  67.936  1.00  0.00    -0.238 C  
BRANCH  35  37
HETATM   37  O   UNL     1      -9.086   2.268  69.861  1.00  0.00    -0.086 OA 
BRANCH  37  38
HETATM   38  C   UNL     1      -9.239   1.973  71.171  1.00  0.00    -0.105 C  
HETATM   39  O   UNL     1     -10.252   1.559  71.706  1.00  0.00    -0.152 OA 
BRANCH  38  40
HETATM   40  O   UNL     1      -8.049   2.201  71.758  1.00  0.00    -0.047 OA 
BRANCH  40  41
HETATM   41  C   UNL     1      -7.887   2.661  73.119  1.00  0.00    -0.051 C  
HETATM   42  C   UNL     1      -5.281   3.955  73.743  1.00  0.00    -0.003 C  
HETATM   43  C   UNL     1      -6.702   1.893  73.708  1.00  0.00    -0.022 C  
HETATM   44  C   UNL     1      -5.370   2.506  73.287  1.00  0.00     0.000 C  
HETATM   45  C   UNL     1      -6.430   4.804  73.208  1.00  0.00    -0.055 C  
HETATM   46  C   UNL     1      -7.809   4.166  73.398  1.00  0.00    -0.085 C  
ENDBRANCH  40  41
ENDBRANCH  38  40
ENDBRANCH  37  38
ENDBRANCH  35  37
ENDBRANCH  34  35
ENDBRANCH  32  34
ENDBRANCH   8  32
ENDBRANCH   3   4
ENDBRANCH   2   3
TORSDOF 13
ENDMDL
MODEL      173
REMARK 921   NORMALIZED FREE ENERGY PREDICTED BY IDOCK:   -5.36 KCAL/MOL
REMARK 922        TOTAL FREE ENERGY PREDICTED BY IDOCK:  -11.89 KCAL/MOL
REMARK 923 INTER-LIGAND FREE ENERGY PREDICTED BY IDOCK:  -11.50 KCAL/MOL
REMARK 924 INTRA-LIGAND FREE ENERGY PREDICTED BY IDOCK:   -0.39 KCAL/MOL
REMARK 927      BINDING AFFINITY PREDICTED BY RF-SCORE:    0.00 PKD
ROOT
HETATM    1  C   UNL     1      -5.497   8.230  65.425  1.00  0.00    -0.035 C  
HETATM    2  C   UNL     1      -6.333   8.747  66.582  1.00  0.00    -0.059 C  
ENDROOT
BRANCH   2   3
HETATM    3  O   UNL     1      -7.551   7.996  66.612  1.00  0.00    -0.090 OA 
BRANCH   3   4
HETATM    4  C   UNL     1      -8.309   8.203  67.686  1.00  0.00    -0.127 A  
HETATM    5  N   UNL     1      -8.208   7.531  68.809  1.00  0.00    -0.127 NA 
HETATM    6  C   UNL     1      -9.167   8.061  69.622  1.00  0.00    -0.152 A  
HETATM    7  C   UNL     1      -9.841   9.140  69.016  1.00  0.00    -0.174 A  
HETATM    8  C   UNL     1     -10.786   9.885  69.764  1.00  0.00    -0.300 A  
HETATM    9  N   UNL     1      -9.334   9.124  67.723  1.00  0.00    -0.136 NA 
HETATM   10  C   UNL     1     -10.475   8.317  71.634  1.00  0.00    -0.303 A  
HETATM   11  C   UNL     1      -9.505   7.629  70.916  1.00  0.00    -0.166 A  
HETATM   12  C   UNL     1     -11.075   9.439  71.075  1.00  0.00    -0.414 A  
BRANCH   9  13
HETATM   13  C   UNL     1      -9.837   9.761  66.506  1.00  0.00    -0.225 C  
BRANCH  13  14
HETATM   14  C   UNL     1      -9.385  11.192  66.354  1.00  0.00    -0.207 A  
HETATM   15  C   UNL     1      -9.705  13.441  65.522  1.00  0.00    -0.065 A  
HETATM   16  C   UNL     1      -8.975  13.967  66.602  1.00  0.00    -0.177 A  
HETATM   17  C   UNL     1      -8.386  11.681  67.198  1.00  0.00    -0.164 A  
HETATM   18  C   UNL     1      -9.962  12.067  65.435  1.00  0.00    -0.279 A  
HETATM   19  C   UNL     1      -8.200  13.056  67.336  1.00  0.00    -0.183 A  
BRANCH  16  20
HETATM   20  C   UNL     1      -9.124  15.381  67.059  1.00  0.00    -0.247 A  
HETATM   21  C   UNL     1      -8.385  15.825  68.183  1.00  0.00    -0.160 A  
HETATM   22  C   UNL     1     -10.057  16.303  66.495  1.00  0.00    -0.301 A  
HETATM   23  C   UNL     1      -8.534  17.108  68.719  1.00  0.00    -0.225 A  
HETATM   24  C   UNL     1     -10.141  17.614  67.016  1.00  0.00    -0.330 A  
HETATM   25  C   UNL     1      -9.397  18.011  68.122  1.00  0.00    -0.287 A  
BRANCH  22  26
HETATM   26  C   UNL     1     -11.016  16.002  65.424  1.00  0.00    -0.253 A  
HETATM   27  N   UNL     1     -11.161  16.654  64.283  1.00  0.00    -1.380 NA 
HETATM   28  H   UNL     1     -10.620  17.460  63.970  1.00  0.00     0.000 HD 
HETATM   29  N   UNL     1     -12.181  16.037  63.600  1.00  0.00    -0.441 NA 
HETATM   30  N   UNL     1     -12.683  15.036  64.306  1.00  0.00    -0.584 NA 
HETATM   31  N   UNL     1     -11.994  15.042  65.455  1.00  0.00    -0.123 NA 
ENDBRANCH  22  26
ENDBRANCH  16  20
ENDBRANCH  13  14
ENDBRANCH   9  13
BRANCH   8  32
HETATM   32  C   UNL     1     -11.606  10.999  69.232  1.00  0.00    -0.314 C  
HETATM   33  O   UNL     1     -12.303  10.900  68.236  1.00  0.00    -0.400 OA 
BRANCH  32  34
HETATM   34  O   UNL     1     -11.653  12.037  70.105  1.00  0.00    -0.261 OA 
BRANCH  34  35
HETATM   35  C   UNL     1     -11.177  13.262  69.528  1.00  0.00    -0.097 C  
HETATM   36  C   UNL     1     -12.149  13.589  68.394  1.00  0.00    -0.293 C  
BRANCH  35  37
HETATM   37  O   UNL     1     -11.268  14.371  70.423  1.00  0.00    -0.155 OA 
BRANCH  37  38
HETATM   38  C   UNL     1     -12.258  15.257  70.172  1.00  0.00    -0.364 C  
HETATM   39  O   UNL     1     -12.125  16.383  69.726  1.00  0.00     0.084 OA 
BRANCH  38  40
HETATM   40  O   UNL     1     -13.413  14.641  70.483  1.00  0.00    -0.176 OA 
BRANCH  40  41
HETATM   41  C   UNL     1     -14.075  14.751  71.764  1.00  0.00    -0.509 C  
HETATM   42  C   UNL     1     -12.285  15.101  74.116  1.00  0.00    -0.686 C  
HETATM   43  C   UNL     1     -13.589  13.576  72.616  1.00  0.00    -0.572 C  
HETATM   44  C   UNL     1     -12.225  13.859  73.237  1.00  0.00     0.755 C  
HETATM   45  C   UNL     1     -12.767  16.330  73.352  1.00  0.00    -0.566 C  
HETATM   46  C   UNL     1     -14.030  16.083  72.521  1.00  0.00    -0.235 C  
ENDBRANCH  40  41
ENDBRANCH  38  40
ENDBRANCH  37  38
ENDBRANCH  35  37
ENDBRANCH  34  35
ENDBRANCH  32  34
ENDBRANCH   8  32
ENDBRANCH   3   4
ENDBRANCH   2   3
TORSDOF 13
ENDMDL
MODEL      174
REMARK 921   NORMALIZED FREE ENERGY PREDICTED BY IDOCK:   -5.35 KCAL/MOL
REMARK 922        TOTAL FREE ENERGY PREDICTED BY IDOCK:  -11.86 KCAL/MOL
REMARK 923 INTER-LIGAND FREE ENERGY PREDICTED BY IDOCK:   -9.96 KCAL/MOL
REMARK 924 INTRA-LIGAND FREE ENERGY PREDICTED BY IDOCK:   -1.90 KCAL/MOL
REMARK 927      BINDING AFFINITY PREDICTED BY RF-SCORE:    0.00 PKD
ROOT
HETATM    1  C   UNL     1     -10.436   7.027  73.811  1.00  0.00    -0.392 C  
HETATM    2  C   UNL     1      -9.134   7.726  73.458  1.00  0.00    -0.283 C  
ENDROOT
BRANCH   2   3
HETATM    3  O   UNL     1      -8.767   7.323  72.135  1.00  0.00    -0.119 OA 
BRANCH   3   4
HETATM    4  C   UNL     1      -8.085   8.233  71.444  1.00  0.00    -0.125 A  
HETATM    5  N   UNL     1      -7.051   8.897  71.905  1.00  0.00    -0.290 NA 
HETATM    6  C   UNL     1      -6.674   9.715  70.880  1.00  0.00    -0.059 A  
HETATM    7  C   UNL     1      -7.449   9.508  69.721  1.00  0.00    -0.098 A  
HETATM    8  C   UNL     1      -7.115  10.188  68.524  1.00  0.00    -0.074 A  
HETATM    9  N   UNL     1      -8.423   8.623  70.166  1.00  0.00    -0.129 NA 
HETATM   10  C   UNL     1      -5.357  11.393  69.752  1.00  0.00    -0.059 A  
HETATM   11  C   UNL     1      -5.651  10.678  70.906  1.00  0.00    -0.098 A  
HETATM   12  C   UNL     1      -6.057  11.125  68.582  1.00  0.00    -0.043 A  
BRANCH   9  13
HETATM   13  C   UNL     1      -9.708   8.259  69.567  1.00  0.00    -0.174 C  
BRANCH  13  14
HETATM   14  C   UNL     1     -10.799   9.261  69.849  1.00  0.00    -0.252 A  
HETATM   15  C   UNL     1     -12.162  10.538  71.387  1.00  0.00    -0.429 A  
HETATM   16  C   UNL     1     -12.301  11.569  70.442  1.00  0.00    -0.390 A  
HETATM   17  C   UNL     1     -11.231  10.101  68.820  1.00  0.00    -0.217 A  
HETATM   18  C   UNL     1     -11.363   9.421  71.114  1.00  0.00    -0.422 A  
HETATM   19  C   UNL     1     -11.956  11.254  69.118  1.00  0.00    -0.405 A  
BRANCH  16  20
HETATM   20  C   UNL     1     -12.643  12.970  70.827  1.00  0.00    -0.321 A  
HETATM   21  C   UNL     1     -13.454  13.196  71.965  1.00  0.00    -0.598 A  
HETATM   22  C   UNL     1     -12.286  14.115  70.051  1.00  0.00    -0.418 A  
HETATM   23  C   UNL     1     -13.883  14.474  72.338  1.00  0.00    -0.587 A  
HETATM   24  C   UNL     1     -12.679  15.401  70.486  1.00  0.00    -0.455 A  
HETATM   25  C   UNL     1     -13.478  15.581  71.610  1.00  0.00    -0.584 A  
BRANCH  22  26
HETATM   26  C   UNL     1     -11.573  14.090  68.766  1.00  0.00    -0.331 A  
HETATM   27  N   UNL     1     -10.263  14.080  68.586  1.00  0.00    -0.239 NA 
HETATM   28  H   UNL     1      -9.549  14.078  69.314  1.00  0.00     0.000 HD 
HETATM   29  N   UNL     1     -10.050  14.073  67.229  1.00  0.00    -0.247 NA 
HETATM   30  N   UNL     1     -11.198  14.103  66.571  1.00  0.00    -0.322 NA 
HETATM   31  N   UNL     1     -12.141  14.160  67.521  1.00  0.00    -0.380 NA 
ENDBRANCH  22  26
ENDBRANCH  16  20
ENDBRANCH  13  14
ENDBRANCH   9  13
BRANCH   8  32
HETATM   32  C   UNL     1      -7.881  10.107  67.257  1.00  0.00    -0.103 C  
HETATM   33  O   UNL     1      -8.691  10.950  66.911  1.00  0.00    -0.139 OA 
BRANCH  32  34
HETATM   34  O   UNL     1      -7.403   9.122  66.455  1.00  0.00    -0.090 OA 
BRANCH  34  35
HETATM   35  C   UNL     1      -8.288   8.825  65.365  1.00  0.00    -0.151 C  
HETATM   36  C   UNL     1      -7.615   9.401  64.118  1.00  0.00    -0.115 C  
BRANCH  35  37
HETATM   37  O   UNL     1      -8.404   7.425  65.108  1.00  0.00    -0.135 OA 
BRANCH  37  38
HETATM   38  C   UNL     1      -9.142   6.718  65.992  1.00  0.00    -0.072 C  
HETATM   39  O   UNL     1      -9.643   7.143  67.018  1.00  0.00    -0.144 OA 
BRANCH  38  40
HETATM   40  O   UNL     1      -9.235   5.467  65.504  1.00  0.00    -0.138 OA 
BRANCH  40  41
HETATM   41  C   UNL     1      -8.268   4.422  65.752  1.00  0.00    -0.109 C  
HETATM   42  C   UNL     1      -5.605   4.798  64.477  1.00  0.00    -0.014 C  
HETATM   43  C   UNL     1      -7.909   3.819  64.392  1.00  0.00    -0.085 C  
HETATM   44  C   UNL     1      -6.880   4.669  63.654  1.00  0.00    -0.043 C  
HETATM   45  C   UNL     1      -5.864   5.388  65.860  1.00  0.00    -0.018 C  
HETATM   46  C   UNL     1      -7.031   4.730  66.602  1.00  0.00    -0.067 C  
ENDBRANCH  40  41
ENDBRANCH  38  40
ENDBRANCH  37  38
ENDBRANCH  35  37
ENDBRANCH  34  35
ENDBRANCH  32  34
ENDBRANCH   8  32
ENDBRANCH   3   4
ENDBRANCH   2   3
TORSDOF 13
ENDMDL
MODEL      175
REMARK 921   NORMALIZED FREE ENERGY PREDICTED BY IDOCK:   -5.33 KCAL/MOL
REMARK 922        TOTAL FREE ENERGY PREDICTED BY IDOCK:  -11.84 KCAL/MOL
REMARK 923 INTER-LIGAND FREE ENERGY PREDICTED BY IDOCK:  -11.75 KCAL/MOL
REMARK 924 INTRA-LIGAND FREE ENERGY PREDICTED BY IDOCK:   -0.08 KCAL/MOL
REMARK 927      BINDING AFFINITY PREDICTED BY RF-SCORE:    0.00 PKD
ROOT
HETATM    1  C   UNL     1     -12.383   8.580  71.746  1.00  0.00    -0.388 C  
HETATM    2  C   UNL     1     -13.346   9.701  72.098  1.00  0.00    -0.454 C  
ENDROOT
BRANCH   2   3
HETATM    3  O   UNL     1     -13.385  10.608  70.992  1.00  0.00    -0.268 OA 
BRANCH   3   4
HETATM    4  C   UNL     1     -13.117  11.874  71.298  1.00  0.00    -0.133 A  
HETATM    5  N   UNL     1     -13.536  12.483  72.383  1.00  0.00    -0.438 NA 
HETATM    6  C   UNL     1     -13.040  13.751  72.287  1.00  0.00    -0.405 A  
HETATM    7  C   UNL     1     -12.231  13.921  71.147  1.00  0.00    -0.308 A  
HETATM    8  C   UNL     1     -11.538  15.142  70.955  1.00  0.00    -0.390 A  
HETATM    9  N   UNL     1     -12.401  12.717  70.475  1.00  0.00    -0.318 NA 
HETATM   10  C   UNL     1     -12.645  16.033  72.963  1.00  0.00    -0.605 A  
HETATM   11  C   UNL     1     -13.273  14.813  73.177  1.00  0.00    -0.543 A  
HETATM   12  C   UNL     1     -11.772  16.176  71.890  1.00  0.00    -0.575 A  
BRANCH   9  13
HETATM   13  C   UNL     1     -12.103  12.363  69.086  1.00  0.00    -0.146 C  
BRANCH  13  14
HETATM   14  C   UNL     1     -11.090  11.254  68.960  1.00  0.00    -0.301 A  
HETATM   15  C   UNL     1      -9.942   9.318  69.847  1.00  0.00    -0.226 A  
HETATM   16  C   UNL     1      -9.755   8.808  68.550  1.00  0.00    -0.173 A  
HETATM   17  C   UNL     1     -10.596  10.928  67.695  1.00  0.00    -0.263 A  
HETATM   18  C   UNL     1     -10.661  10.502  70.052  1.00  0.00    -0.282 A  
HETATM   19  C   UNL     1      -9.955   9.707  67.490  1.00  0.00    -0.231 A  
BRANCH  16  20
HETATM   20  C   UNL     1      -9.515   7.359  68.284  1.00  0.00    -0.143 A  
HETATM   21  C   UNL     1     -10.609   6.529  67.939  1.00  0.00    -0.313 A  
HETATM   22  C   UNL     1      -8.250   6.720  68.458  1.00  0.00    -0.120 A  
HETATM   23  C   UNL     1     -10.475   5.149  67.757  1.00  0.00    -0.112 A  
HETATM   24  C   UNL     1      -8.129   5.335  68.204  1.00  0.00    -0.095 A  
HETATM   25  C   UNL     1      -9.230   4.553  67.868  1.00  0.00    -0.162 A  
BRANCH  22  26
HETATM   26  C   UNL     1      -7.024   7.366  68.946  1.00  0.00    -0.078 A  
HETATM   27  N   UNL     1      -6.125   8.011  68.223  1.00  0.00    -0.040 NA 
HETATM   28  H   UNL     1      -6.152   8.166  67.215  1.00  0.00     0.000 HD 
HETATM   29  N   UNL     1      -5.147   8.432  69.090  1.00  0.00    -0.027 NA 
HETATM   30  N   UNL     1      -5.411   8.040  70.327  1.00  0.00    -0.023 NA 
HETATM   31  N   UNL     1      -6.550   7.340  70.232  1.00  0.00    -0.046 NA 
ENDBRANCH  22  26
ENDBRANCH  16  20
ENDBRANCH  13  14
ENDBRANCH   9  13
BRANCH   8  32
HETATM   32  C   UNL     1     -10.706  15.472  69.773  1.00  0.00    -0.295 C  
HETATM   33  O   UNL     1      -9.583  15.029  69.601  1.00  0.00    -0.151 OA 
BRANCH  32  34
HETATM   34  O   UNL     1     -11.430  16.125  68.828  1.00  0.00    -0.362 OA 
BRANCH  34  35
HETATM   35  C   UNL     1     -10.613  16.950  67.984  1.00  0.00    -0.367 C  
HETATM   36  C   UNL     1      -9.951  17.966  68.916  1.00  0.00    -0.337 C  
BRANCH  35  37
HETATM   37  O   UNL     1      -9.529  16.235  67.389  1.00  0.00    -0.224 OA 
BRANCH  37  38
HETATM   38  C   UNL     1      -9.463  16.272  66.040  1.00  0.00    -0.334 C  
HETATM   39  O   UNL     1      -9.293  17.263  65.351  1.00  0.00    -0.166 OA 
BRANCH  38  40
HETATM   40  O   UNL     1      -9.594  15.002  65.613  1.00  0.00    -0.333 OA 
BRANCH  40  41
HETATM   41  C   UNL     1     -10.385  14.605  64.469  1.00  0.00     0.144 C  
HETATM   42  C   UNL     1     -12.498  12.578  65.003  1.00  0.00    -0.494 C  
HETATM   43  C   UNL     1     -10.160  13.104  64.275  1.00  0.00    -0.166 C  
HETATM   44  C   UNL     1     -11.022  12.279  65.224  1.00  0.00    -0.347 C  
HETATM   45  C   UNL     1     -12.822  14.059  65.170  1.00  0.00    -0.368 C  
HETATM   46  C   UNL     1     -11.868  14.988  64.413  1.00  0.00    -0.349 C  
ENDBRANCH  40  41
ENDBRANCH  38  40
ENDBRANCH  37  38
ENDBRANCH  35  37
ENDBRANCH  34  35
ENDBRANCH  32  34
ENDBRANCH   8  32
ENDBRANCH   3   4
ENDBRANCH   2   3
TORSDOF 13
ENDMDL
MODEL      176
REMARK 921   NORMALIZED FREE ENERGY PREDICTED BY IDOCK:   -5.33 KCAL/MOL
REMARK 922        TOTAL FREE ENERGY PREDICTED BY IDOCK:  -11.83 KCAL/MOL
REMARK 923 INTER-LIGAND FREE ENERGY PREDICTED BY IDOCK:  -11.59 KCAL/MOL
REMARK 924 INTRA-LIGAND FREE ENERGY PREDICTED BY IDOCK:   -0.24 KCAL/MOL
REMARK 927      BINDING AFFINITY PREDICTED BY RF-SCORE:    0.00 PKD
ROOT
HETATM    1  C   UNL     1     -14.358   8.267  72.326  1.00  0.00    -0.432 C  
HETATM    2  C   UNL     1     -13.815   9.006  71.116  1.00  0.00    -0.064 C  
ENDROOT
BRANCH   2   3
HETATM    3  O   UNL     1     -12.644   9.718  71.528  1.00  0.00    -0.340 OA 
BRANCH   3   4
HETATM    4  C   UNL     1     -12.696  11.034  71.339  1.00  0.00    -0.429 A  
HETATM    5  N   UNL     1     -13.236  11.886  72.179  1.00  0.00    -0.423 NA 
HETATM    6  C   UNL     1     -13.075  13.107  71.592  1.00  0.00    -0.353 A  
HETATM    7  C   UNL     1     -12.353  13.026  70.385  1.00  0.00    -0.277 A  
HETATM    8  C   UNL     1     -11.990  14.215  69.704  1.00  0.00    -0.389 A  
HETATM    9  N   UNL     1     -12.227  11.655  70.201  1.00  0.00    -0.306 NA 
HETATM   10  C   UNL     1     -13.252  15.504  71.376  1.00  0.00    -0.587 A  
HETATM   11  C   UNL     1     -13.552  14.339  72.071  1.00  0.00    -0.520 A  
HETATM   12  C   UNL     1     -12.461  15.438  70.236  1.00  0.00    -0.413 A  
BRANCH   9  13
HETATM   13  C   UNL     1     -11.873  10.894  69.002  1.00  0.00    -0.299 C  
BRANCH  13  14
HETATM   14  C   UNL     1     -10.539  10.201  69.111  1.00  0.00    -0.247 A  
HETATM   15  C   UNL     1      -8.723   9.288  70.424  1.00  0.00    -0.263 A  
HETATM   16  C   UNL     1      -8.443   8.344  69.421  1.00  0.00    -0.125 A  
HETATM   17  C   UNL     1     -10.037   9.518  68.001  1.00  0.00    -0.226 A  
HETATM   18  C   UNL     1      -9.805  10.168  70.296  1.00  0.00    -0.022 A  
HETATM   19  C   UNL     1      -9.014   8.584  68.161  1.00  0.00    -0.142 A  
BRANCH  16  20
HETATM   20  C   UNL     1      -7.716   7.070  69.697  1.00  0.00    -0.110 A  
HETATM   21  C   UNL     1      -7.011   6.435  68.645  1.00  0.00    -0.080 A  
HETATM   22  C   UNL     1      -7.769   6.381  70.946  1.00  0.00    -0.101 A  
HETATM   23  C   UNL     1      -6.377   5.199  68.807  1.00  0.00    -0.035 A  
HETATM   24  C   UNL     1      -7.065   5.166  71.102  1.00  0.00    -0.063 A  
HETATM   25  C   UNL     1      -6.385   4.573  70.043  1.00  0.00    -0.027 A  
BRANCH  22  26
HETATM   26  C   UNL     1      -8.557   6.791  72.117  1.00  0.00    -0.117 A  
HETATM   27  N   UNL     1      -8.106   7.000  73.342  1.00  0.00    -0.100 NA 
HETATM   28  H   UNL     1      -7.140   6.917  73.658  1.00  0.00     0.000 HD 
HETATM   29  N   UNL     1      -9.190   7.350  74.109  1.00  0.00    -0.238 NA 
HETATM   30  N   UNL     1     -10.302   7.338  73.389  1.00  0.00    -0.333 NA 
HETATM   31  N   UNL     1      -9.917   6.947  72.166  1.00  0.00    -0.163 NA 
ENDBRANCH  22  26
ENDBRANCH  16  20
ENDBRANCH  13  14
ENDBRANCH   9  13
BRANCH   8  32
HETATM   32  C   UNL     1     -11.287  14.268  68.400  1.00  0.00    -0.283 C  
HETATM   33  O   UNL     1     -11.857  14.470  67.341  1.00  0.00    -0.389 OA 
BRANCH  32  34
HETATM   34  O   UNL     1      -9.940  14.293  68.567  1.00  0.00    -0.226 OA 
BRANCH  34  35
HETATM   35  C   UNL     1      -9.235  13.839  67.402  1.00  0.00    -0.221 C  
HETATM   36  C   UNL     1     -10.178  12.858  66.705  1.00  0.00    -0.251 C  
BRANCH  35  37
HETATM   37  O   UNL     1      -9.012  14.878  66.447  1.00  0.00    -0.270 OA 
BRANCH  37  38
HETATM   38  C   UNL     1      -8.093  15.809  66.787  1.00  0.00    -0.262 C  
HETATM   39  O   UNL     1      -6.917  15.607  67.034  1.00  0.00    -0.214 OA 
BRANCH  38  40
HETATM   40  O   UNL     1      -8.724  16.997  66.771  1.00  0.00    -0.218 OA 
BRANCH  40  41
HETATM   41  C   UNL     1      -8.665  17.966  67.843  1.00  0.00    -0.252 C  
HETATM   42  C   UNL     1     -10.152  20.501  67.376  1.00  0.00    -0.441 C  
HETATM   43  C   UNL     1      -8.002  19.221  67.270  1.00  0.00    -0.285 C  
HETATM   44  C   UNL     1      -8.994  20.072  66.485  1.00  0.00    -0.431 C  
HETATM   45  C   UNL     1     -10.875  19.312  68.002  1.00  0.00    -0.215 C  
HETATM   46  C   UNL     1      -9.935  18.284  68.638  1.00  0.00    -0.410 C  
ENDBRANCH  40  41
ENDBRANCH  38  40
ENDBRANCH  37  38
ENDBRANCH  35  37
ENDBRANCH  34  35
ENDBRANCH  32  34
ENDBRANCH   8  32
ENDBRANCH   3   4
ENDBRANCH   2   3
TORSDOF 13
ENDMDL
MODEL      177
REMARK 921   NORMALIZED FREE ENERGY PREDICTED BY IDOCK:   -5.29 KCAL/MOL
REMARK 922        TOTAL FREE ENERGY PREDICTED BY IDOCK:  -11.76 KCAL/MOL
REMARK 923 INTER-LIGAND FREE ENERGY PREDICTED BY IDOCK:   -9.82 KCAL/MOL
REMARK 924 INTRA-LIGAND FREE ENERGY PREDICTED BY IDOCK:   -1.94 KCAL/MOL
REMARK 927      BINDING AFFINITY PREDICTED BY RF-SCORE:    0.00 PKD
ROOT
HETATM    1  C   UNL     1      -6.158   6.839  72.195  1.00  0.00    -0.038 C  
HETATM    2  C   UNL     1      -6.057   8.353  72.128  1.00  0.00    -0.063 C  
ENDROOT
BRANCH   2   3
HETATM    3  O   UNL     1      -7.381   8.873  71.966  1.00  0.00    -0.301 OA 
BRANCH   3   4
HETATM    4  C   UNL     1      -7.529   9.714  70.946  1.00  0.00     0.074 A  
HETATM    5  N   UNL     1      -6.599  10.534  70.515  1.00  0.00    -0.314 NA 
HETATM    6  C   UNL     1      -7.175  11.203  69.475  1.00  0.00    -0.057 A  
HETATM    7  C   UNL     1      -8.478  10.741  69.202  1.00  0.00    -0.097 A  
HETATM    8  C   UNL     1      -9.178  11.242  68.076  1.00  0.00    -0.160 A  
HETATM    9  N   UNL     1      -8.710   9.858  70.249  1.00  0.00    -0.124 NA 
HETATM   10  C   UNL     1      -7.307  12.783  67.657  1.00  0.00    -0.144 A  
HETATM   11  C   UNL     1      -6.603  12.244  68.725  1.00  0.00    -0.084 A  
HETATM   12  C   UNL     1      -8.554  12.266  67.326  1.00  0.00    -0.183 A  
BRANCH   9  13
HETATM   13  C   UNL     1      -9.965   9.288  70.740  1.00  0.00    -0.290 C  
BRANCH  13  14
HETATM   14  C   UNL     1     -10.160   7.847  70.342  1.00  0.00    -0.194 A  
HETATM   15  C   UNL     1     -10.713   6.155  68.705  1.00  0.00    -0.370 A  
HETATM   16  C   UNL     1      -9.878   5.226  69.349  1.00  0.00    -0.265 A  
HETATM   17  C   UNL     1      -9.632   6.842  71.155  1.00  0.00    -0.167 A  
HETATM   18  C   UNL     1     -10.803   7.475  69.163  1.00  0.00    -0.105 A  
HETATM   19  C   UNL     1      -9.474   5.551  70.654  1.00  0.00    -0.209 A  
BRANCH  16  20
HETATM   20  C   UNL     1      -9.311   4.035  68.651  1.00  0.00    -0.224 A  
HETATM   21  C   UNL     1      -9.424   2.760  69.256  1.00  0.00    -0.145 A  
HETATM   22  C   UNL     1      -8.556   4.110  67.441  1.00  0.00    -0.105 A  
HETATM   23  C   UNL     1      -8.846   1.613  68.703  1.00  0.00    -0.128 A  
HETATM   24  C   UNL     1      -8.037   2.926  66.870  1.00  0.00    -0.080 A  
HETATM   25  C   UNL     1      -8.170   1.692  67.497  1.00  0.00    -0.072 A  
BRANCH  22  26
HETATM   26  C   UNL     1      -8.200   5.345  66.730  1.00  0.00    -0.108 A  
HETATM   27  N   UNL     1      -7.382   6.295  67.150  1.00  0.00    -0.082 NA 
HETATM   28  H   UNL     1      -6.865   6.308  68.029  1.00  0.00     0.000 HD 
HETATM   29  N   UNL     1      -7.361   7.261  66.174  1.00  0.00    -0.074 NA 
HETATM   30  N   UNL     1      -8.166   6.939  65.173  1.00  0.00    -0.133 NA 
HETATM   31  N   UNL     1      -8.722   5.775  65.537  1.00  0.00    -0.151 NA 
ENDBRANCH  22  26
ENDBRANCH  16  20
ENDBRANCH  13  14
ENDBRANCH   9  13
BRANCH   8  32
HETATM   32  C   UNL     1     -10.570  10.887  67.713  1.00  0.00    -0.217 C  
HETATM   33  O   UNL     1     -11.506  10.973  68.490  1.00  0.00    -0.263 OA 
BRANCH  32  34
HETATM   34  O   UNL     1     -10.694  10.684  66.376  1.00  0.00    -0.214 OA 
BRANCH  34  35
HETATM   35  C   UNL     1     -10.967  11.897  65.660  1.00  0.00    -0.304 C  
HETATM   36  C   UNL     1     -11.046  11.496  64.186  1.00  0.00    -0.417 C  
BRANCH  35  37
HETATM   37  O   UNL     1     -12.251  12.444  65.961  1.00  0.00    -0.636 OA 
BRANCH  37  38
HETATM   38  C   UNL     1     -12.434  13.743  65.636  1.00  0.00    -0.503 C  
HETATM   39  O   UNL     1     -12.818  14.173  64.562  1.00  0.00    -0.642 OA 
BRANCH  38  40
HETATM   40  O   UNL     1     -12.134  14.461  66.734  1.00  0.00    -0.424 OA 
BRANCH  40  41
HETATM   41  C   UNL     1     -10.788  14.720  67.196  1.00  0.00    -0.311 C  
HETATM   42  C   UNL     1     -10.112  17.581  67.661  1.00  0.00    -0.328 C  
HETATM   43  C   UNL     1     -10.116  15.594  66.135  1.00  0.00    -0.333 C  
HETATM   44  C   UNL     1     -10.507  17.061  66.286  1.00  0.00    -0.258 C  
HETATM   45  C   UNL     1     -10.731  16.764  68.791  1.00  0.00    -0.341 C  
HETATM   46  C   UNL     1     -10.572  15.251  68.618  1.00  0.00    -0.236 C  
ENDBRANCH  40  41
ENDBRANCH  38  40
ENDBRANCH  37  38
ENDBRANCH  35  37
ENDBRANCH  34  35
ENDBRANCH  32  34
ENDBRANCH   8  32
ENDBRANCH   3   4
ENDBRANCH   2   3
TORSDOF 13
ENDMDL
MODEL      178
REMARK 921   NORMALIZED FREE ENERGY PREDICTED BY IDOCK:   -5.29 KCAL/MOL
REMARK 922        TOTAL FREE ENERGY PREDICTED BY IDOCK:  -11.76 KCAL/MOL
REMARK 923 INTER-LIGAND FREE ENERGY PREDICTED BY IDOCK:   -9.03 KCAL/MOL
REMARK 924 INTRA-LIGAND FREE ENERGY PREDICTED BY IDOCK:   -2.74 KCAL/MOL
REMARK 927      BINDING AFFINITY PREDICTED BY RF-SCORE:    0.00 PKD
ROOT
HETATM    1  C   UNL     1      -8.779   3.626  63.753  1.00  0.00    -0.095 C  
HETATM    2  C   UNL     1      -9.028   4.745  64.748  1.00  0.00    -0.146 C  
ENDROOT
BRANCH   2   3
HETATM    3  O   UNL     1      -7.771   5.095  65.336  1.00  0.00    -0.084 OA 
BRANCH   3   4
HETATM    4  C   UNL     1      -7.730   5.002  66.663  1.00  0.00    -0.092 A  
HETATM    5  N   UNL     1      -8.216   3.997  67.354  1.00  0.00    -0.098 NA 
HETATM    6  C   UNL     1      -7.967   4.315  68.657  1.00  0.00    -0.073 A  
HETATM    7  C   UNL     1      -7.243   5.518  68.782  1.00  0.00    -0.070 A  
HETATM    8  C   UNL     1      -6.794   5.936  70.060  1.00  0.00    -0.057 A  
HETATM    9  N   UNL     1      -7.212   5.987  67.475  1.00  0.00    -0.074 NA 
HETATM   10  C   UNL     1      -7.976   4.020  71.052  1.00  0.00    -0.063 A  
HETATM   11  C   UNL     1      -8.360   3.584  69.791  1.00  0.00    -0.080 A  
HETATM   12  C   UNL     1      -7.183   5.155  71.173  1.00  0.00    -0.068 A  
BRANCH   9  13
HETATM   13  C   UNL     1      -6.903   7.322  66.961  1.00  0.00    -0.076 C  
BRANCH  13  14
HETATM   14  C   UNL     1      -8.080   7.989  66.297  1.00  0.00    -0.112 A  
HETATM   15  C   UNL     1     -10.322   8.898  66.367  1.00  0.00    -0.189 A  
HETATM   16  C   UNL     1     -10.008   9.808  65.343  1.00  0.00    -0.302 A  
HETATM   17  C   UNL     1      -7.893   8.631  65.071  1.00  0.00    -0.116 A  
HETATM   18  C   UNL     1      -9.344   8.038  66.883  1.00  0.00    -0.209 A  
HETATM   19  C   UNL     1      -8.839   9.547  64.611  1.00  0.00    -0.250 A  
BRANCH  16  20
HETATM   20  C   UNL     1     -10.772  11.073  65.131  1.00  0.00    -0.253 A  
HETATM   21  C   UNL     1     -10.823  11.641  63.835  1.00  0.00    -0.471 A  
HETATM   22  C   UNL     1     -11.379  11.819  66.186  1.00  0.00    -0.342 A  
HETATM   23  C   UNL     1     -11.447  12.865  63.577  1.00  0.00    -0.470 A  
HETATM   24  C   UNL     1     -12.060  13.021  65.887  1.00  0.00    -0.503 A  
HETATM   25  C   UNL     1     -12.086  13.546  64.600  1.00  0.00    -0.450 A  
BRANCH  22  26
HETATM   26  C   UNL     1     -11.320  11.484  67.616  1.00  0.00    -0.291 A  
HETATM   27  N   UNL     1     -12.285  10.951  68.346  1.00  0.00    -0.810 NA 
HETATM   28  H   UNL     1     -13.214  10.682  68.023  1.00  0.00     0.000 HD 
HETATM   29  N   UNL     1     -11.794  10.829  69.623  1.00  0.00    -0.307 NA 
HETATM   30  N   UNL     1     -10.558  11.296  69.701  1.00  0.00    -0.050 NA 
HETATM   31  N   UNL     1     -10.280  11.745  68.469  1.00  0.00    -0.209 NA 
ENDBRANCH  22  26
ENDBRANCH  16  20
ENDBRANCH  13  14
ENDBRANCH   9  13
BRANCH   8  32
HETATM   32  C   UNL     1      -6.080   7.205  70.337  1.00  0.00    -0.027 C  
HETATM   33  O   UNL     1      -5.266   7.694  69.573  1.00  0.00    -0.018 OA 
BRANCH  32  34
HETATM   34  O   UNL     1      -6.609   7.843  71.412  1.00  0.00    -0.041 OA 
BRANCH  34  35
HETATM   35  C   UNL     1      -5.744   7.800  72.557  1.00  0.00    -0.040 C  
HETATM   36  C   UNL     1      -5.315   9.247  72.804  1.00  0.00    -0.073 C  
BRANCH  35  37
HETATM   37  O   UNL     1      -6.421   7.407  73.751  1.00  0.00    -0.071 OA 
BRANCH  37  38
HETATM   38  C   UNL     1      -7.637   7.961  73.953  1.00  0.00    -0.159 C  
HETATM   39  O   UNL     1      -7.870   8.999  74.547  1.00  0.00    -0.322 OA 
BRANCH  38  40
HETATM   40  O   UNL     1      -8.532   7.157  73.348  1.00  0.00    -0.122 OA 
BRANCH  40  41
HETATM   41  C   UNL     1      -9.943   7.451  73.231  1.00  0.00    -0.291 C  
HETATM   42  C   UNL     1     -11.227   6.620  70.678  1.00  0.00    -0.370 C  
HETATM   43  C   UNL     1     -10.100   8.396  72.037  1.00  0.00    -0.364 C  
HETATM   44  C   UNL     1     -10.095   7.637  70.715  1.00  0.00    -0.189 C  
HETATM   45  C   UNL     1     -11.158   5.632  71.839  1.00  0.00    -0.278 C  
HETATM   46  C   UNL     1     -10.950   6.297  73.203  1.00  0.00    -0.251 C  
ENDBRANCH  40  41
ENDBRANCH  38  40
ENDBRANCH  37  38
ENDBRANCH  35  37
ENDBRANCH  34  35
ENDBRANCH  32  34
ENDBRANCH   8  32
ENDBRANCH   3   4
ENDBRANCH   2   3
TORSDOF 13
ENDMDL
MODEL      179
REMARK 921   NORMALIZED FREE ENERGY PREDICTED BY IDOCK:   -5.28 KCAL/MOL
REMARK 922        TOTAL FREE ENERGY PREDICTED BY IDOCK:  -11.75 KCAL/MOL
REMARK 923 INTER-LIGAND FREE ENERGY PREDICTED BY IDOCK:   -8.86 KCAL/MOL
REMARK 924 INTRA-LIGAND FREE ENERGY PREDICTED BY IDOCK:   -2.90 KCAL/MOL
REMARK 927      BINDING AFFINITY PREDICTED BY RF-SCORE:    0.00 PKD
ROOT
HETATM    1  C   UNL     1      -9.089   3.058  65.271  1.00  0.00    -0.149 C  
HETATM    2  C   UNL     1      -9.838   4.317  65.671  1.00  0.00    -0.218 C  
ENDROOT
BRANCH   2   3
HETATM    3  O   UNL     1      -9.072   4.980  66.681  1.00  0.00    -0.117 OA 
BRANCH   3   4
HETATM    4  C   UNL     1      -8.561   6.153  66.316  1.00  0.00    -0.136 A  
HETATM    5  N   UNL     1      -7.329   6.332  65.900  1.00  0.00    -0.078 NA 
HETATM    6  C   UNL     1      -7.236   7.669  65.643  1.00  0.00    -0.065 A  
HETATM    7  C   UNL     1      -8.463   8.334  65.836  1.00  0.00    -0.140 A  
HETATM    8  C   UNL     1      -8.577   9.706  65.499  1.00  0.00    -0.162 A  
HETATM    9  N   UNL     1      -9.263   7.338  66.381  1.00  0.00    -0.169 NA 
HETATM   10  C   UNL     1      -6.176   9.727  64.964  1.00  0.00    -0.094 A  
HETATM   11  C   UNL     1      -6.087   8.369  65.239  1.00  0.00    -0.045 A  
HETATM   12  C   UNL     1      -7.406  10.368  65.064  1.00  0.00    -0.070 A  
BRANCH   9  13
HETATM   13  C   UNL     1     -10.533   7.438  67.101  1.00  0.00    -0.333 C  
BRANCH  13  14
HETATM   14  C   UNL     1     -10.413   7.107  68.567  1.00  0.00    -0.229 A  
HETATM   15  C   UNL     1     -10.704   5.592  70.431  1.00  0.00    -0.352 A  
HETATM   16  C   UNL     1      -9.609   6.168  71.097  1.00  0.00    -0.193 A  
HETATM   17  C   UNL     1      -9.579   7.886  69.372  1.00  0.00    -0.160 A  
HETATM   18  C   UNL     1     -11.063   6.018  69.145  1.00  0.00    -0.405 A  
HETATM   19  C   UNL     1      -9.165   7.409  70.615  1.00  0.00    -0.157 A  
BRANCH  16  20
HETATM   20  C   UNL     1      -8.844   5.446  72.157  1.00  0.00    -0.133 A  
HETATM   21  C   UNL     1      -9.172   5.667  73.517  1.00  0.00    -0.134 A  
HETATM   22  C   UNL     1      -7.716   4.612  71.893  1.00  0.00    -0.097 A  
HETATM   23  C   UNL     1      -8.447   5.092  74.566  1.00  0.00    -0.109 A  
HETATM   24  C   UNL     1      -7.041   3.992  72.968  1.00  0.00    -0.062 A  
HETATM   25  C   UNL     1      -7.393   4.236  74.292  1.00  0.00    -0.072 A  
BRANCH  22  26
HETATM   26  C   UNL     1      -7.124   4.367  70.570  1.00  0.00    -0.041 A  
HETATM   27  N   UNL     1      -6.085   4.987  70.038  1.00  0.00    -0.021 NA 
HETATM   28  H   UNL     1      -5.530   5.725  70.472  1.00  0.00     0.000 HD 
HETATM   29  N   UNL     1      -5.897   4.447  68.790  1.00  0.00    -0.024 NA 
HETATM   30  N   UNL     1      -6.812   3.525  68.531  1.00  0.00    -0.045 NA 
HETATM   31  N   UNL     1      -7.600   3.507  69.615  1.00  0.00    -0.051 NA 
ENDBRANCH  22  26
ENDBRANCH  16  20
ENDBRANCH  13  14
ENDBRANCH   9  13
BRANCH   8  32
HETATM   32  C   UNL     1      -9.787  10.536  65.708  1.00  0.00    -0.237 C  
HETATM   33  O   UNL     1     -10.784  10.452  65.011  1.00  0.00    -0.086 OA 
BRANCH  32  34
HETATM   34  O   UNL     1      -9.724  11.211  66.884  1.00  0.00    -0.187 OA 
BRANCH  34  35
HETATM   35  C   UNL     1     -10.994  11.754  67.275  1.00  0.00    -0.267 C  
HETATM   36  C   UNL     1     -11.582  10.750  68.267  1.00  0.00    -0.297 C  
BRANCH  35  37
HETATM   37  O   UNL     1     -10.876  12.973  68.009  1.00  0.00    -0.229 OA 
BRANCH  37  38
HETATM   38  C   UNL     1     -11.870  13.871  67.830  1.00  0.00    -0.378 C  
HETATM   39  O   UNL     1     -12.481  14.078  66.797  1.00  0.00    -0.391 OA 
BRANCH  38  40
HETATM   40  O   UNL     1     -12.068  14.468  69.021  1.00  0.00    -0.306 OA 
BRANCH  40  41
HETATM   41  C   UNL     1     -11.604  13.939  70.284  1.00  0.00    -0.147 C  
HETATM   42  C   UNL     1     -13.153  14.783  72.681  1.00  0.00    -0.534 C  
HETATM   43  C   UNL     1     -11.206  15.139  71.147  1.00  0.00    -0.329 C  
HETATM   44  C   UNL     1     -12.421  15.787  71.803  1.00  0.00    -0.524 C  
HETATM   45  C   UNL     1     -13.587  13.542  71.907  1.00  0.00    -0.510 C  
HETATM   46  C   UNL     1     -12.478  12.935  71.043  1.00  0.00    -0.374 C  
ENDBRANCH  40  41
ENDBRANCH  38  40
ENDBRANCH  37  38
ENDBRANCH  35  37
ENDBRANCH  34  35
ENDBRANCH  32  34
ENDBRANCH   8  32
ENDBRANCH   3   4
ENDBRANCH   2   3
TORSDOF 13
ENDMDL
MODEL      180
REMARK 921   NORMALIZED FREE ENERGY PREDICTED BY IDOCK:   -5.28 KCAL/MOL
REMARK 922        TOTAL FREE ENERGY PREDICTED BY IDOCK:  -11.75 KCAL/MOL
REMARK 923 INTER-LIGAND FREE ENERGY PREDICTED BY IDOCK:   -8.97 KCAL/MOL
REMARK 924 INTRA-LIGAND FREE ENERGY PREDICTED BY IDOCK:   -2.78 KCAL/MOL
REMARK 927      BINDING AFFINITY PREDICTED BY RF-SCORE:    0.00 PKD
ROOT
HETATM    1  C   UNL     1      -5.814  12.508  69.132  1.00  0.00    -0.080 C  
HETATM    2  C   UNL     1      -6.787  11.355  69.306  1.00  0.00    -0.119 C  
ENDROOT
BRANCH   2   3
HETATM    3  O   UNL     1      -6.559  10.425  68.243  1.00  0.00    -0.059 OA 
BRANCH   3   4
HETATM    4  C   UNL     1      -6.526   9.149  68.615  1.00  0.00    -0.053 A  
HETATM    5  N   UNL     1      -6.305   8.736  69.841  1.00  0.00    -0.037 NA 
HETATM    6  C   UNL     1      -6.353   7.374  69.767  1.00  0.00    -0.031 A  
HETATM    7  C   UNL     1      -6.681   6.923  68.473  1.00  0.00    -0.064 A  
HETATM    8  C   UNL     1      -6.891   5.540  68.246  1.00  0.00    -0.060 A  
HETATM    9  N   UNL     1      -6.672   8.099  67.733  1.00  0.00    -0.064 NA 
HETATM   10  C   UNL     1      -6.252   5.105  70.580  1.00  0.00    -0.023 A  
HETATM   11  C   UNL     1      -6.107   6.467  70.811  1.00  0.00    -0.031 A  
HETATM   12  C   UNL     1      -6.666   4.661  69.330  1.00  0.00    -0.045 A  
BRANCH   9  13
HETATM   13  C   UNL     1      -6.613   8.299  66.285  1.00  0.00    -0.050 C  
BRANCH  13  14
HETATM   14  C   UNL     1      -7.861   8.934  65.723  1.00  0.00    -0.099 A  
HETATM   15  C   UNL     1     -10.227   9.426  65.836  1.00  0.00    -0.123 A  
HETATM   16  C   UNL     1     -10.034  10.622  65.125  1.00  0.00    -0.366 A  
HETATM   17  C   UNL     1      -7.737   9.912  64.734  1.00  0.00    -0.138 A  
HETATM   18  C   UNL     1      -9.136   8.620  66.188  1.00  0.00    -0.250 A  
HETATM   19  C   UNL     1      -8.808  10.761  64.456  1.00  0.00    -0.143 A  
BRANCH  16  20
HETATM   20  C   UNL     1     -10.997  11.762  65.193  1.00  0.00    -0.351 A  
HETATM   21  C   UNL     1     -11.215  12.551  64.038  1.00  0.00    -0.461 A  
HETATM   22  C   UNL     1     -11.645  12.181  66.394  1.00  0.00    -0.429 A  
HETATM   23  C   UNL     1     -12.037  13.683  64.048  1.00  0.00    -0.474 A  
HETATM   24  C   UNL     1     -12.521  13.289  66.361  1.00  0.00    -0.231 A  
HETATM   25  C   UNL     1     -12.709  14.040  65.205  1.00  0.00    -0.468 A  
BRANCH  22  26
HETATM   26  C   UNL     1     -11.446  11.592  67.725  1.00  0.00    -0.286 A  
HETATM   27  N   UNL     1     -12.322  10.886  68.419  1.00  0.00    -0.655 NA 
HETATM   28  H   UNL     1     -13.267  10.634  68.129  1.00  0.00     0.000 HD 
HETATM   29  N   UNL     1     -11.714  10.555  69.605  1.00  0.00    -0.264 NA 
HETATM   30  N   UNL     1     -10.493  11.063  69.668  1.00  0.00    -0.103 NA 
HETATM   31  N   UNL     1     -10.343  11.744  68.524  1.00  0.00    -0.213 NA 
ENDBRANCH  22  26
ENDBRANCH  16  20
ENDBRANCH  13  14
ENDBRANCH   9  13
BRANCH   8  32
HETATM   32  C   UNL     1      -7.180   4.930  66.926  1.00  0.00    -0.077 C  
HETATM   33  O   UNL     1      -6.559   3.981  66.479  1.00  0.00    -0.043 OA 
BRANCH  32  34
HETATM   34  O   UNL     1      -8.341   5.405  66.407  1.00  0.00    -0.109 OA 
BRANCH  34  35
HETATM   35  C   UNL     1      -9.480   4.627  66.805  1.00  0.00    -0.162 C  
HETATM   36  C   UNL     1      -9.006   3.173  66.805  1.00  0.00    -0.172 C  
BRANCH  35  37
HETATM   37  O   UNL     1      -9.884   4.883  68.151  1.00  0.00    -0.152 OA 
BRANCH  37  38
HETATM   38  C   UNL     1     -10.766   5.893  68.323  1.00  0.00    -0.243 C  
HETATM   39  O   UNL     1     -11.314   6.533  67.444  1.00  0.00    -0.304 OA 
BRANCH  38  40
HETATM   40  O   UNL     1     -10.936   6.032  69.651  1.00  0.00    -0.336 OA 
BRANCH  40  41
HETATM   41  C   UNL     1      -9.859   6.231  70.595  1.00  0.00    -0.184 C  
HETATM   42  C   UNL     1     -10.660   7.255  73.272  1.00  0.00    -0.428 C  
HETATM   43  C   UNL     1      -9.849   7.720  70.948  1.00  0.00    -0.182 C  
HETATM   44  C   UNL     1     -10.902   8.055  71.999  1.00  0.00    -0.333 C  
HETATM   45  C   UNL     1     -10.646   5.751  73.019  1.00  0.00    -0.272 C  
HETATM   46  C   UNL     1      -9.770   5.333  71.834  1.00  0.00    -0.204 C  
ENDBRANCH  40  41
ENDBRANCH  38  40
ENDBRANCH  37  38
ENDBRANCH  35  37
ENDBRANCH  34  35
ENDBRANCH  32  34
ENDBRANCH   8  32
ENDBRANCH   3   4
ENDBRANCH   2   3
TORSDOF 13
ENDMDL
MODEL      181
REMARK 921   NORMALIZED FREE ENERGY PREDICTED BY IDOCK:   -5.26 KCAL/MOL
REMARK 922        TOTAL FREE ENERGY PREDICTED BY IDOCK:  -11.71 KCAL/MOL
REMARK 923 INTER-LIGAND FREE ENERGY PREDICTED BY IDOCK:   -9.03 KCAL/MOL
REMARK 924 INTRA-LIGAND FREE ENERGY PREDICTED BY IDOCK:   -2.68 KCAL/MOL
REMARK 927      BINDING AFFINITY PREDICTED BY RF-SCORE:    0.00 PKD
ROOT
HETATM    1  C   UNL     1      -8.152   3.205  64.241  1.00  0.00    -0.083 C  
HETATM    2  C   UNL     1      -8.894   4.454  64.683  1.00  0.00    -0.147 C  
ENDROOT
BRANCH   2   3
HETATM    3  O   UNL     1      -8.378   4.839  65.962  1.00  0.00    -0.111 OA 
BRANCH   3   4
HETATM    4  C   UNL     1      -7.803   6.039  65.993  1.00  0.00    -0.105 A  
HETATM    5  N   UNL     1      -6.507   6.244  65.982  1.00  0.00    -0.045 NA 
HETATM    6  C   UNL     1      -6.366   7.600  66.031  1.00  0.00    -0.042 A  
HETATM    7  C   UNL     1      -7.607   8.266  66.003  1.00  0.00    -0.078 A  
HETATM    8  C   UNL     1      -7.642   9.680  65.926  1.00  0.00    -0.103 A  
HETATM    9  N   UNL     1      -8.513   7.216  66.094  1.00  0.00    -0.136 NA 
HETATM   10  C   UNL     1      -5.189   9.705  66.098  1.00  0.00    -0.039 A  
HETATM   11  C   UNL     1      -5.160   8.317  66.112  1.00  0.00    -0.024 A  
HETATM   12  C   UNL     1      -6.406  10.364  65.975  1.00  0.00    -0.111 A  
BRANCH   9  13
HETATM   13  C   UNL     1      -9.936   7.228  66.435  1.00  0.00    -0.024 C  
BRANCH  13  14
HETATM   14  C   UNL     1     -10.191   7.173  67.921  1.00  0.00    -0.231 A  
HETATM   15  C   UNL     1     -11.280   6.205  69.852  1.00  0.00    -0.484 A  
HETATM   16  C   UNL     1     -10.194   6.562  70.670  1.00  0.00    -0.220 A  
HETATM   17  C   UNL     1      -9.307   7.823  68.785  1.00  0.00    -0.146 A  
HETATM   18  C   UNL     1     -11.248   6.453  68.474  1.00  0.00    -0.321 A  
HETATM   19  C   UNL     1      -9.296   7.503  70.142  1.00  0.00    -0.157 A  
BRANCH  16  20
HETATM   20  C   UNL     1      -9.903   5.876  71.964  1.00  0.00    -0.181 A  
HETATM   21  C   UNL     1     -10.665   6.211  73.110  1.00  0.00    -0.283 A  
HETATM   22  C   UNL     1      -8.821   4.964  72.152  1.00  0.00    -0.137 A  
HETATM   23  C   UNL     1     -10.396   5.672  74.372  1.00  0.00    -0.278 A  
HETATM   24  C   UNL     1      -8.612   4.385  73.424  1.00  0.00    -0.097 A  
HETATM   25  C   UNL     1      -9.382   4.741  74.526  1.00  0.00    -0.134 A  
BRANCH  22  26
HETATM   26  C   UNL     1      -7.828   4.592  71.135  1.00  0.00    -0.082 A  
HETATM   27  N   UNL     1      -8.017   3.799  70.094  1.00  0.00    -0.047 NA 
HETATM   28  H   UNL     1      -8.887   3.334  69.834  1.00  0.00     0.000 HD 
HETATM   29  N   UNL     1      -6.818   3.724  69.429  1.00  0.00    -0.041 NA 
HETATM   30  N   UNL     1      -5.888   4.433  70.051  1.00  0.00    -0.016 NA 
HETATM   31  N   UNL     1      -6.501   4.933  71.133  1.00  0.00    -0.022 NA 
ENDBRANCH  22  26
ENDBRANCH  16  20
ENDBRANCH  13  14
ENDBRANCH   9  13
BRANCH   8  32
HETATM   32  C   UNL     1      -8.875  10.503  65.950  1.00  0.00    -0.165 C  
HETATM   33  O   UNL     1      -9.013  11.479  66.668  1.00  0.00    -0.174 OA 
BRANCH  32  34
HETATM   34  O   UNL     1      -9.709  10.171  64.932  1.00  0.00    -0.287 OA 
BRANCH  34  35
HETATM   35  C   UNL     1      -9.868  11.237  63.983  1.00  0.00    -0.291 C  
HETATM   36  C   UNL     1      -9.231  10.733  62.687  1.00  0.00    -0.349 C  
BRANCH  35  37
HETATM   37  O   UNL     1     -11.234  11.486  63.650  1.00  0.00    -0.411 OA 
BRANCH  37  38
HETATM   38  C   UNL     1     -11.593  12.785  63.549  1.00  0.00    -0.501 C  
HETATM   39  O   UNL     1     -12.480  13.238  62.848  1.00  0.00    -0.493 OA 
BRANCH  38  40
HETATM   40  O   UNL     1     -10.798  13.470  64.393  1.00  0.00    -0.392 OA 
BRANCH  40  41
HETATM   41  C   UNL     1     -11.212  14.643  65.130  1.00  0.00    -0.374 C  
HETATM   42  C   UNL     1     -11.077  14.418  68.094  1.00  0.00    -0.279 C  
HETATM   43  C   UNL     1     -12.413  14.228  65.984  1.00  0.00    -0.392 C  
HETATM   44  C   UNL     1     -11.975  13.516  67.260  1.00  0.00    -0.408 C  
HETATM   45  C   UNL     1      -9.849  14.891  67.322  1.00  0.00    -0.229 C  
HETATM   46  C   UNL     1     -10.170  15.435  65.927  1.00  0.00    -0.365 C  
ENDBRANCH  40  41
ENDBRANCH  38  40
ENDBRANCH  37  38
ENDBRANCH  35  37
ENDBRANCH  34  35
ENDBRANCH  32  34
ENDBRANCH   8  32
ENDBRANCH   3   4
ENDBRANCH   2   3
TORSDOF 13
ENDMDL
MODEL      182
REMARK 921   NORMALIZED FREE ENERGY PREDICTED BY IDOCK:   -5.26 KCAL/MOL
REMARK 922        TOTAL FREE ENERGY PREDICTED BY IDOCK:  -11.71 KCAL/MOL
REMARK 923 INTER-LIGAND FREE ENERGY PREDICTED BY IDOCK:   -9.74 KCAL/MOL
REMARK 924 INTRA-LIGAND FREE ENERGY PREDICTED BY IDOCK:   -1.96 KCAL/MOL
REMARK 927      BINDING AFFINITY PREDICTED BY RF-SCORE:    0.00 PKD
ROOT
HETATM    1  C   UNL     1     -10.478   6.185  67.266  1.00  0.00    -0.317 C  
HETATM    2  C   UNL     1     -10.682   7.684  67.139  1.00  0.00    -0.290 C  
ENDROOT
BRANCH   2   3
HETATM    3  O   UNL     1      -9.544   8.225  66.460  1.00  0.00    -0.209 OA 
BRANCH   3   4
HETATM    4  C   UNL     1      -9.613   9.529  66.206  1.00  0.00    -0.226 A  
HETATM    5  N   UNL     1     -10.465  10.082  65.375  1.00  0.00    -0.050 NA 
HETATM    6  C   UNL     1     -10.182  11.416  65.417  1.00  0.00    -0.270 A  
HETATM    7  C   UNL     1      -9.171  11.716  66.352  1.00  0.00    -0.212 A  
HETATM    8  C   UNL     1      -8.836  13.067  66.612  1.00  0.00    -0.083 A  
HETATM    9  N   UNL     1      -8.752  10.454  66.756  1.00  0.00    -0.127 NA 
HETATM   10  C   UNL     1     -10.411  13.750  64.851  1.00  0.00    -0.437 A  
HETATM   11  C   UNL     1     -10.778  12.426  64.645  1.00  0.00    -0.339 A  
HETATM   12  C   UNL     1      -9.483  14.058  65.838  1.00  0.00    -0.106 A  
BRANCH   9  13
HETATM   13  C   UNL     1      -7.534  10.047  67.457  1.00  0.00    -0.090 C  
BRANCH  13  14
HETATM   14  C   UNL     1      -7.805   9.389  68.787  1.00  0.00    -0.084 A  
HETATM   15  C   UNL     1      -9.120   9.142  70.803  1.00  0.00    -0.313 A  
HETATM   16  C   UNL     1      -8.763   7.786  70.895  1.00  0.00    -0.137 A  
HETATM   17  C   UNL     1      -7.185   8.173  69.080  1.00  0.00    -0.073 A  
HETATM   18  C   UNL     1      -8.694   9.921  69.719  1.00  0.00    -0.229 A  
HETATM   19  C   UNL     1      -7.675   7.371  70.111  1.00  0.00    -0.090 A  
BRANCH  16  20
HETATM   20  C   UNL     1      -9.577   6.791  71.654  1.00  0.00    -0.163 A  
HETATM   21  C   UNL     1      -9.005   5.539  71.986  1.00  0.00    -0.140 A  
HETATM   22  C   UNL     1     -10.953   6.979  71.985  1.00  0.00    -0.264 A  
HETATM   23  C   UNL     1      -9.732   4.527  72.621  1.00  0.00    -0.189 A  
HETATM   24  C   UNL     1     -11.646   5.966  72.684  1.00  0.00    -0.289 A  
HETATM   25  C   UNL     1     -11.048   4.748  72.991  1.00  0.00    -0.352 A  
BRANCH  22  26
HETATM   26  C   UNL     1     -11.772   8.140  71.609  1.00  0.00    -0.287 A  
HETATM   27  N   UNL     1     -12.586   8.824  72.395  1.00  0.00    -0.389 NA 
HETATM   28  H   UNL     1     -12.760   8.655  73.386  1.00  0.00     0.000 HD 
HETATM   29  N   UNL     1     -13.152   9.806  71.620  1.00  0.00    -0.389 NA 
HETATM   30  N   UNL     1     -12.725   9.727  70.370  1.00  0.00     0.013 NA 
HETATM   31  N   UNL     1     -11.905   8.667  70.351  1.00  0.00    -0.026 NA 
ENDBRANCH  22  26
ENDBRANCH  16  20
ENDBRANCH  13  14
ENDBRANCH   9  13
BRANCH   8  32
HETATM   32  C   UNL     1      -7.755  13.516  67.522  1.00  0.00    -0.175 C  
HETATM   33  O   UNL     1      -6.810  12.812  67.836  1.00  0.00    -0.086 OA 
BRANCH  32  34
HETATM   34  O   UNL     1      -7.837  14.849  67.765  1.00  0.00    -0.127 OA 
BRANCH  34  35
HETATM   35  C   UNL     1      -7.723  15.161  69.162  1.00  0.00    -0.195 C  
HETATM   36  C   UNL     1      -6.637  16.233  69.257  1.00  0.00    -0.197 C  
BRANCH  35  37
HETATM   37  O   UNL     1      -8.897  15.777  69.692  1.00  0.00    -0.232 OA 
BRANCH  37  38
HETATM   38  C   UNL     1      -9.624  16.514  68.823  1.00  0.00    -0.248 C  
HETATM   39  O   UNL     1      -9.471  17.697  68.573  1.00  0.00    -0.281 OA 
BRANCH  38  40
HETATM   40  O   UNL     1     -10.527  15.681  68.273  1.00  0.00    -0.241 OA 
BRANCH  40  41
HETATM   41  C   UNL     1     -11.882  15.517  68.752  1.00  0.00    -0.317 C  
HETATM   42  C   UNL     1     -12.342  13.187  70.545  1.00  0.00    -0.380 C  
HETATM   43  C   UNL     1     -12.371  14.161  68.238  1.00  0.00    -0.027 C  
HETATM   44  C   UNL     1     -11.868  13.015  69.109  1.00  0.00    -0.360 C  
HETATM   45  C   UNL     1     -11.906  14.520  71.145  1.00  0.00    -0.353 C  
HETATM   46  C   UNL     1     -12.182  15.724  70.240  1.00  0.00    -0.367 C  
ENDBRANCH  40  41
ENDBRANCH  38  40
ENDBRANCH  37  38
ENDBRANCH  35  37
ENDBRANCH  34  35
ENDBRANCH  32  34
ENDBRANCH   8  32
ENDBRANCH   3   4
ENDBRANCH   2   3
TORSDOF 13
ENDMDL
MODEL      183
REMARK 921   NORMALIZED FREE ENERGY PREDICTED BY IDOCK:   -5.25 KCAL/MOL
REMARK 922        TOTAL FREE ENERGY PREDICTED BY IDOCK:  -11.70 KCAL/MOL
REMARK 923 INTER-LIGAND FREE ENERGY PREDICTED BY IDOCK:   -8.82 KCAL/MOL
REMARK 924 INTRA-LIGAND FREE ENERGY PREDICTED BY IDOCK:   -2.88 KCAL/MOL
REMARK 927      BINDING AFFINITY PREDICTED BY RF-SCORE:    0.00 PKD
ROOT
HETATM    1  C   UNL     1     -10.534   6.654  66.988  1.00  0.00    -0.369 C  
HETATM    2  C   UNL     1     -10.696   8.163  66.963  1.00  0.00    -0.177 C  
ENDROOT
BRANCH   2   3
HETATM    3  O   UNL     1      -9.724   8.693  66.056  1.00  0.00    -0.241 OA 
BRANCH   3   4
HETATM    4  C   UNL     1      -9.817  10.002  65.840  1.00  0.00    -0.264 A  
HETATM    5  N   UNL     1     -10.692  10.565  65.039  1.00  0.00    -0.049 NA 
HETATM    6  C   UNL     1     -10.428  11.901  65.114  1.00  0.00    -0.287 A  
HETATM    7  C   UNL     1      -9.405  12.190  66.039  1.00  0.00    -0.170 A  
HETATM    8  C   UNL     1      -9.085  13.539  66.331  1.00  0.00    -0.064 A  
HETATM    9  N   UNL     1      -8.959  10.925  66.400  1.00  0.00    -0.169 NA 
HETATM   10  C   UNL     1     -10.702  14.246  64.618  1.00  0.00    -0.384 A  
HETATM   11  C   UNL     1     -11.053  12.924  64.381  1.00  0.00    -0.395 A  
HETATM   12  C   UNL     1      -9.760  14.541  65.596  1.00  0.00    -0.282 A  
BRANCH   9  13
HETATM   13  C   UNL     1      -7.723  10.516  67.068  1.00  0.00    -0.110 C  
BRANCH  13  14
HETATM   14  C   UNL     1      -7.961   9.793  68.369  1.00  0.00    -0.089 A  
HETATM   15  C   UNL     1      -9.150   9.522  70.459  1.00  0.00    -0.276 A  
HETATM   16  C   UNL     1      -8.914   8.137  70.438  1.00  0.00    -0.146 A  
HETATM   17  C   UNL     1      -7.437   8.510  68.538  1.00  0.00    -0.094 A  
HETATM   18  C   UNL     1      -8.731  10.335  69.397  1.00  0.00    -0.168 A  
HETATM   19  C   UNL     1      -7.926   7.684  69.549  1.00  0.00    -0.125 A  
BRANCH  16  20
HETATM   20  C   UNL     1      -9.762   7.166  71.192  1.00  0.00    -0.168 A  
HETATM   21  C   UNL     1     -11.167   7.194  71.016  1.00  0.00    -0.298 A  
HETATM   22  C   UNL     1      -9.253   6.265  72.175  1.00  0.00    -0.144 A  
HETATM   23  C   UNL     1     -12.031   6.374  71.748  1.00  0.00    -0.370 A  
HETATM   24  C   UNL     1     -10.141   5.401  72.854  1.00  0.00    -0.204 A  
HETATM   25  C   UNL     1     -11.516   5.460  72.653  1.00  0.00    -0.305 A  
BRANCH  22  26
HETATM   26  C   UNL     1      -7.853   6.177  72.612  1.00  0.00    -0.103 A  
HETATM   27  N   UNL     1      -7.216   7.018  73.408  1.00  0.00    -0.073 NA 
HETATM   28  H   UNL     1      -7.605   7.851  73.849  1.00  0.00     0.000 HD 
HETATM   29  N   UNL     1      -5.929   6.553  73.529  1.00  0.00    -0.058 NA 
HETATM   30  N   UNL     1      -5.753   5.458  72.805  1.00  0.00    -0.022 NA 
HETATM   31  N   UNL     1      -6.930   5.250  72.200  1.00  0.00    -0.079 NA 
ENDBRANCH  22  26
ENDBRANCH  16  20
ENDBRANCH  13  14
ENDBRANCH   9  13
BRANCH   8  32
HETATM   32  C   UNL     1      -7.994  13.979  67.234  1.00  0.00    -0.137 C  
HETATM   33  O   UNL     1      -6.951  13.362  67.372  1.00  0.00    -0.165 OA 
BRANCH  32  34
HETATM   34  O   UNL     1      -8.211  15.238  67.692  1.00  0.00    -0.143 OA 
BRANCH  34  35
HETATM   35  C   UNL     1      -7.988  15.354  69.105  1.00  0.00    -0.222 C  
HETATM   36  C   UNL     1      -6.896  16.413  69.264  1.00  0.00    -0.218 C  
BRANCH  35  37
HETATM   37  O   UNL     1      -9.116  15.879  69.806  1.00  0.00    -0.154 OA 
BRANCH  37  38
HETATM   38  C   UNL     1      -9.857  16.791  69.138  1.00  0.00    -0.228 C  
HETATM   39  O   UNL     1      -9.714  18.001  69.169  1.00  0.00    -0.231 OA 
BRANCH  38  40
HETATM   40  O   UNL     1     -10.759  16.101  68.416  1.00  0.00    -0.269 OA 
BRANCH  40  41
HETATM   41  C   UNL     1     -12.004  15.589  68.944  1.00  0.00    -0.284 C  
HETATM   42  C   UNL     1     -11.901  12.825  70.042  1.00  0.00    -0.352 C  
HETATM   43  C   UNL     1     -12.363  14.354  68.113  1.00  0.00    -0.001 C  
HETATM   44  C   UNL     1     -11.597  13.121  68.580  1.00  0.00    -0.356 C  
HETATM   45  C   UNL     1     -11.581  14.005  70.953  1.00  0.00     0.013 C  
HETATM   46  C   UNL     1     -12.136  15.341  70.450  1.00  0.00    -0.388 C  
ENDBRANCH  40  41
ENDBRANCH  38  40
ENDBRANCH  37  38
ENDBRANCH  35  37
ENDBRANCH  34  35
ENDBRANCH  32  34
ENDBRANCH   8  32
ENDBRANCH   3   4
ENDBRANCH   2   3
TORSDOF 13
ENDMDL
MODEL      184
REMARK 921   NORMALIZED FREE ENERGY PREDICTED BY IDOCK:   -5.25 KCAL/MOL
REMARK 922        TOTAL FREE ENERGY PREDICTED BY IDOCK:  -11.69 KCAL/MOL
REMARK 923 INTER-LIGAND FREE ENERGY PREDICTED BY IDOCK:  -10.33 KCAL/MOL
REMARK 924 INTRA-LIGAND FREE ENERGY PREDICTED BY IDOCK:   -1.37 KCAL/MOL
REMARK 927      BINDING AFFINITY PREDICTED BY RF-SCORE:    0.00 PKD
ROOT
HETATM    1  C   UNL     1      -6.977   5.899  71.394  1.00  0.00    -0.072 C  
HETATM    2  C   UNL     1      -7.849   6.448  70.279  1.00  0.00    -0.103 C  
ENDROOT
BRANCH   2   3
HETATM    3  O   UNL     1      -7.739   7.875  70.300  1.00  0.00    -0.084 OA 
BRANCH   3   4
HETATM    4  C   UNL     1      -8.887   8.521  70.482  1.00  0.00    -0.154 A  
HETATM    5  N   UNL     1      -9.721   8.295  71.471  1.00  0.00    -0.176 NA 
HETATM    6  C   UNL     1     -10.752   9.164  71.266  1.00  0.00    -0.331 A  
HETATM    7  C   UNL     1     -10.527  10.006  70.159  1.00  0.00    -0.284 A  
HETATM    8  C   UNL     1     -11.442  11.050  69.875  1.00  0.00    -0.400 A  
HETATM    9  N   UNL     1      -9.363   9.480  69.613  1.00  0.00    -0.186 NA 
HETATM   10  C   UNL     1     -12.864  10.242  71.711  1.00  0.00    -0.565 A  
HETATM   11  C   UNL     1     -11.933   9.260  72.021  1.00  0.00    -0.391 A  
HETATM   12  C   UNL     1     -12.602  11.135  70.679  1.00  0.00    -0.408 A  
BRANCH   9  13
HETATM   13  C   UNL     1      -8.771   9.676  68.289  1.00  0.00    -0.120 C  
BRANCH  13  14
HETATM   14  C   UNL     1      -8.613   8.393  67.513  1.00  0.00    -0.129 A  
HETATM   15  C   UNL     1      -7.238   6.645  66.561  1.00  0.00    -0.073 A  
HETATM   16  C   UNL     1      -8.284   5.717  66.698  1.00  0.00    -0.105 A  
HETATM   17  C   UNL     1      -9.729   7.578  67.316  1.00  0.00    -0.217 A  
HETATM   18  C   UNL     1      -7.382   7.959  67.025  1.00  0.00    -0.091 A  
HETATM   19  C   UNL     1      -9.563   6.247  66.934  1.00  0.00    -0.173 A  
BRANCH  16  20
HETATM   20  C   UNL     1      -8.049   4.244  66.753  1.00  0.00    -0.101 A  
HETATM   21  C   UNL     1      -7.292   3.704  67.821  1.00  0.00    -0.062 A  
HETATM   22  C   UNL     1      -8.456   3.337  65.728  1.00  0.00    -0.107 A  
HETATM   23  C   UNL     1      -6.961   2.348  67.895  1.00  0.00    -0.047 A  
HETATM   24  C   UNL     1      -8.164   1.960  65.860  1.00  0.00    -0.085 A  
HETATM   25  C   UNL     1      -7.415   1.470  66.925  1.00  0.00    -0.055 A  
BRANCH  22  26
HETATM   26  C   UNL     1      -9.123   3.708  64.473  1.00  0.00    -0.131 A  
HETATM   27  N   UNL     1      -8.544   4.115  63.356  1.00  0.00    -0.099 NA 
HETATM   28  H   UNL     1      -7.543   4.223  63.195  1.00  0.00     0.000 HD 
HETATM   29  N   UNL     1      -9.550   4.363  62.455  1.00  0.00    -0.136 NA 
HETATM   30  N   UNL     1     -10.737   4.142  62.999  1.00  0.00    -0.071 NA 
HETATM   31  N   UNL     1     -10.476   3.781  64.263  1.00  0.00    -0.253 NA 
ENDBRANCH  22  26
ENDBRANCH  16  20
ENDBRANCH  13  14
ENDBRANCH   9  13
BRANCH   8  32
HETATM   32  C   UNL     1     -11.355  11.964  68.711  1.00  0.00    -0.274 C  
HETATM   33  O   UNL     1     -11.953  11.774  67.666  1.00  0.00    -0.599 OA 
BRANCH  32  34
HETATM   34  O   UNL     1     -10.726  13.122  69.039  1.00  0.00    -0.205 OA 
BRANCH  34  35
HETATM   35  C   UNL     1     -11.609  14.253  69.011  1.00  0.00    -0.305 C  
HETATM   36  C   UNL     1     -12.165  14.378  70.430  1.00  0.00    -0.404 C  
BRANCH  35  37
HETATM   37  O   UNL     1     -10.928  15.485  68.772  1.00  0.00    -0.243 OA 
BRANCH  37  38
HETATM   38  C   UNL     1     -10.378  15.631  67.546  1.00  0.00    -0.277 C  
HETATM   39  O   UNL     1     -10.826  15.202  66.497  1.00  0.00    -0.310 OA 
BRANCH  38  40
HETATM   40  O   UNL     1      -9.260  16.362  67.709  1.00  0.00    -0.200 OA 
BRANCH  40  41
HETATM   41  C   UNL     1      -8.839  17.418  66.815  1.00  0.00    -0.251 C  
HETATM   42  C   UNL     1      -9.831  20.144  67.479  1.00  0.00    -0.574 C  
HETATM   43  C   UNL     1     -10.109  18.009  66.199  1.00  0.00    -0.334 C  
HETATM   44  C   UNL     1     -10.780  19.003  67.141  1.00  0.00    -0.541 C  
HETATM   45  C   UNL     1      -8.526  19.650  68.096  1.00  0.00    -0.357 C  
HETATM   46  C   UNL     1      -7.877  18.496  67.327  1.00  0.00    -0.240 C  
ENDBRANCH  40  41
ENDBRANCH  38  40
ENDBRANCH  37  38
ENDBRANCH  35  37
ENDBRANCH  34  35
ENDBRANCH  32  34
ENDBRANCH   8  32
ENDBRANCH   3   4
ENDBRANCH   2   3
TORSDOF 13
ENDMDL
MODEL      185
REMARK 921   NORMALIZED FREE ENERGY PREDICTED BY IDOCK:   -5.24 KCAL/MOL
REMARK 922        TOTAL FREE ENERGY PREDICTED BY IDOCK:  -11.68 KCAL/MOL
REMARK 923 INTER-LIGAND FREE ENERGY PREDICTED BY IDOCK:   -9.35 KCAL/MOL
REMARK 924 INTRA-LIGAND FREE ENERGY PREDICTED BY IDOCK:   -2.33 KCAL/MOL
REMARK 927      BINDING AFFINITY PREDICTED BY RF-SCORE:    0.00 PKD
ROOT
HETATM    1  C   UNL     1      -7.892   4.514  63.398  1.00  0.00    -0.077 C  
HETATM    2  C   UNL     1      -9.135   4.712  64.248  1.00  0.00    -0.112 C  
ENDROOT
BRANCH   2   3
HETATM    3  O   UNL     1      -8.709   5.037  65.576  1.00  0.00    -0.133 OA 
BRANCH   3   4
HETATM    4  C   UNL     1      -8.278   6.286  65.733  1.00  0.00    -0.136 A  
HETATM    5  N   UNL     1      -7.044   6.681  65.519  1.00  0.00    -0.062 NA 
HETATM    6  C   UNL     1      -7.048   8.015  65.806  1.00  0.00    -0.063 A  
HETATM    7  C   UNL     1      -8.334   8.483  66.142  1.00  0.00    -0.119 A  
HETATM    8  C   UNL     1      -8.542   9.869  66.352  1.00  0.00    -0.136 A  
HETATM    9  N   UNL     1      -9.077   7.310  66.194  1.00  0.00    -0.153 NA 
HETATM   10  C   UNL     1      -6.126  10.229  66.062  1.00  0.00    -0.092 A  
HETATM   11  C   UNL     1      -5.940   8.879  65.797  1.00  0.00    -0.051 A  
HETATM   12  C   UNL     1      -7.407  10.711  66.302  1.00  0.00    -0.137 A  
BRANCH   9  13
HETATM   13  C   UNL     1     -10.387   7.052  66.793  1.00  0.00    -0.221 C  
BRANCH  13  14
HETATM   14  C   UNL     1     -10.335   6.894  68.292  1.00  0.00    -0.220 A  
HETATM   15  C   UNL     1      -9.555   5.755  70.279  1.00  0.00    -0.206 A  
HETATM   16  C   UNL     1      -9.639   6.946  71.020  1.00  0.00    -0.172 A  
HETATM   17  C   UNL     1     -10.746   7.955  69.100  1.00  0.00    -0.130 A  
HETATM   18  C   UNL     1      -9.841   5.745  68.907  1.00  0.00    -0.191 A  
HETATM   19  C   UNL     1     -10.382   7.989  70.446  1.00  0.00    -0.206 A  
BRANCH  16  20
HETATM   20  C   UNL     1      -8.860   7.168  72.274  1.00  0.00    -0.142 A  
HETATM   21  C   UNL     1      -7.904   8.213  72.318  1.00  0.00    -0.167 A  
HETATM   22  C   UNL     1      -8.939   6.318  73.418  1.00  0.00    -0.128 A  
HETATM   23  C   UNL     1      -7.079   8.428  73.426  1.00  0.00    -0.119 A  
HETATM   24  C   UNL     1      -8.139   6.597  74.550  1.00  0.00    -0.140 A  
HETATM   25  C   UNL     1      -7.212   7.633  74.553  1.00  0.00    -0.152 A  
BRANCH  22  26
HETATM   26  C   UNL     1      -9.755   5.101  73.526  1.00  0.00    -0.149 A  
HETATM   27  N   UNL     1     -11.073   5.035  73.612  1.00  0.00    -0.380 NA 
HETATM   28  H   UNL     1     -11.723   5.821  73.606  1.00  0.00     0.000 HD 
HETATM   29  N   UNL     1     -11.398   3.705  73.710  1.00  0.00    -0.150 NA 
HETATM   30  N   UNL     1     -10.309   2.951  73.711  1.00  0.00    -0.125 NA 
HETATM   31  N   UNL     1      -9.289   3.818  73.644  1.00  0.00    -0.100 NA 
ENDBRANCH  22  26
ENDBRANCH  16  20
ENDBRANCH  13  14
ENDBRANCH   9  13
BRANCH   8  32
HETATM   32  C   UNL     1      -9.825  10.483  66.769  1.00  0.00    -0.193 C  
HETATM   33  O   UNL     1      -9.976  11.057  67.834  1.00  0.00    -0.169 OA 
BRANCH  32  34
HETATM   34  O   UNL     1     -10.710  10.521  65.740  1.00  0.00    -0.122 OA 
BRANCH  34  35
HETATM   35  C   UNL     1     -10.995  11.861  65.311  1.00  0.00    -0.302 C  
HETATM   36  C   UNL     1     -11.223  11.769  63.801  1.00  0.00    -0.518 C  
BRANCH  35  37
HETATM   37  O   UNL     1     -12.222  12.365  65.839  1.00  0.00    -0.629 OA 
BRANCH  37  38
HETATM   38  C   UNL     1     -12.401  13.702  65.751  1.00  0.00    -0.482 C  
HETATM   39  O   UNL     1     -13.429  14.275  65.435  1.00  0.00    -0.581 OA 
BRANCH  38  40
HETATM   40  O   UNL     1     -11.234  14.270  66.106  1.00  0.00    -0.319 OA 
BRANCH  40  41
HETATM   41  C   UNL     1     -10.808  14.471  67.474  1.00  0.00    -0.289 C  
HETATM   42  C   UNL     1      -9.306  16.986  68.001  1.00  0.00    -0.245 C  
HETATM   43  C   UNL     1      -9.280  14.542  67.456  1.00  0.00    -0.194 C  
HETATM   44  C   UNL     1      -8.785  15.924  67.043  1.00  0.00    -0.248 C  
HETATM   45  C   UNL     1     -10.829  16.990  68.092  1.00  0.00    -0.338 C  
HETATM   46  C   UNL     1     -11.438  15.600  68.297  1.00  0.00    -0.353 C  
ENDBRANCH  40  41
ENDBRANCH  38  40
ENDBRANCH  37  38
ENDBRANCH  35  37
ENDBRANCH  34  35
ENDBRANCH  32  34
ENDBRANCH   8  32
ENDBRANCH   3   4
ENDBRANCH   2   3
TORSDOF 13
ENDMDL
MODEL      186
REMARK 921   NORMALIZED FREE ENERGY PREDICTED BY IDOCK:   -5.24 KCAL/MOL
REMARK 922        TOTAL FREE ENERGY PREDICTED BY IDOCK:  -11.67 KCAL/MOL
REMARK 923 INTER-LIGAND FREE ENERGY PREDICTED BY IDOCK:   -9.75 KCAL/MOL
REMARK 924 INTRA-LIGAND FREE ENERGY PREDICTED BY IDOCK:   -1.93 KCAL/MOL
REMARK 927      BINDING AFFINITY PREDICTED BY RF-SCORE:    0.00 PKD
ROOT
HETATM    1  C   UNL     1      -9.436   7.891  73.588  1.00  0.00    -0.252 C  
HETATM    2  C   UNL     1     -10.119   6.621  74.061  1.00  0.00    -0.347 C  
ENDROOT
BRANCH   2   3
HETATM    3  O   UNL     1     -10.781   6.035  72.936  1.00  0.00    -0.221 OA 
BRANCH   3   4
HETATM    4  C   UNL     1     -10.061   6.008  71.817  1.00  0.00    -0.188 A  
HETATM    5  N   UNL     1      -8.834   5.550  71.732  1.00  0.00    -0.135 NA 
HETATM    6  C   UNL     1      -8.486   5.718  70.423  1.00  0.00    -0.129 A  
HETATM    7  C   UNL     1      -9.549   6.231  69.652  1.00  0.00    -0.145 A  
HETATM    8  C   UNL     1      -9.400   6.355  68.249  1.00  0.00    -0.109 A  
HETATM    9  N   UNL     1     -10.511   6.511  70.615  1.00  0.00    -0.208 NA 
HETATM   10  C   UNL     1      -7.064   5.620  68.477  1.00  0.00    -0.070 A  
HETATM   11  C   UNL     1      -7.236   5.444  69.844  1.00  0.00    -0.064 A  
HETATM   12  C   UNL     1      -8.137   6.037  67.699  1.00  0.00    -0.106 A  
BRANCH   9  13
HETATM   13  C   UNL     1     -11.708   7.348  70.533  1.00  0.00    -0.191 C  
BRANCH  13  14
HETATM   14  C   UNL     1     -11.401   8.824  70.504  1.00  0.00    -0.255 A  
HETATM   15  C   UNL     1     -10.097  10.704  69.717  1.00  0.00    -0.052 A  
HETATM   16  C   UNL     1     -11.203  11.560  69.863  1.00  0.00    -0.183 A  
HETATM   17  C   UNL     1     -12.358   9.725  70.974  1.00  0.00    -0.422 A  
HETATM   18  C   UNL     1     -10.216   9.332  69.975  1.00  0.00    -0.244 A  
HETATM   19  C   UNL     1     -12.270  11.076  70.637  1.00  0.00    -0.481 A  
BRANCH  16  20
HETATM   20  C   UNL     1     -11.327  12.847  69.118  1.00  0.00    -0.329 A  
HETATM   21  C   UNL     1     -10.814  12.935  67.801  1.00  0.00    -0.248 A  
HETATM   22  C   UNL     1     -11.843  14.049  69.691  1.00  0.00    -0.386 A  
HETATM   23  C   UNL     1     -10.819  14.129  67.073  1.00  0.00    -0.295 A  
HETATM   24  C   UNL     1     -11.895  15.226  68.910  1.00  0.00    -0.344 A  
HETATM   25  C   UNL     1     -11.379  15.271  67.619  1.00  0.00    -0.315 A  
BRANCH  22  26
HETATM   26  C   UNL     1     -12.291  14.211  71.081  1.00  0.00    -0.372 A  
HETATM   27  N   UNL     1     -11.614  14.763  72.073  1.00  0.00    -0.412 NA 
HETATM   28  H   UNL     1     -10.681  15.170  72.021  1.00  0.00     0.000 HD 
HETATM   29  N   UNL     1     -12.411  14.683  73.189  1.00  0.00    -0.345 NA 
HETATM   30  N   UNL     1     -13.552  14.073  72.911  1.00  0.00    -0.662 NA 
HETATM   31  N   UNL     1     -13.460  13.738  71.617  1.00  0.00    -0.347 NA 
ENDBRANCH  22  26
ENDBRANCH  16  20
ENDBRANCH  13  14
ENDBRANCH   9  13
BRANCH   8  32
HETATM   32  C   UNL     1     -10.412   6.933  67.334  1.00  0.00    -0.269 C  
HETATM   33  O   UNL     1     -11.394   6.320  66.950  1.00  0.00    -0.260 OA 
BRANCH  32  34
HETATM   34  O   UNL     1     -10.226   8.268  67.173  1.00  0.00    -0.237 OA 
BRANCH  34  35
HETATM   35  C   UNL     1      -9.684   8.595  65.884  1.00  0.00    -0.084 C  
HETATM   36  C   UNL     1     -10.180  10.008  65.575  1.00  0.00    -0.248 C  
BRANCH  35  37
HETATM   37  O   UNL     1      -8.259   8.697  65.889  1.00  0.00    -0.111 OA 
BRANCH  37  38
HETATM   38  C   UNL     1      -7.648   8.519  64.698  1.00  0.00    -0.102 C  
HETATM   39  O   UNL     1      -6.877   9.293  64.157  1.00  0.00    -0.088 OA 
BRANCH  38  40
HETATM   40  O   UNL     1      -8.035   7.313  64.242  1.00  0.00    -0.128 OA 
BRANCH  40  41
HETATM   41  C   UNL     1      -7.261   6.500  63.331  1.00  0.00    -0.064 C  
HETATM   42  C   UNL     1      -7.252   3.578  63.899  1.00  0.00    -0.051 C  
HETATM   43  C   UNL     1      -6.169   5.821  64.161  1.00  0.00    -0.025 C  
HETATM   44  C   UNL     1      -6.700   4.592  64.891  1.00  0.00    -0.045 C  
HETATM   45  C   UNL     1      -8.348   4.166  63.017  1.00  0.00    -0.090 C  
HETATM   46  C   UNL     1      -7.984   5.520  62.400  1.00  0.00    -0.087 C  
ENDBRANCH  40  41
ENDBRANCH  38  40
ENDBRANCH  37  38
ENDBRANCH  35  37
ENDBRANCH  34  35
ENDBRANCH  32  34
ENDBRANCH   8  32
ENDBRANCH   3   4
ENDBRANCH   2   3
TORSDOF 13
ENDMDL
MODEL      187
REMARK 921   NORMALIZED FREE ENERGY PREDICTED BY IDOCK:   -5.23 KCAL/MOL
REMARK 922        TOTAL FREE ENERGY PREDICTED BY IDOCK:  -11.66 KCAL/MOL
REMARK 923 INTER-LIGAND FREE ENERGY PREDICTED BY IDOCK:   -9.30 KCAL/MOL
REMARK 924 INTRA-LIGAND FREE ENERGY PREDICTED BY IDOCK:   -2.36 KCAL/MOL
REMARK 927      BINDING AFFINITY PREDICTED BY RF-SCORE:    0.00 PKD
ROOT
HETATM    1  C   UNL     1     -13.599   8.819  71.909  1.00  0.00    -0.467 C  
HETATM    2  C   UNL     1     -12.157   8.576  72.319  1.00  0.00    -0.387 C  
ENDROOT
BRANCH   2   3
HETATM    3  O   UNL     1     -11.348   9.569  71.680  1.00  0.00    -0.383 OA 
BRANCH   3   4
HETATM    4  C   UNL     1     -10.121   9.168  71.360  1.00  0.00    -0.322 A  
HETATM    5  N   UNL     1      -9.109   9.124  72.196  1.00  0.00    -0.202 NA 
HETATM    6  C   UNL     1      -8.060   8.665  71.454  1.00  0.00    -0.151 A  
HETATM    7  C   UNL     1      -8.441   8.347  70.135  1.00  0.00    -0.126 A  
HETATM    8  C   UNL     1      -7.502   7.743  69.262  1.00  0.00    -0.093 A  
HETATM    9  N   UNL     1      -9.755   8.795  70.085  1.00  0.00    -0.168 NA 
HETATM   10  C   UNL     1      -5.790   7.976  71.013  1.00  0.00    -0.033 A  
HETATM   11  C   UNL     1      -6.731   8.511  71.883  1.00  0.00    -0.085 A  
HETATM   12  C   UNL     1      -6.183   7.574  69.742  1.00  0.00    -0.030 A  
BRANCH   9  13
HETATM   13  C   UNL     1     -10.616   9.058  68.931  1.00  0.00    -0.180 C  
BRANCH  13  14
HETATM   14  C   UNL     1     -10.260  10.330  68.203  1.00  0.00    -0.192 A  
HETATM   15  C   UNL     1     -10.814  12.133  66.687  1.00  0.00    -0.307 A  
HETATM   16  C   UNL     1      -9.941  13.000  67.367  1.00  0.00    -0.228 A  
HETATM   17  C   UNL     1      -9.159  11.073  68.634  1.00  0.00    -0.174 A  
HETATM   18  C   UNL     1     -11.019  10.824  67.143  1.00  0.00    -0.324 A  
HETATM   19  C   UNL     1      -9.016  12.402  68.236  1.00  0.00    -0.178 A  
BRANCH  16  20
HETATM   20  C   UNL     1     -10.077  14.486  67.306  1.00  0.00    -0.247 A  
HETATM   21  C   UNL     1      -9.364  15.205  66.315  1.00  0.00    -0.348 A  
HETATM   22  C   UNL     1     -10.808  15.255  68.261  1.00  0.00    -0.262 A  
HETATM   23  C   UNL     1      -9.376  16.602  66.249  1.00  0.00    -0.323 A  
HETATM   24  C   UNL     1     -10.856  16.662  68.132  1.00  0.00    -0.348 A  
HETATM   25  C   UNL     1     -10.140  17.331  67.144  1.00  0.00    -0.297 A  
BRANCH  22  26
HETATM   26  C   UNL     1     -11.496  14.721  69.444  1.00  0.00    -0.301 A  
HETATM   27  N   UNL     1     -12.591  13.980  69.457  1.00  0.00    -0.407 NA 
HETATM   28  H   UNL     1     -13.117  13.657  68.645  1.00  0.00     0.000 HD 
HETATM   29  N   UNL     1     -12.882  13.727  70.775  1.00  0.00    -0.271 NA 
HETATM   30  N   UNL     1     -12.007  14.316  71.574  1.00  0.00    -0.251 NA 
HETATM   31  N   UNL     1     -11.175  14.971  70.753  1.00  0.00    -0.264 NA 
ENDBRANCH  22  26
ENDBRANCH  16  20
ENDBRANCH  13  14
ENDBRANCH   9  13
BRANCH   8  32
HETATM   32  C   UNL     1      -7.754   7.415  67.838  1.00  0.00    -0.116 C  
HETATM   33  O   UNL     1      -8.184   8.222  67.032  1.00  0.00    -0.103 OA 
BRANCH  32  34
HETATM   34  O   UNL     1      -7.238   6.202  67.514  1.00  0.00    -0.072 OA 
BRANCH  34  35
HETATM   35  C   UNL     1      -8.128   5.123  67.835  1.00  0.00    -0.098 C  
HETATM   36  C   UNL     1      -7.306   4.149  68.681  1.00  0.00    -0.055 C  
BRANCH  35  37
HETATM   37  O   UNL     1      -9.207   5.525  68.680  1.00  0.00    -0.119 OA 
BRANCH  37  38
HETATM   38  C   UNL     1      -9.826   4.536  69.362  1.00  0.00    -0.190 C  
HETATM   39  O   UNL     1      -9.977   3.386  68.991  1.00  0.00     0.129 OA 
BRANCH  38  40
HETATM   40  O   UNL     1     -10.217   5.065  70.537  1.00  0.00    -0.246 OA 
BRANCH  40  41
HETATM   41  C   UNL     1     -10.204   4.353  71.796  1.00  0.00    -0.131 C  
HETATM   42  C   UNL     1      -8.699   5.663  74.004  1.00  0.00    -0.120 C  
HETATM   43  C   UNL     1      -8.740   4.030  72.106  1.00  0.00    -0.121 C  
HETATM   44  C   UNL     1      -8.017   5.227  72.715  1.00  0.00    -0.102 C  
HETATM   45  C   UNL     1     -10.172   6.003  73.796  1.00  0.00    -0.253 C  
HETATM   46  C   UNL     1     -10.942   4.945  73.001  1.00  0.00    -0.358 C  
ENDBRANCH  40  41
ENDBRANCH  38  40
ENDBRANCH  37  38
ENDBRANCH  35  37
ENDBRANCH  34  35
ENDBRANCH  32  34
ENDBRANCH   8  32
ENDBRANCH   3   4
ENDBRANCH   2   3
TORSDOF 13
ENDMDL
MODEL      188
REMARK 921   NORMALIZED FREE ENERGY PREDICTED BY IDOCK:   -5.23 KCAL/MOL
REMARK 922        TOTAL FREE ENERGY PREDICTED BY IDOCK:  -11.65 KCAL/MOL
REMARK 923 INTER-LIGAND FREE ENERGY PREDICTED BY IDOCK:   -9.62 KCAL/MOL
REMARK 924 INTRA-LIGAND FREE ENERGY PREDICTED BY IDOCK:   -2.03 KCAL/MOL
REMARK 927      BINDING AFFINITY PREDICTED BY RF-SCORE:    0.00 PKD
ROOT
HETATM    1  C   UNL     1      -8.751   9.980  63.744  1.00  0.00    -0.228 C  
HETATM    2  C   UNL     1      -8.441  10.307  65.194  1.00  0.00    -0.168 C  
ENDROOT
BRANCH   2   3
HETATM    3  O   UNL     1      -7.542   9.307  65.685  1.00  0.00    -0.093 OA 
BRANCH   3   4
HETATM    4  C   UNL     1      -8.121   8.165  66.048  1.00  0.00    -0.112 A  
HETATM    5  N   UNL     1      -8.636   7.293  65.213  1.00  0.00    -0.050 NA 
HETATM    6  C   UNL     1      -9.120   6.293  66.005  1.00  0.00    -0.109 A  
HETATM    7  C   UNL     1      -8.839   6.511  67.369  1.00  0.00    -0.115 A  
HETATM    8  C   UNL     1      -9.164   5.512  68.319  1.00  0.00    -0.118 A  
HETATM    9  N   UNL     1      -8.293   7.788  67.363  1.00  0.00    -0.122 NA 
HETATM   10  C   UNL     1     -10.206   4.200  66.518  1.00  0.00     0.053 A  
HETATM   11  C   UNL     1      -9.830   5.156  65.583  1.00  0.00    -0.057 A  
HETATM   12  C   UNL     1      -9.849   4.367  67.851  1.00  0.00    -0.141 A  
BRANCH   9  13
HETATM   13  C   UNL     1      -8.089   8.730  68.464  1.00  0.00    -0.116 C  
BRANCH  13  14
HETATM   14  C   UNL     1      -9.378   9.250  69.048  1.00  0.00    -0.151 A  
HETATM   15  C   UNL     1     -10.720   9.959  70.933  1.00  0.00    -0.305 A  
HETATM   16  C   UNL     1     -11.453  10.831  70.110  1.00  0.00    -0.415 A  
HETATM   17  C   UNL     1     -10.321   9.832  68.199  1.00  0.00    -0.241 A  
HETATM   18  C   UNL     1      -9.647   9.221  70.416  1.00  0.00    -0.292 A  
HETATM   19  C   UNL     1     -11.334  10.632  68.726  1.00  0.00    -0.339 A  
BRANCH  16  20
HETATM   20  C   UNL     1     -12.195  12.009  70.649  1.00  0.00    -0.409 A  
HETATM   21  C   UNL     1     -13.116  11.820  71.708  1.00  0.00    -0.480 A  
HETATM   22  C   UNL     1     -12.116  13.320  70.089  1.00  0.00    -0.403 A  
HETATM   23  C   UNL     1     -13.907  12.859  72.208  1.00  0.00    -0.464 A  
HETATM   24  C   UNL     1     -12.880  14.366  70.655  1.00  0.00    -0.390 A  
HETATM   25  C   UNL     1     -13.774  14.139  71.695  1.00  0.00    -0.447 A  
BRANCH  22  26
HETATM   26  C   UNL     1     -11.336  13.699  68.903  1.00  0.00    -0.290 A  
HETATM   27  N   UNL     1     -10.121  14.218  68.886  1.00  0.00    -0.329 NA 
HETATM   28  H   UNL     1      -9.536  14.425  69.695  1.00  0.00     0.000 HD 
HETATM   29  N   UNL     1      -9.796  14.425  67.567  1.00  0.00    -0.218 NA 
HETATM   30  N   UNL     1     -10.794  14.068  66.774  1.00  0.00    -0.292 NA 
HETATM   31  N   UNL     1     -11.766  13.661  67.602  1.00  0.00    -0.342 NA 
ENDBRANCH  22  26
ENDBRANCH  16  20
ENDBRANCH  13  14
ENDBRANCH   9  13
BRANCH   8  32
HETATM   32  C   UNL     1      -8.979   5.639  69.785  1.00  0.00    -0.127 C  
HETATM   33  O   UNL     1      -8.047   6.240  70.291  1.00  0.00    -0.112 OA 
BRANCH  32  34
HETATM   34  O   UNL     1     -10.076   5.209  70.459  1.00  0.00    -0.220 OA 
BRANCH  34  35
HETATM   35  C   UNL     1     -10.488   6.129  71.481  1.00  0.00    -0.222 C  
HETATM   36  C   UNL     1     -11.887   6.595  71.076  1.00  0.00    -0.427 C  
BRANCH  35  37
HETATM   37  O   UNL     1     -10.660   5.506  72.754  1.00  0.00    -0.199 OA 
BRANCH  37  38
HETATM   38  C   UNL     1      -9.778   4.530  73.061  1.00  0.00    -0.137 C  
HETATM   39  O   UNL     1     -10.023   3.340  73.165  1.00  0.00    -0.118 OA 
BRANCH  38  40
HETATM   40  O   UNL     1      -8.579   5.124  73.201  1.00  0.00    -0.110 OA 
BRANCH  40  41
HETATM   41  C   UNL     1      -8.179   5.890  74.360  1.00  0.00    -0.112 C  
HETATM   42  C   UNL     1      -6.287   8.127  73.840  1.00  0.00    -0.126 C  
HETATM   43  C   UNL     1      -6.661   5.737  74.490  1.00  0.00    -0.076 C  
HETATM   44  C   UNL     1      -5.920   6.679  73.547  1.00  0.00    -0.058 C  
HETATM   45  C   UNL     1      -7.789   8.377  73.741  1.00  0.00    -0.176 C  
HETATM   46  C   UNL     1      -8.636   7.346  74.492  1.00  0.00    -0.218 C  
ENDBRANCH  40  41
ENDBRANCH  38  40
ENDBRANCH  37  38
ENDBRANCH  35  37
ENDBRANCH  34  35
ENDBRANCH  32  34
ENDBRANCH   8  32
ENDBRANCH   3   4
ENDBRANCH   2   3
TORSDOF 13
ENDMDL
MODEL      189
REMARK 921   NORMALIZED FREE ENERGY PREDICTED BY IDOCK:   -5.21 KCAL/MOL
REMARK 922        TOTAL FREE ENERGY PREDICTED BY IDOCK:  -11.62 KCAL/MOL
REMARK 923 INTER-LIGAND FREE ENERGY PREDICTED BY IDOCK:   -9.17 KCAL/MOL
REMARK 924 INTRA-LIGAND FREE ENERGY PREDICTED BY IDOCK:   -2.45 KCAL/MOL
REMARK 927      BINDING AFFINITY PREDICTED BY RF-SCORE:    0.00 PKD
ROOT
HETATM    1  C   UNL     1      -9.555   3.226  64.685  1.00  0.00    -0.156 C  
HETATM    2  C   UNL     1     -10.394   4.339  65.287  1.00  0.00    -0.201 C  
ENDROOT
BRANCH   2   3
HETATM    3  O   UNL     1      -9.642   4.925  66.355  1.00  0.00    -0.143 OA 
BRANCH   3   4
HETATM    4  C   UNL     1      -8.991   6.040  66.033  1.00  0.00    -0.147 A  
HETATM    5  N   UNL     1      -7.798   6.075  65.487  1.00  0.00    -0.099 NA 
HETATM    6  C   UNL     1      -7.520   7.403  65.338  1.00  0.00    -0.090 A  
HETATM    7  C   UNL     1      -8.596   8.220  65.736  1.00  0.00    -0.161 A  
HETATM    8  C   UNL     1      -8.523   9.621  65.536  1.00  0.00    -0.151 A  
HETATM    9  N   UNL     1      -9.483   7.303  66.286  1.00  0.00    -0.123 NA 
HETATM   10  C   UNL     1      -6.221   9.339  64.716  1.00  0.00    -0.071 A  
HETATM   11  C   UNL     1      -6.323   7.961  64.859  1.00  0.00    -0.048 A  
HETATM   12  C   UNL     1      -7.314  10.142  65.020  1.00  0.00    -0.139 A  
BRANCH   9  13
HETATM   13  C   UNL     1     -10.636   7.516  67.162  1.00  0.00    -0.345 C  
BRANCH  13  14
HETATM   14  C   UNL     1     -10.369   7.140  68.597  1.00  0.00    -0.200 A  
HETATM   15  C   UNL     1     -10.807   5.781  70.550  1.00  0.00    -0.348 A  
HETATM   16  C   UNL     1      -9.480   5.943  70.987  1.00  0.00    -0.189 A  
HETATM   17  C   UNL     1      -9.192   7.580  69.206  1.00  0.00    -0.144 A  
HETATM   18  C   UNL     1     -11.229   6.324  69.330  1.00  0.00    -0.489 A  
HETATM   19  C   UNL     1      -8.743   6.971  70.377  1.00  0.00    -0.147 A  
BRANCH  16  20
HETATM   20  C   UNL     1      -8.822   4.989  71.927  1.00  0.00    -0.140 A  
HETATM   21  C   UNL     1      -9.144   3.612  71.852  1.00  0.00    -0.161 A  
HETATM   22  C   UNL     1      -7.952   5.391  72.986  1.00  0.00    -0.101 A  
HETATM   23  C   UNL     1      -8.631   2.672  72.752  1.00  0.00    -0.073 A  
HETATM   24  C   UNL     1      -7.398   4.413  73.841  1.00  0.00    -0.069 A  
HETATM   25  C   UNL     1      -7.740   3.069  73.735  1.00  0.00    -0.060 A  
BRANCH  22  26
HETATM   26  C   UNL     1      -7.604   6.777  73.327  1.00  0.00    -0.089 A  
HETATM   27  N   UNL     1      -6.460   7.392  73.079  1.00  0.00    -0.059 NA 
HETATM   28  H   UNL     1      -5.649   6.998  72.602  1.00  0.00     0.000 HD 
HETATM   29  N   UNL     1      -6.575   8.663  73.586  1.00  0.00    -0.270 NA 
HETATM   30  N   UNL     1      -7.754   8.837  74.163  1.00  0.00    -0.405 NA 
HETATM   31  N   UNL     1      -8.375   7.655  74.044  1.00  0.00    -0.193 NA 
ENDBRANCH  22  26
ENDBRANCH  16  20
ENDBRANCH  13  14
ENDBRANCH   9  13
BRANCH   8  32
HETATM   32  C   UNL     1      -9.555  10.596  65.963  1.00  0.00    -0.198 C  
HETATM   33  O   UNL     1     -10.567  10.822  65.322  1.00  0.00    -0.249 OA 
BRANCH  32  34
HETATM   34  O   UNL     1      -9.338  11.016  67.236  1.00  0.00    -0.155 OA 
BRANCH  34  35
HETATM   35  C   UNL     1     -10.509  11.598  67.828  1.00  0.00    -0.187 C  
HETATM   36  C   UNL     1     -10.573  11.039  69.250  1.00  0.00    -0.236 C  
BRANCH  35  37
HETATM   37  O   UNL     1     -10.405  13.013  67.992  1.00  0.00    -0.221 OA 
BRANCH  37  38
HETATM   38  C   UNL     1     -11.347  13.753  67.366  1.00  0.00    -0.324 C  
HETATM   39  O   UNL     1     -12.193  13.343  66.591  1.00  0.00    -0.388 OA 
BRANCH  38  40
HETATM   40  O   UNL     1     -11.183  15.021  67.788  1.00  0.00    -0.299 OA 
BRANCH  40  41
HETATM   41  C   UNL     1      -9.996  15.812  67.549  1.00  0.00    -0.236 C  
HETATM   42  C   UNL     1     -10.436  18.416  66.177  1.00  0.00    -0.422 C  
HETATM   43  C   UNL     1      -9.874  15.979  66.033  1.00  0.00    -0.365 C  
HETATM   44  C   UNL     1     -10.782  17.090  65.515  1.00  0.00    -0.146 C  
HETATM   45  C   UNL     1     -10.524  18.346  67.699  1.00  0.00    -0.445 C  
HETATM   46  C   UNL     1      -9.811  17.133  68.303  1.00  0.00    -0.288 C  
ENDBRANCH  40  41
ENDBRANCH  38  40
ENDBRANCH  37  38
ENDBRANCH  35  37
ENDBRANCH  34  35
ENDBRANCH  32  34
ENDBRANCH   8  32
ENDBRANCH   3   4
ENDBRANCH   2   3
TORSDOF 13
ENDMDL
MODEL      190
REMARK 921   NORMALIZED FREE ENERGY PREDICTED BY IDOCK:   -5.21 KCAL/MOL
REMARK 922        TOTAL FREE ENERGY PREDICTED BY IDOCK:  -11.62 KCAL/MOL
REMARK 923 INTER-LIGAND FREE ENERGY PREDICTED BY IDOCK:   -9.03 KCAL/MOL
REMARK 924 INTRA-LIGAND FREE ENERGY PREDICTED BY IDOCK:   -2.59 KCAL/MOL
REMARK 927      BINDING AFFINITY PREDICTED BY RF-SCORE:    0.00 PKD
ROOT
HETATM    1  C   UNL     1      -7.392   8.742  63.398  1.00  0.00    -0.100 C  
HETATM    2  C   UNL     1      -7.964   7.335  63.379  1.00  0.00    -0.069 C  
ENDROOT
BRANCH   2   3
HETATM    3  O   UNL     1      -8.812   7.193  64.523  1.00  0.00     0.368 OA 
BRANCH   3   4
HETATM    4  C   UNL     1      -8.172   7.134  65.688  1.00  0.00    -0.138 A  
HETATM    5  N   UNL     1      -7.067   6.457  65.898  1.00  0.00    -0.065 NA 
HETATM    6  C   UNL     1      -6.771   6.668  67.213  1.00  0.00    -0.063 A  
HETATM    7  C   UNL     1      -7.675   7.557  67.826  1.00  0.00    -0.115 A  
HETATM    8  C   UNL     1      -7.446   7.982  69.158  1.00  0.00    -0.095 A  
HETATM    9  N   UNL     1      -8.632   7.744  66.836  1.00  0.00    -0.127 NA 
HETATM   10  C   UNL     1      -5.516   6.460  69.263  1.00  0.00    -0.013 A  
HETATM   11  C   UNL     1      -5.712   6.095  67.938  1.00  0.00    -0.009 A  
HETATM   12  C   UNL     1      -6.350   7.408  69.844  1.00  0.00    -0.031 A  
BRANCH   9  13
HETATM   13  C   UNL     1      -9.988   8.286  66.927  1.00  0.00    -0.273 C  
BRANCH  13  14
HETATM   14  C   UNL     1     -10.055   9.768  66.661  1.00  0.00    -0.303 A  
HETATM   15  C   UNL     1     -10.453  12.039  67.394  1.00  0.00    -0.239 A  
HETATM   16  C   UNL     1      -9.542  12.529  66.442  1.00  0.00    -0.247 A  
HETATM   17  C   UNL     1      -9.444  10.280  65.514  1.00  0.00    -0.277 A  
HETATM   18  C   UNL     1     -10.659  10.662  67.544  1.00  0.00    -0.297 A  
HETATM   19  C   UNL     1      -9.172  11.644  65.418  1.00  0.00    -0.077 A  
BRANCH  16  20
HETATM   20  C   UNL     1      -8.871  13.855  66.581  1.00  0.00    -0.105 A  
HETATM   21  C   UNL     1      -7.818  14.002  67.517  1.00  0.00    -0.197 A  
HETATM   22  C   UNL     1      -9.295  15.034  65.897  1.00  0.00    -0.249 A  
HETATM   23  C   UNL     1      -7.199  15.232  67.762  1.00  0.00    -0.184 A  
HETATM   24  C   UNL     1      -8.610  16.251  66.116  1.00  0.00    -0.342 A  
HETATM   25  C   UNL     1      -7.580  16.354  67.045  1.00  0.00    -0.240 A  
BRANCH  22  26
HETATM   26  C   UNL     1     -10.452  15.132  64.996  1.00  0.00    -0.389 A  
HETATM   27  N   UNL     1     -10.875  14.213  64.146  1.00  0.00    -0.516 NA 
HETATM   28  H   UNL     1     -10.466  13.291  63.994  1.00  0.00     0.000 HD 
HETATM   29  N   UNL     1     -11.970  14.738  63.506  1.00  0.00     0.029 NA 
HETATM   30  N   UNL     1     -12.216  15.970  63.925  1.00  0.00    -0.803 NA 
HETATM   31  N   UNL     1     -11.249  16.232  64.815  1.00  0.00    -0.497 NA 
ENDBRANCH  22  26
ENDBRANCH  16  20
ENDBRANCH  13  14
ENDBRANCH   9  13
BRANCH   8  32
HETATM   32  C   UNL     1      -8.348   8.863  69.938  1.00  0.00    -0.128 C  
HETATM   33  O   UNL     1      -8.319  10.080  69.867  1.00  0.00    -0.181 OA 
BRANCH  32  34
HETATM   34  O   UNL     1      -9.331   8.149  70.544  1.00  0.00    -0.153 OA 
BRANCH  34  35
HETATM   35  C   UNL     1     -10.037   8.916  71.531  1.00  0.00    -0.324 C  
HETATM   36  C   UNL     1     -11.382   9.270  70.893  1.00  0.00    -0.373 C  
BRANCH  35  37
HETATM   37  O   UNL     1     -10.369   8.156  72.693  1.00  0.00    -0.295 OA 
BRANCH  37  38
HETATM   38  C   UNL     1      -9.358   7.927  73.561  1.00  0.00    -0.268 C  
HETATM   39  O   UNL     1      -8.311   8.546  73.631  1.00  0.00    -0.373 OA 
BRANCH  38  40
HETATM   40  O   UNL     1      -9.747   6.903  74.343  1.00  0.00    -0.273 OA 
BRANCH  40  41
HETATM   41  C   UNL     1      -9.199   5.567  74.269  1.00  0.00    -0.123 C  
HETATM   42  C   UNL     1      -9.012   4.400  71.538  1.00  0.00    -0.162 C  
HETATM   43  C   UNL     1     -10.290   4.674  73.674  1.00  0.00    -0.249 C  
HETATM   44  C   UNL     1     -10.347   4.792  72.155  1.00  0.00    -0.256 C  
HETATM   45  C   UNL     1      -7.855   5.236  72.076  1.00  0.00    -0.108 C  
HETATM   46  C   UNL     1      -7.836   5.351  73.603  1.00  0.00    -0.102 C  
ENDBRANCH  40  41
ENDBRANCH  38  40
ENDBRANCH  37  38
ENDBRANCH  35  37
ENDBRANCH  34  35
ENDBRANCH  32  34
ENDBRANCH   8  32
ENDBRANCH   3   4
ENDBRANCH   2   3
TORSDOF 13
ENDMDL
MODEL      191
REMARK 921   NORMALIZED FREE ENERGY PREDICTED BY IDOCK:   -5.21 KCAL/MOL
REMARK 922        TOTAL FREE ENERGY PREDICTED BY IDOCK:  -11.62 KCAL/MOL
REMARK 923 INTER-LIGAND FREE ENERGY PREDICTED BY IDOCK:   -9.83 KCAL/MOL
REMARK 924 INTRA-LIGAND FREE ENERGY PREDICTED BY IDOCK:   -1.78 KCAL/MOL
REMARK 927      BINDING AFFINITY PREDICTED BY RF-SCORE:    0.00 PKD
ROOT
HETATM    1  C   UNL     1     -13.669  14.287  72.460  1.00  0.00    -0.608 C  
HETATM    2  C   UNL     1     -12.406  14.182  71.624  1.00  0.00    -0.265 C  
ENDROOT
BRANCH   2   3
HETATM    3  O   UNL     1     -12.757  13.575  70.376  1.00  0.00    -0.223 OA 
BRANCH   3   4
HETATM    4  C   UNL     1     -11.889  13.784  69.390  1.00  0.00    -0.341 A  
HETATM    5  N   UNL     1     -11.477  14.968  68.999  1.00  0.00    -0.286 NA 
HETATM    6  C   UNL     1     -10.612  14.717  67.974  1.00  0.00    -0.240 A  
HETATM    7  C   UNL     1     -10.423  13.336  67.762  1.00  0.00    -0.239 A  
HETATM    8  C   UNL     1      -9.465  12.897  66.815  1.00  0.00    -0.245 A  
HETATM    9  N   UNL     1     -11.355  12.770  68.623  1.00  0.00    -0.271 NA 
HETATM   10  C   UNL     1      -9.061  15.245  66.202  1.00  0.00    -0.314 A  
HETATM   11  C   UNL     1      -9.957  15.669  67.174  1.00  0.00    -0.240 A  
HETATM   12  C   UNL     1      -8.802  13.887  66.054  1.00  0.00     0.530 A  
BRANCH   9  13
HETATM   13  C   UNL     1     -11.898  11.412  68.662  1.00  0.00    -0.310 C  
BRANCH  13  14
HETATM   14  C   UNL     1     -11.387  10.601  69.825  1.00  0.00    -0.371 A  
HETATM   15  C   UNL     1     -11.741   9.421  71.908  1.00  0.00    -0.376 A  
HETATM   16  C   UNL     1     -10.674   8.553  71.623  1.00  0.00    -0.351 A  
HETATM   17  C   UNL     1     -10.139   9.982  69.724  1.00  0.00    -0.284 A  
HETATM   18  C   UNL     1     -12.134  10.398  70.984  1.00  0.00    -0.488 A  
HETATM   19  C   UNL     1      -9.797   8.954  70.602  1.00  0.00    -0.261 A  
BRANCH  16  20
HETATM   20  C   UNL     1     -10.549   7.202  72.246  1.00  0.00    -0.244 A  
HETATM   21  C   UNL     1     -11.666   6.331  72.237  1.00  0.00    -0.344 A  
HETATM   22  C   UNL     1      -9.391   6.759  72.954  1.00  0.00    -0.151 A  
HETATM   23  C   UNL     1     -11.650   5.086  72.873  1.00  0.00    -0.261 A  
HETATM   24  C   UNL     1      -9.380   5.469  73.532  1.00  0.00    -0.137 A  
HETATM   25  C   UNL     1     -10.499   4.644  73.503  1.00  0.00    -0.275 A  
BRANCH  22  26
HETATM   26  C   UNL     1      -8.183   7.557  73.204  1.00  0.00    -0.122 A  
HETATM   27  N   UNL     1      -6.936   7.215  72.929  1.00  0.00    -0.068 NA 
HETATM   28  H   UNL     1      -6.625   6.348  72.492  1.00  0.00     0.000 HD 
HETATM   29  N   UNL     1      -6.139   8.253  73.346  1.00  0.00    -0.091 NA 
HETATM   30  N   UNL     1      -6.865   9.216  73.893  1.00  0.00    -0.277 NA 
HETATM   31  N   UNL     1      -8.127   8.766  73.848  1.00  0.00    -0.322 NA 
ENDBRANCH  22  26
ENDBRANCH  16  20
ENDBRANCH  13  14
ENDBRANCH   9  13
BRANCH   8  32
HETATM   32  C   UNL     1      -9.213  11.482  66.454  1.00  0.00    -0.208 C  
HETATM   33  O   UNL     1      -8.202  10.880  66.776  1.00  0.00    -0.130 OA 
BRANCH  32  34
HETATM   34  O   UNL     1     -10.324  10.899  65.936  1.00  0.00    -0.251 OA 
BRANCH  34  35
HETATM   35  C   UNL     1     -10.170  10.558  64.551  1.00  0.00    -0.285 C  
HETATM   36  C   UNL     1     -10.669  11.774  63.769  1.00  0.00    -0.480 C  
BRANCH  35  37
HETATM   37  O   UNL     1      -8.804  10.406  64.164  1.00  0.00    -0.189 OA 
BRANCH  37  38
HETATM   38  C   UNL     1      -8.480   9.232  63.579  1.00  0.00    -0.197 C  
HETATM   39  O   UNL     1      -8.644   8.937  62.408  1.00  0.00    -0.209 OA 
BRANCH  38  40
HETATM   40  O   UNL     1      -7.918   8.468  64.534  1.00  0.00    -0.130 OA 
BRANCH  40  41
HETATM   41  C   UNL     1      -6.578   7.928  64.463  1.00  0.00    -0.056 C  
HETATM   42  C   UNL     1      -6.382   4.959  64.459  1.00  0.00    -0.034 C  
HETATM   43  C   UNL     1      -6.361   7.112  65.739  1.00  0.00    -0.044 C  
HETATM   44  C   UNL     1      -6.983   5.723  65.630  1.00  0.00    -0.068 C  
HETATM   45  C   UNL     1      -6.544   5.700  63.136  1.00  0.00    -0.032 C  
HETATM   46  C   UNL     1      -6.138   7.176  63.202  1.00  0.00    -0.045 C  
ENDBRANCH  40  41
ENDBRANCH  38  40
ENDBRANCH  37  38
ENDBRANCH  35  37
ENDBRANCH  34  35
ENDBRANCH  32  34
ENDBRANCH   8  32
ENDBRANCH   3   4
ENDBRANCH   2   3
TORSDOF 13
ENDMDL
MODEL      192
REMARK 921   NORMALIZED FREE ENERGY PREDICTED BY IDOCK:   -5.19 KCAL/MOL
REMARK 922        TOTAL FREE ENERGY PREDICTED BY IDOCK:  -11.59 KCAL/MOL
REMARK 923 INTER-LIGAND FREE ENERGY PREDICTED BY IDOCK:  -10.72 KCAL/MOL
REMARK 924 INTRA-LIGAND FREE ENERGY PREDICTED BY IDOCK:   -0.87 KCAL/MOL
REMARK 927      BINDING AFFINITY PREDICTED BY RF-SCORE:    0.00 PKD
ROOT
HETATM    1  C   UNL     1     -11.866  12.694  63.347  1.00  0.00    -0.594 C  
HETATM    2  C   UNL     1     -11.015  11.580  63.930  1.00  0.00    -0.401 C  
ENDROOT
BRANCH   2   3
HETATM    3  O   UNL     1     -10.101  12.169  64.860  1.00  0.00    -0.266 OA 
BRANCH   3   4
HETATM    4  C   UNL     1      -9.660  11.345  65.807  1.00  0.00    -0.233 A  
HETATM    5  N   UNL     1      -8.635  10.536  65.673  1.00  0.00    -0.170 NA 
HETATM    6  C   UNL     1      -8.544   9.883  66.868  1.00  0.00    -0.128 A  
HETATM    7  C   UNL     1      -9.494  10.345  67.800  1.00  0.00    -0.145 A  
HETATM    8  C   UNL     1      -9.463   9.860  69.131  1.00  0.00    -0.201 A  
HETATM    9  N   UNL     1     -10.270  11.208  67.036  1.00  0.00    -0.207 NA 
HETATM   10  C   UNL     1      -7.646   8.333  68.484  1.00  0.00    -0.100 A  
HETATM   11  C   UNL     1      -7.643   8.857  67.198  1.00  0.00    -0.092 A  
HETATM   12  C   UNL     1      -8.519   8.851  69.433  1.00  0.00    -0.124 A  
BRANCH   9  13
HETATM   13  C   UNL     1     -11.597  11.765  67.300  1.00  0.00    -0.269 C  
BRANCH  13  14
HETATM   14  C   UNL     1     -11.570  13.237  67.626  1.00  0.00    -0.386 A  
HETATM   15  C   UNL     1     -10.830  15.095  68.987  1.00  0.00    -0.242 A  
HETATM   16  C   UNL     1     -10.920  15.964  67.886  1.00  0.00    -0.327 A  
HETATM   17  C   UNL     1     -11.990  14.153  66.660  1.00  0.00    -0.470 A  
HETATM   18  C   UNL     1     -11.093  13.727  68.840  1.00  0.00    -0.300 A  
HETATM   19  C   UNL     1     -11.648  15.499  66.780  1.00  0.00     0.132 A  
BRANCH  16  20
HETATM   20  C   UNL     1     -10.160  17.247  67.812  1.00  0.00    -0.311 A  
HETATM   21  C   UNL     1     -10.856  18.447  67.528  1.00  0.00    -0.304 A  
HETATM   22  C   UNL     1      -8.738  17.333  67.907  1.00  0.00    -0.231 A  
HETATM   23  C   UNL     1     -10.202  19.672  67.361  1.00  0.00    -0.561 A  
HETATM   24  C   UNL     1      -8.108  18.594  67.798  1.00  0.00    -0.269 A  
HETATM   25  C   UNL     1      -8.828  19.750  67.518  1.00  0.00    -0.391 A  
BRANCH  22  26
HETATM   26  C   UNL     1      -7.819  16.196  68.056  1.00  0.00    -0.144 A  
HETATM   27  N   UNL     1      -7.357  15.692  69.187  1.00  0.00    -0.172 NA 
HETATM   28  H   UNL     1      -7.578  16.012  70.130  1.00  0.00     0.000 HD 
HETATM   29  N   UNL     1      -6.523  14.656  68.848  1.00  0.00    -0.087 NA 
HETATM   30  N   UNL     1      -6.442  14.525  67.533  1.00  0.00    -0.309 NA 
HETATM   31  N   UNL     1      -7.208  15.508  67.040  1.00  0.00    -0.188 NA 
ENDBRANCH  22  26
ENDBRANCH  16  20
ENDBRANCH  13  14
ENDBRANCH   9  13
BRANCH   8  32
HETATM   32  C   UNL     1     -10.438  10.216  70.189  1.00  0.00    -0.255 C  
HETATM   33  O   UNL     1     -11.389  10.955  70.000  1.00  0.00    -0.288 OA 
BRANCH  32  34
HETATM   34  O   UNL     1     -10.266   9.449  71.296  1.00  0.00    -0.315 OA 
BRANCH  34  35
HETATM   35  C   UNL     1     -11.433   8.679  71.617  1.00  0.00    -0.305 C  
HETATM   36  C   UNL     1     -12.603   9.663  71.568  1.00  0.00    -0.483 C  
BRANCH  35  37
HETATM   37  O   UNL     1     -11.738   7.693  70.630  1.00  0.00    -0.273 OA 
BRANCH  37  38
HETATM   38  C   UNL     1     -10.808   6.730  70.446  1.00  0.00    -0.262 C  
HETATM   39  O   UNL     1     -10.211   6.125  71.319  1.00  0.00    -0.198 OA 
BRANCH  38  40
HETATM   40  O   UNL     1     -10.693   6.554  69.117  1.00  0.00    -0.224 OA 
BRANCH  40  41
HETATM   41  C   UNL     1     -10.481   5.273  68.480  1.00  0.00    -0.077 C  
HETATM   42  C   UNL     1      -8.501   5.249  66.259  1.00  0.00    -0.115 C  
HETATM   43  C   UNL     1     -10.882   5.437  67.012  1.00  0.00    -0.118 C  
HETATM   44  C   UNL     1      -9.770   6.087  66.195  1.00  0.00    -0.060 C  
HETATM   45  C   UNL     1      -8.023   5.025  67.690  1.00  0.00    -0.095 C  
HETATM   46  C   UNL     1      -9.130   4.568  68.645  1.00  0.00    -0.164 C  
ENDBRANCH  40  41
ENDBRANCH  38  40
ENDBRANCH  37  38
ENDBRANCH  35  37
ENDBRANCH  34  35
ENDBRANCH  32  34
ENDBRANCH   8  32
ENDBRANCH   3   4
ENDBRANCH   2   3
TORSDOF 13
ENDMDL
MODEL      193
REMARK 921   NORMALIZED FREE ENERGY PREDICTED BY IDOCK:   -5.16 KCAL/MOL
REMARK 922        TOTAL FREE ENERGY PREDICTED BY IDOCK:  -11.53 KCAL/MOL
REMARK 923 INTER-LIGAND FREE ENERGY PREDICTED BY IDOCK:   -9.23 KCAL/MOL
REMARK 924 INTRA-LIGAND FREE ENERGY PREDICTED BY IDOCK:   -2.31 KCAL/MOL
REMARK 927      BINDING AFFINITY PREDICTED BY RF-SCORE:    0.00 PKD
ROOT
HETATM    1  C   UNL     1     -12.702  12.990  63.090  1.00  0.00     0.146 C  
HETATM    2  C   UNL     1     -11.886  11.788  63.532  1.00  0.00    -0.378 C  
ENDROOT
BRANCH   2   3
HETATM    3  O   UNL     1     -10.506  12.088  63.303  1.00  0.00    -0.431 OA 
BRANCH   3   4
HETATM    4  C   UNL     1      -9.651  11.201  63.805  1.00  0.00    -0.271 A  
HETATM    5  N   UNL     1      -9.512   9.971  63.370  1.00  0.00    -0.268 NA 
HETATM    6  C   UNL     1      -8.547   9.424  64.164  1.00  0.00    -0.198 A  
HETATM    7  C   UNL     1      -8.016  10.358  65.076  1.00  0.00    -0.126 A  
HETATM    8  C   UNL     1      -6.920   9.992  65.896  1.00  0.00    -0.113 A  
HETATM    9  N   UNL     1      -8.838  11.462  64.888  1.00  0.00     0.094 NA 
HETATM   10  C   UNL     1      -7.057   7.712  64.982  1.00  0.00    -0.063 A  
HETATM   11  C   UNL     1      -8.091   8.095  64.139  1.00  0.00    -0.128 A  
HETATM   12  C   UNL     1      -6.468   8.654  65.817  1.00  0.00    -0.056 A  
BRANCH   9  13
HETATM   13  C   UNL     1      -9.038  12.642  65.730  1.00  0.00     0.282 C  
BRANCH  13  14
HETATM   14  C   UNL     1     -10.073  12.435  66.807  1.00  0.00    -0.226 A  
HETATM   15  C   UNL     1     -10.702  11.761  69.044  1.00  0.00    -0.209 A  
HETATM   16  C   UNL     1     -11.777  12.666  69.038  1.00  0.00    -0.367 A  
HETATM   17  C   UNL     1     -11.319  13.050  66.676  1.00  0.00    -0.366 A  
HETATM   18  C   UNL     1      -9.818  11.694  67.959  1.00  0.00    -0.193 A  
HETATM   19  C   UNL     1     -12.152  13.182  67.787  1.00  0.00    -0.262 A  
BRANCH  16  20
HETATM   20  C   UNL     1     -12.397  13.187  70.292  1.00  0.00    -0.319 A  
HETATM   21  C   UNL     1     -12.431  14.585  70.517  1.00  0.00    -0.408 A  
HETATM   22  C   UNL     1     -12.871  12.351  71.348  1.00  0.00    -0.360 A  
HETATM   23  C   UNL     1     -12.920  15.140  71.704  1.00  0.00    -0.454 A  
HETATM   24  C   UNL     1     -13.419  12.940  72.510  1.00  0.00    -0.456 A  
HETATM   25  C   UNL     1     -13.434  14.319  72.693  1.00  0.00    -0.623 A  
BRANCH  22  26
HETATM   26  C   UNL     1     -12.796  10.884  71.378  1.00  0.00    -0.449 A  
HETATM   27  N   UNL     1     -11.699  10.146  71.389  1.00  0.00    -0.338 NA 
HETATM   28  H   UNL     1     -10.737  10.486  71.389  1.00  0.00     0.000 HD 
HETATM   29  N   UNL     1     -12.104   8.834  71.402  1.00  0.00    -0.297 NA 
HETATM   30  N   UNL     1     -13.425   8.747  71.374  1.00  0.00    -0.290 NA 
HETATM   31  N   UNL     1     -13.854  10.015  71.312  1.00  0.00    -0.054 NA 
ENDBRANCH  22  26
ENDBRANCH  16  20
ENDBRANCH  13  14
ENDBRANCH   9  13
BRANCH   8  32
HETATM   32  C   UNL     1      -6.309  10.855  66.935  1.00  0.00    -0.088 C  
HETATM   33  O   UNL     1      -5.413  11.648  66.703  1.00  0.00    -0.131 OA 
BRANCH  32  34
HETATM   34  O   UNL     1      -7.018  10.810  68.092  1.00  0.00    -0.071 OA 
BRANCH  34  35
HETATM   35  C   UNL     1      -6.641   9.703  68.924  1.00  0.00    -0.046 C  
HETATM   36  C   UNL     1      -5.318  10.110  69.576  1.00  0.00    -0.038 C  
BRANCH  35  37
HETATM   37  O   UNL     1      -7.540   9.495  70.014  1.00  0.00    -0.096 OA 
BRANCH  37  38
HETATM   38  C   UNL     1      -8.604   8.701  69.762  1.00  0.00    -0.131 C  
HETATM   39  O   UNL     1      -9.077   8.451  68.667  1.00  0.00    -0.140 OA 
BRANCH  38  40
HETATM   40  O   UNL     1      -9.018   8.223  70.950  1.00  0.00    -0.139 OA 
BRANCH  40  41
HETATM   41  C   UNL     1      -8.644   6.932  71.483  1.00  0.00    -0.122 C  
HETATM   42  C   UNL     1      -9.588   6.356  74.247  1.00  0.00    -0.256 C  
HETATM   43  C   UNL     1      -7.786   7.197  72.723  1.00  0.00    -0.100 C  
HETATM   44  C   UNL     1      -8.645   7.512  73.944  1.00  0.00    -0.264 C  
HETATM   45  C   UNL     1     -10.485   6.011  73.062  1.00  0.00    -0.246 C  
HETATM   46  C   UNL     1      -9.731   5.881  71.735  1.00  0.00    -0.178 C  
ENDBRANCH  40  41
ENDBRANCH  38  40
ENDBRANCH  37  38
ENDBRANCH  35  37
ENDBRANCH  34  35
ENDBRANCH  32  34
ENDBRANCH   8  32
ENDBRANCH   3   4
ENDBRANCH   2   3
TORSDOF 13
ENDMDL
MODEL      194
REMARK 921   NORMALIZED FREE ENERGY PREDICTED BY IDOCK:   -5.15 KCAL/MOL
REMARK 922        TOTAL FREE ENERGY PREDICTED BY IDOCK:  -11.52 KCAL/MOL
REMARK 923 INTER-LIGAND FREE ENERGY PREDICTED BY IDOCK:  -10.35 KCAL/MOL
REMARK 924 INTRA-LIGAND FREE ENERGY PREDICTED BY IDOCK:   -1.17 KCAL/MOL
REMARK 927      BINDING AFFINITY PREDICTED BY RF-SCORE:    0.00 PKD
ROOT
HETATM    1  C   UNL     1     -11.676  13.823  64.547  1.00  0.00    -0.432 C  
HETATM    2  C   UNL     1     -12.108  12.765  63.547  1.00  0.00    -0.559 C  
ENDROOT
BRANCH   2   3
HETATM    3  O   UNL     1     -11.892  11.483  64.145  1.00  0.00    -0.221 OA 
BRANCH   3   4
HETATM    4  C   UNL     1     -10.631  11.062  64.122  1.00  0.00    -0.342 A  
HETATM    5  N   UNL     1      -9.830  11.163  63.087  1.00  0.00    -0.355 NA 
HETATM    6  C   UNL     1      -8.654  10.607  63.497  1.00  0.00    -0.124 A  
HETATM    7  C   UNL     1      -8.696  10.209  64.848  1.00  0.00    -0.181 A  
HETATM    8  C   UNL     1      -7.521   9.721  65.472  1.00  0.00    -0.115 A  
HETATM    9  N   UNL     1     -10.029  10.416  65.181  1.00  0.00    -0.306 NA 
HETATM   10  C   UNL     1      -6.361   9.879  63.308  1.00  0.00    -0.124 A  
HETATM   11  C   UNL     1      -7.500  10.413  62.719  1.00  0.00    -0.129 A  
HETATM   12  C   UNL     1      -6.370   9.572  64.663  1.00  0.00    -0.084 A  
BRANCH   9  13
HETATM   13  C   UNL     1     -10.805   9.912  66.314  1.00  0.00     0.212 C  
BRANCH  13  14
HETATM   14  C   UNL     1     -10.781  10.833  67.507  1.00  0.00    -0.312 A  
HETATM   15  C   UNL     1     -10.763  13.050  68.476  1.00  0.00    -0.275 A  
HETATM   16  C   UNL     1     -11.422  12.578  69.624  1.00  0.00    -0.255 A  
HETATM   17  C   UNL     1     -11.101  10.321  68.766  1.00  0.00    -0.276 A  
HETATM   18  C   UNL     1     -10.502  12.194  67.398  1.00  0.00    -0.233 A  
HETATM   19  C   UNL     1     -11.439  11.186  69.806  1.00  0.00    -0.388 A  
BRANCH  16  20
HETATM   20  C   UNL     1     -12.203  13.473  70.527  1.00  0.00    -0.433 A  
HETATM   21  C   UNL     1     -13.145  12.904  71.418  1.00  0.00    -0.331 A  
HETATM   22  C   UNL     1     -12.139  14.899  70.480  1.00  0.00    -0.378 A  
HETATM   23  C   UNL     1     -13.972  13.684  72.234  1.00  0.00    -0.661 A  
HETATM   24  C   UNL     1     -12.939  15.661  71.361  1.00  0.00    -0.555 A  
HETATM   25  C   UNL     1     -13.854  15.063  72.222  1.00  0.00    -0.596 A  
BRANCH  22  26
HETATM   26  C   UNL     1     -11.338  15.689  69.535  1.00  0.00    -0.327 A  
HETATM   27  N   UNL     1     -10.143  16.212  69.752  1.00  0.00    -0.215 NA 
HETATM   28  H   UNL     1      -9.592  16.136  70.606  1.00  0.00     0.000 HD 
HETATM   29  N   UNL     1      -9.787  16.876  68.604  1.00  0.00    -0.258 NA 
HETATM   30  N   UNL     1     -10.746  16.795  67.695  1.00  0.00    -0.331 NA 
HETATM   31  N   UNL     1     -11.726  16.100  68.287  1.00  0.00    -0.200 NA 
ENDBRANCH  22  26
ENDBRANCH  16  20
ENDBRANCH  13  14
ENDBRANCH   9  13
BRANCH   8  32
HETATM   32  C   UNL     1      -7.443   9.214  66.862  1.00  0.00    -0.091 C  
HETATM   33  O   UNL     1      -7.098   9.904  67.807  1.00  0.00    -0.085 OA 
BRANCH  32  34
HETATM   34  O   UNL     1      -8.012   7.987  66.972  1.00  0.00    -0.105 OA 
BRANCH  34  35
HETATM   35  C   UNL     1      -8.476   7.714  68.302  1.00  0.00    -0.125 C  
HETATM   36  C   UNL     1      -9.838   7.038  68.133  1.00  0.00    -0.151 C  
BRANCH  35  37
HETATM   37  O   UNL     1      -7.671   6.754  68.987  1.00  0.00    -0.105 OA 
BRANCH  37  38
HETATM   38  C   UNL     1      -7.717   5.491  68.508  1.00  0.00    -0.085 C  
HETATM   39  O   UNL     1      -8.080   5.152  67.395  1.00  0.00    -0.100 OA 
BRANCH  38  40
HETATM   40  O   UNL     1      -7.260   4.690  69.488  1.00  0.00    -0.050 OA 
BRANCH  40  41
HETATM   41  C   UNL     1      -8.035   4.290  70.642  1.00  0.00    -0.063 C  
HETATM   42  C   UNL     1      -9.040   1.489  70.613  1.00  0.00    -0.140 C  
HETATM   43  C   UNL     1      -9.428   3.916  70.131  1.00  0.00    -0.261 C  
HETATM   44  C   UNL     1      -9.455   2.504  69.556  1.00  0.00    -0.128 C  
HETATM   45  C   UNL     1      -7.658   1.784  71.189  1.00  0.00    -0.032 C  
HETATM   46  C   UNL     1      -7.462   3.245  71.605  1.00  0.00    -0.047 C  
ENDBRANCH  40  41
ENDBRANCH  38  40
ENDBRANCH  37  38
ENDBRANCH  35  37
ENDBRANCH  34  35
ENDBRANCH  32  34
ENDBRANCH   8  32
ENDBRANCH   3   4
ENDBRANCH   2   3
TORSDOF 13
ENDMDL
MODEL      195
REMARK 921   NORMALIZED FREE ENERGY PREDICTED BY IDOCK:   -5.12 KCAL/MOL
REMARK 922        TOTAL FREE ENERGY PREDICTED BY IDOCK:  -11.46 KCAL/MOL
REMARK 923 INTER-LIGAND FREE ENERGY PREDICTED BY IDOCK:   -8.21 KCAL/MOL
REMARK 924 INTRA-LIGAND FREE ENERGY PREDICTED BY IDOCK:   -3.26 KCAL/MOL
REMARK 927      BINDING AFFINITY PREDICTED BY RF-SCORE:    0.00 PKD
ROOT
HETATM    1  C   UNL     1     -13.650  13.810  72.447  1.00  0.00    -0.690 C  
HETATM    2  C   UNL     1     -13.495  12.406  71.889  1.00  0.00    -0.269 C  
ENDROOT
BRANCH   2   3
HETATM    3  O   UNL     1     -12.115  12.215  71.562  1.00  0.00     0.198 OA 
BRANCH   3   4
HETATM    4  C   UNL     1     -11.845  12.218  70.259  1.00  0.00    -0.240 A  
HETATM    5  N   UNL     1     -11.927  13.273  69.483  1.00  0.00    -0.317 NA 
HETATM    6  C   UNL     1     -11.573  12.826  68.243  1.00  0.00    -0.334 A  
HETATM    7  C   UNL     1     -11.192  11.470  68.256  1.00  0.00    -0.261 A  
HETATM    8  C   UNL     1     -10.680  10.875  67.076  1.00  0.00    -0.323 A  
HETATM    9  N   UNL     1     -11.492  11.085  69.557  1.00  0.00    -0.271 NA 
HETATM   10  C   UNL     1     -11.130  12.975  65.877  1.00  0.00    -0.303 A  
HETATM   11  C   UNL     1     -11.573  13.569  67.051  1.00  0.00    -0.394 A  
HETATM   12  C   UNL     1     -10.665  11.665  65.904  1.00  0.00    -0.328 A  
BRANCH   9  13
HETATM   13  C   UNL     1     -11.640   9.748  70.133  1.00  0.00    -0.182 C  
BRANCH  13  14
HETATM   14  C   UNL     1     -10.378   9.237  70.781  1.00  0.00    -0.348 A  
HETATM   15  C   UNL     1      -9.230   8.075  72.566  1.00  0.00    -0.280 A  
HETATM   16  C   UNL     1      -8.206   7.689  71.685  1.00  0.00    -0.115 A  
HETATM   17  C   UNL     1      -9.210   9.157  70.021  1.00  0.00    -0.209 A  
HETATM   18  C   UNL     1     -10.341   8.791  72.101  1.00  0.00    -0.378 A  
HETATM   19  C   UNL     1      -8.144   8.372  70.460  1.00  0.00    -0.107 A  
BRANCH  16  20
HETATM   20  C   UNL     1      -7.322   6.514  71.947  1.00  0.00    -0.091 A  
HETATM   21  C   UNL     1      -6.016   6.497  71.399  1.00  0.00    -0.036 A  
HETATM   22  C   UNL     1      -7.748   5.339  72.637  1.00  0.00    -0.098 A  
HETATM   23  C   UNL     1      -5.162   5.397  71.532  1.00  0.00    -0.009 A  
HETATM   24  C   UNL     1      -6.843   4.268  72.812  1.00  0.00    -0.052 A  
HETATM   25  C   UNL     1      -5.568   4.290  72.257  1.00  0.00    -0.007 A  
BRANCH  22  26
HETATM   26  C   UNL     1      -9.101   5.094  73.156  1.00  0.00    -0.127 A  
HETATM   27  N   UNL     1      -9.443   4.901  74.418  1.00  0.00    -0.123 NA 
HETATM   28  H   UNL     1      -8.819   4.903  75.225  1.00  0.00     0.000 HD 
HETATM   29  N   UNL     1     -10.801   4.697  74.434  1.00  0.00    -0.322 NA 
HETATM   30  N   UNL     1     -11.299   4.736  73.208  1.00  0.00    -0.337 NA 
HETATM   31  N   UNL     1     -10.240   4.936  72.411  1.00  0.00    -0.193 NA 
ENDBRANCH  22  26
ENDBRANCH  16  20
ENDBRANCH  13  14
ENDBRANCH   9  13
BRANCH   8  32
HETATM   32  C   UNL     1     -10.301   9.449  66.938  1.00  0.00    -0.238 C  
HETATM   33  O   UNL     1     -11.117   8.548  66.834  1.00  0.00     0.108 OA 
BRANCH  32  34
HETATM   34  O   UNL     1      -8.969   9.311  66.715  1.00  0.00    -0.128 OA 
BRANCH  34  35
HETATM   35  C   UNL     1      -8.664   8.173  65.896  1.00  0.00    -0.156 C  
HETATM   36  C   UNL     1      -7.631   8.662  64.880  1.00  0.00    -0.100 C  
BRANCH  35  37
HETATM   37  O   UNL     1      -8.007   7.129  66.616  1.00  0.00    -0.107 OA 
BRANCH  37  38
HETATM   38  C   UNL     1      -8.719   5.995  66.798  1.00  0.00    -0.119 C  
HETATM   39  O   UNL     1      -9.164   5.272  65.924  1.00  0.00    -0.155 OA 
BRANCH  38  40
HETATM   40  O   UNL     1      -8.815   5.810  68.128  1.00  0.00    -0.107 OA 
BRANCH  40  41
HETATM   41  C   UNL     1      -8.013   4.871  68.880  1.00  0.00    -0.076 C  
HETATM   42  C   UNL     1      -7.973   2.084  67.835  1.00  0.00    -0.061 C  
HETATM   43  C   UNL     1      -8.964   3.783  69.386  1.00  0.00    -0.175 C  
HETATM   44  C   UNL     1      -9.259   2.748  68.306  1.00  0.00    -0.250 C  
HETATM   45  C   UNL     1      -6.954   3.094  67.316  1.00  0.00    -0.053 C  
HETATM   46  C   UNL     1      -6.744   4.292  68.246  1.00  0.00    -0.047 C  
ENDBRANCH  40  41
ENDBRANCH  38  40
ENDBRANCH  37  38
ENDBRANCH  35  37
ENDBRANCH  34  35
ENDBRANCH  32  34
ENDBRANCH   8  32
ENDBRANCH   3   4
ENDBRANCH   2   3
TORSDOF 13
ENDMDL
MODEL      196
REMARK 921   NORMALIZED FREE ENERGY PREDICTED BY IDOCK:   -5.05 KCAL/MOL
REMARK 922        TOTAL FREE ENERGY PREDICTED BY IDOCK:  -11.34 KCAL/MOL
REMARK 923 INTER-LIGAND FREE ENERGY PREDICTED BY IDOCK:   -8.62 KCAL/MOL
REMARK 924 INTRA-LIGAND FREE ENERGY PREDICTED BY IDOCK:   -2.72 KCAL/MOL
REMARK 927      BINDING AFFINITY PREDICTED BY RF-SCORE:    0.00 PKD
ROOT
HETATM    1  C   UNL     1      -9.636   3.797  64.573  1.00  0.00    -0.171 C  
HETATM    2  C   UNL     1     -10.406   4.559  65.637  1.00  0.00    -0.247 C  
ENDROOT
BRANCH   2   3
HETATM    3  O   UNL     1      -9.455   5.111  66.554  1.00  0.00    -0.133 OA 
BRANCH   3   4
HETATM    4  C   UNL     1      -8.842   6.211  66.128  1.00  0.00    -0.152 A  
HETATM    5  N   UNL     1      -7.598   6.256  65.709  1.00  0.00    -0.082 NA 
HETATM    6  C   UNL     1      -7.386   7.563  65.379  1.00  0.00    -0.071 A  
HETATM    7  C   UNL     1      -8.548   8.345  65.530  1.00  0.00    -0.176 A  
HETATM    8  C   UNL     1      -8.538   9.701  65.117  1.00  0.00    -0.175 A  
HETATM    9  N   UNL     1      -9.434   7.456  66.125  1.00  0.00    -0.076 NA 
HETATM   10  C   UNL     1      -6.145   9.478  64.595  1.00  0.00    -0.081 A  
HETATM   11  C   UNL     1      -6.178   8.134  64.944  1.00  0.00    -0.049 A  
HETATM   12  C   UNL     1      -7.312  10.230  64.653  1.00  0.00    -0.085 A  
BRANCH   9  13
HETATM   13  C   UNL     1     -10.690   7.709  66.832  1.00  0.00    -0.201 C  
BRANCH  13  14
HETATM   14  C   UNL     1     -10.532   7.741  68.331  1.00  0.00    -0.207 A  
HETATM   15  C   UNL     1     -10.389   6.626  70.473  1.00  0.00    -0.231 A  
HETATM   16  C   UNL     1      -9.575   7.654  70.978  1.00  0.00    -0.169 A  
HETATM   17  C   UNL     1     -10.038   8.898  68.936  1.00  0.00    -0.209 A  
HETATM   18  C   UNL     1     -10.811   6.640  69.138  1.00  0.00    -0.329 A  
HETATM   19  C   UNL     1      -9.544   8.848  70.239  1.00  0.00    -0.212 A  
BRANCH  16  20
HETATM   20  C   UNL     1      -8.662   7.458  72.143  1.00  0.00    -0.134 A  
HETATM   21  C   UNL     1      -9.103   7.830  73.437  1.00  0.00    -0.336 A  
HETATM   22  C   UNL     1      -7.312   7.008  72.026  1.00  0.00    -0.082 A  
HETATM   23  C   UNL     1      -8.275   7.753  74.561  1.00  0.00    -0.259 A  
HETATM   24  C   UNL     1      -6.518   6.878  73.188  1.00  0.00    -0.062 A  
HETATM   25  C   UNL     1      -6.988   7.256  74.442  1.00  0.00    -0.101 A  
BRANCH  22  26
HETATM   26  C   UNL     1      -6.616   6.707  70.768  1.00  0.00    -0.053 A  
HETATM   27  N   UNL     1      -6.807   5.658  69.986  1.00  0.00    -0.058 NA 
HETATM   28  H   UNL     1      -7.476   4.903  70.135  1.00  0.00     0.000 HD 
HETATM   29  N   UNL     1      -5.932   5.782  68.935  1.00  0.00    -0.022 NA 
HETATM   30  N   UNL     1      -5.190   6.870  69.064  1.00  0.00    -0.013 NA 
HETATM   31  N   UNL     1      -5.580   7.420  70.222  1.00  0.00    -0.023 NA 
ENDBRANCH  22  26
ENDBRANCH  16  20
ENDBRANCH  13  14
ENDBRANCH   9  13
BRANCH   8  32
HETATM   32  C   UNL     1      -9.669  10.646  65.276  1.00  0.00    -0.259 C  
HETATM   33  O   UNL     1     -10.649  10.643  64.551  1.00  0.00    -0.304 OA 
BRANCH  32  34
HETATM   34  O   UNL     1      -9.574  11.338  66.440  1.00  0.00    -0.189 OA 
BRANCH  34  35
HETATM   35  C   UNL     1     -10.385  12.522  66.443  1.00  0.00    -0.243 C  
HETATM   36  C   UNL     1     -10.362  13.034  67.883  1.00  0.00    -0.233 C  
BRANCH  35  37
HETATM   37  O   UNL     1      -9.826  13.582  65.665  1.00  0.00    -0.251 OA 
BRANCH  37  38
HETATM   38  C   UNL     1     -10.673  14.578  65.324  1.00  0.00    -0.376 C  
HETATM   39  O   UNL     1     -11.838  14.454  64.990  1.00  0.00    -0.367 OA 
BRANCH  38  40
HETATM   40  O   UNL     1      -9.986  15.728  65.453  1.00  0.00    -0.346 OA 
BRANCH  40  41
HETATM   41  C   UNL     1      -9.745  16.397  66.712  1.00  0.00    -0.251 C  
HETATM   42  C   UNL     1      -8.117  18.884  66.562  1.00  0.00    -0.298 C  
HETATM   43  C   UNL     1      -8.229  16.408  66.924  1.00  0.00    -0.253 C  
HETATM   44  C   UNL     1      -7.560  17.532  66.139  1.00  0.00    -0.320 C  
HETATM   45  C   UNL     1      -9.631  18.968  66.392  1.00  0.00    -0.386 C  
HETATM   46  C   UNL     1     -10.384  17.765  66.970  1.00  0.00    -0.344 C  
ENDBRANCH  40  41
ENDBRANCH  38  40
ENDBRANCH  37  38
ENDBRANCH  35  37
ENDBRANCH  34  35
ENDBRANCH  32  34
ENDBRANCH   8  32
ENDBRANCH   3   4
ENDBRANCH   2   3
TORSDOF 13
ENDMDL
MODEL      197
REMARK 921   NORMALIZED FREE ENERGY PREDICTED BY IDOCK:   -5.03 KCAL/MOL
REMARK 922        TOTAL FREE ENERGY PREDICTED BY IDOCK:  -11.31 KCAL/MOL
REMARK 923 INTER-LIGAND FREE ENERGY PREDICTED BY IDOCK:   -7.72 KCAL/MOL
REMARK 924 INTRA-LIGAND FREE ENERGY PREDICTED BY IDOCK:   -3.59 KCAL/MOL
REMARK 927      BINDING AFFINITY PREDICTED BY RF-SCORE:    0.00 PKD
ROOT
HETATM    1  C   UNL     1     -10.897  15.140  64.896  1.00  0.00    -0.437 C  
HETATM    2  C   UNL     1     -11.045  14.480  66.256  1.00  0.00    -0.332 C  
ENDROOT
BRANCH   2   3
HETATM    3  O   UNL     1     -10.656  13.109  66.122  1.00  0.00    -0.273 OA 
BRANCH   3   4
HETATM    4  C   UNL     1      -9.668  12.728  66.927  1.00  0.00    -0.234 A  
HETATM    5  N   UNL     1      -8.549  13.393  67.099  1.00  0.00    -0.208 NA 
HETATM    6  C   UNL     1      -7.833  12.648  67.991  1.00  0.00    -0.149 A  
HETATM    7  C   UNL     1      -8.550  11.523  68.442  1.00  0.00    -0.159 A  
HETATM    8  C   UNL     1      -8.003  10.706  69.462  1.00  0.00    -0.079 A  
HETATM    9  N   UNL     1      -9.687  11.550  67.643  1.00  0.00    -0.172 NA 
HETATM   10  C   UNL     1      -5.960  12.074  69.399  1.00  0.00    -0.093 A  
HETATM   11  C   UNL     1      -6.528  12.906  68.443  1.00  0.00    -0.082 A  
HETATM   12  C   UNL     1      -6.700  11.018  69.915  1.00  0.00    -0.125 A  
BRANCH   9  13
HETATM   13  C   UNL     1     -10.674  10.505  67.375  1.00  0.00    -0.281 C  
BRANCH  13  14
HETATM   14  C   UNL     1     -10.108   9.335  66.609  1.00  0.00    -0.341 A  
HETATM   15  C   UNL     1      -8.468   8.373  65.112  1.00  0.00    -0.179 A  
HETATM   16  C   UNL     1      -8.617   7.116  65.722  1.00  0.00    -0.143 A  
HETATM   17  C   UNL     1     -10.501   8.042  66.958  1.00  0.00    -0.410 A  
HETATM   18  C   UNL     1      -9.163   9.489  65.596  1.00  0.00    -0.281 A  
HETATM   19  C   UNL     1      -9.749   6.946  66.536  1.00  0.00    -0.185 A  
BRANCH  16  20
HETATM   20  C   UNL     1      -7.565   6.060  65.653  1.00  0.00    -0.084 A  
HETATM   21  C   UNL     1      -6.280   6.328  66.184  1.00  0.00    -0.037 A  
HETATM   22  C   UNL     1      -7.737   4.812  64.981  1.00  0.00    -0.078 A  
HETATM   23  C   UNL     1      -5.221   5.420  66.081  1.00  0.00    -0.012 A  
HETATM   24  C   UNL     1      -6.670   3.886  64.948  1.00  0.00    -0.048 A  
HETATM   25  C   UNL     1      -5.421   4.188  65.482  1.00  0.00    -0.010 A  
BRANCH  22  26
HETATM   26  C   UNL     1      -8.937   4.395  64.243  1.00  0.00    -0.151 A  
HETATM   27  N   UNL     1      -9.249   4.706  62.996  1.00  0.00    -0.278 NA 
HETATM   28  H   UNL     1      -8.697   5.275  62.355  1.00  0.00     0.000 HD 
HETATM   29  N   UNL     1     -10.460   4.115  62.731  1.00  0.00    -0.139 NA 
HETATM   30  N   UNL     1     -10.912   3.468  63.794  1.00  0.00    -0.294 NA 
HETATM   31  N   UNL     1      -9.992   3.679  64.745  1.00  0.00    -0.178 NA 
ENDBRANCH  22  26
ENDBRANCH  16  20
ENDBRANCH  13  14
ENDBRANCH   9  13
BRANCH   8  32
HETATM   32  C   UNL     1      -8.623   9.464  69.982  1.00  0.00    -0.203 C  
HETATM   33  O   UNL     1      -9.517   9.461  70.812  1.00  0.00    -0.258 OA 
BRANCH  32  34
HETATM   34  O   UNL     1      -8.235   8.380  69.263  1.00  0.00    -0.113 OA 
BRANCH  34  35
HETATM   35  C   UNL     1      -8.137   7.195  70.067  1.00  0.00    -0.127 C  
HETATM   36  C   UNL     1      -6.967   7.439  71.020  1.00  0.00    -0.059 C  
BRANCH  35  37
HETATM   37  O   UNL     1      -9.270   7.003  70.915  1.00  0.00    -0.156 OA 
BRANCH  37  38
HETATM   38  C   UNL     1     -10.105   5.998  70.572  1.00  0.00    -0.191 C  
HETATM   39  O   UNL     1     -11.281   6.105  70.270  1.00  0.00    -0.343 OA 
BRANCH  38  40
HETATM   40  O   UNL     1      -9.378   4.866  70.603  1.00  0.00    -0.145 OA 
BRANCH  40  41
HETATM   41  C   UNL     1      -9.624   3.716  69.762  1.00  0.00    -0.158 C  
HETATM   42  C   UNL     1      -7.202   2.360  68.688  1.00  0.00    -0.044 C  
HETATM   43  C   UNL     1      -9.036   4.039  68.386  1.00  0.00    -0.159 C  
HETATM   44  C   UNL     1      -7.528   3.808  68.351  1.00  0.00    -0.054 C  
HETATM   45  C   UNL     1      -7.755   1.940  70.046  1.00  0.00    -0.044 C  
HETATM   46  C   UNL     1      -9.223   2.322  70.259  1.00  0.00    -0.193 C  
ENDBRANCH  40  41
ENDBRANCH  38  40
ENDBRANCH  37  38
ENDBRANCH  35  37
ENDBRANCH  34  35
ENDBRANCH  32  34
ENDBRANCH   8  32
ENDBRANCH   3   4
ENDBRANCH   2   3
TORSDOF 13
ENDMDL
MODEL      198
REMARK 921   NORMALIZED FREE ENERGY PREDICTED BY IDOCK:   -5.03 KCAL/MOL
REMARK 922        TOTAL FREE ENERGY PREDICTED BY IDOCK:  -11.30 KCAL/MOL
REMARK 923 INTER-LIGAND FREE ENERGY PREDICTED BY IDOCK:  -10.28 KCAL/MOL
REMARK 924 INTRA-LIGAND FREE ENERGY PREDICTED BY IDOCK:   -1.02 KCAL/MOL
REMARK 927      BINDING AFFINITY PREDICTED BY RF-SCORE:    0.00 PKD
ROOT
HETATM    1  C   UNL     1      -7.157   7.096  68.656  1.00  0.00    -0.085 C  
HETATM    2  C   UNL     1      -6.432   7.078  67.321  1.00  0.00    -0.053 C  
ENDROOT
BRANCH   2   3
HETATM    3  O   UNL     1      -7.092   8.005  66.453  1.00  0.00    -0.072 OA 
BRANCH   3   4
HETATM    4  C   UNL     1      -7.151   9.253  66.910  1.00  0.00    -0.082 A  
HETATM    5  N   UNL     1      -6.203   9.836  67.607  1.00  0.00    -0.055 NA 
HETATM    6  C   UNL     1      -6.680  11.088  67.866  1.00  0.00    -0.063 A  
HETATM    7  C   UNL     1      -7.929  11.320  67.256  1.00  0.00    -0.141 A  
HETATM    8  C   UNL     1      -8.513  12.609  67.323  1.00  0.00    -0.193 A  
HETATM    9  N   UNL     1      -8.249  10.069  66.744  1.00  0.00    -0.121 NA 
HETATM   10  C   UNL     1      -6.655  13.327  68.766  1.00  0.00    -0.099 A  
HETATM   11  C   UNL     1      -6.059  12.078  68.646  1.00  0.00    -0.053 A  
HETATM   12  C   UNL     1      -7.841  13.588  68.090  1.00  0.00    -0.144 A  
BRANCH   9  13
HETATM   13  C   UNL     1      -9.534   9.541  66.282  1.00  0.00    -0.210 C  
BRANCH  13  14
HETATM   14  C   UNL     1     -10.214   8.658  67.298  1.00  0.00    -0.337 A  
HETATM   15  C   UNL     1     -11.065   6.508  68.007  1.00  0.00    -0.332 A  
HETATM   16  C   UNL     1     -10.830   6.835  69.354  1.00  0.00    -0.312 A  
HETATM   17  C   UNL     1     -10.318   9.099  68.618  1.00  0.00    -0.233 A  
HETATM   18  C   UNL     1     -10.699   7.390  66.983  1.00  0.00    -0.389 A  
HETATM   19  C   UNL     1     -10.601   8.191  69.637  1.00  0.00    -0.223 A  
BRANCH  16  20
HETATM   20  C   UNL     1     -10.668   5.798  70.416  1.00  0.00    -0.372 A  
HETATM   21  C   UNL     1     -11.124   6.076  71.728  1.00  0.00    -0.332 A  
HETATM   22  C   UNL     1      -9.979   4.563  70.220  1.00  0.00    -0.288 A  
HETATM   23  C   UNL     1     -10.933   5.188  72.791  1.00  0.00    -0.327 A  
HETATM   24  C   UNL     1      -9.857   3.656  71.297  1.00  0.00    -0.211 A  
HETATM   25  C   UNL     1     -10.318   3.967  72.572  1.00  0.00    -0.223 A  
BRANCH  22  26
HETATM   26  C   UNL     1      -9.308   4.144  68.982  1.00  0.00    -0.165 A  
HETATM   27  N   UNL     1      -8.007   4.136  68.749  1.00  0.00    -0.071 NA 
HETATM   28  H   UNL     1      -7.271   4.412  69.398  1.00  0.00     0.000 HD 
HETATM   29  N   UNL     1      -7.838   3.686  67.462  1.00  0.00    -0.078 NA 
HETATM   30  N   UNL     1      -9.006   3.439  66.891  1.00  0.00    -0.143 NA 
HETATM   31  N   UNL     1      -9.920   3.766  67.815  1.00  0.00     0.052 NA 
ENDBRANCH  22  26
ENDBRANCH  16  20
ENDBRANCH  13  14
ENDBRANCH   9  13
BRANCH   8  32
HETATM   32  C   UNL     1      -9.844  12.969  66.779  1.00  0.00    -0.243 C  
HETATM   33  O   UNL     1     -10.575  12.170  66.217  1.00  0.00    -0.238 OA 
BRANCH  32  34
HETATM   34  O   UNL     1     -10.224  14.207  67.184  1.00  0.00    -0.254 OA 
BRANCH  34  35
HETATM   35  C   UNL     1     -11.552  14.224  67.727  1.00  0.00    -0.354 C  
HETATM   36  C   UNL     1     -11.531  13.242  68.900  1.00  0.00    -0.342 C  
BRANCH  35  37
HETATM   37  O   UNL     1     -11.901  15.482  68.306  1.00  0.00    -0.330 OA 
BRANCH  37  38
HETATM   38  C   UNL     1     -10.870  16.300  68.612  1.00  0.00    -0.322 C  
HETATM   39  O   UNL     1     -10.001  16.090  69.440  1.00  0.00    -0.240 OA 
BRANCH  38  40
HETATM   40  O   UNL     1     -10.977  17.374  67.807  1.00  0.00    -0.317 OA 
BRANCH  40  41
HETATM   41  C   UNL     1     -10.314  17.503  66.529  1.00  0.00    -0.325 C  
HETATM   42  C   UNL     1      -8.300  19.685  66.335  1.00  0.00    -0.376 C  
HETATM   43  C   UNL     1     -10.652  18.896  65.993  1.00  0.00    -0.470 C  
HETATM   44  C   UNL     1      -9.768  19.969  66.620  1.00  0.00    -0.566 C  
HETATM   45  C   UNL     1      -7.867  18.308  66.829  1.00  0.00    -0.255 C  
HETATM   46  C   UNL     1      -8.820  17.180  66.422  1.00  0.00    -0.288 C  
ENDBRANCH  40  41
ENDBRANCH  38  40
ENDBRANCH  37  38
ENDBRANCH  35  37
ENDBRANCH  34  35
ENDBRANCH  32  34
ENDBRANCH   8  32
ENDBRANCH   3   4
ENDBRANCH   2   3
TORSDOF 13
ENDMDL
MODEL      199
REMARK 921   NORMALIZED FREE ENERGY PREDICTED BY IDOCK:   -5.01 KCAL/MOL
REMARK 922        TOTAL FREE ENERGY PREDICTED BY IDOCK:  -11.28 KCAL/MOL
REMARK 923 INTER-LIGAND FREE ENERGY PREDICTED BY IDOCK:   -9.25 KCAL/MOL
REMARK 924 INTRA-LIGAND FREE ENERGY PREDICTED BY IDOCK:   -2.03 KCAL/MOL
REMARK 927      BINDING AFFINITY PREDICTED BY RF-SCORE:    0.00 PKD
ROOT
HETATM    1  C   UNL     1      -5.976   8.423  72.538  1.00  0.00    -0.065 C  
HETATM    2  C   UNL     1      -7.190   8.037  71.712  1.00  0.00    -0.077 C  
ENDROOT
BRANCH   2   3
HETATM    3  O   UNL     1      -7.450   9.103  70.793  1.00  0.00    -0.097 OA 
BRANCH   3   4
HETATM    4  C   UNL     1      -8.731   9.448  70.687  1.00  0.00    -0.211 A  
HETATM    5  N   UNL     1      -9.690   9.001  71.464  1.00  0.00    -0.306 NA 
HETATM    6  C   UNL     1     -10.824   9.602  71.002  1.00  0.00    -0.342 A  
HETATM    7  C   UNL     1     -10.559  10.504  69.952  1.00  0.00    -0.211 A  
HETATM    8  C   UNL     1     -11.608  11.305  69.435  1.00  0.00    -0.390 A  
HETATM    9  N   UNL     1      -9.210  10.288  69.704  1.00  0.00    -0.174 NA 
HETATM   10  C   UNL     1     -13.178  10.128  70.919  1.00  0.00    -0.360 A  
HETATM   11  C   UNL     1     -12.135   9.390  71.463  1.00  0.00    -0.456 A  
HETATM   12  C   UNL     1     -12.907  11.085  69.949  1.00  0.00     0.030 A  
BRANCH   9  13
HETATM   13  C   UNL     1      -8.395  10.657  68.546  1.00  0.00    -0.130 C  
BRANCH  13  14
HETATM   14  C   UNL     1      -8.287   9.558  67.520  1.00  0.00    -0.125 A  
HETATM   15  C   UNL     1      -7.260   7.536  66.676  1.00  0.00    -0.083 A  
HETATM   16  C   UNL     1      -8.467   7.152  66.067  1.00  0.00    -0.148 A  
HETATM   17  C   UNL     1      -9.347   9.350  66.635  1.00  0.00    -0.211 A  
HETATM   18  C   UNL     1      -7.190   8.701  67.452  1.00  0.00    -0.080 A  
HETATM   19  C   UNL     1      -9.445   8.150  65.933  1.00  0.00    -0.082 A  
BRANCH  16  20
HETATM   20  C   UNL     1      -8.775   5.733  65.718  1.00  0.00    -0.152 A  
HETATM   21  C   UNL     1      -8.492   5.265  64.412  1.00  0.00    -0.126 A  
HETATM   22  C   UNL     1      -9.443   4.828  66.597  1.00  0.00    -0.161 A  
HETATM   23  C   UNL     1      -8.828   3.976  63.988  1.00  0.00    -0.120 A  
HETATM   24  C   UNL     1      -9.714   3.509  66.165  1.00  0.00    -0.041 A  
HETATM   25  C   UNL     1      -9.420   3.089  64.872  1.00  0.00    -0.136 A  
BRANCH  22  26
HETATM   26  C   UNL     1      -9.950   5.153  67.937  1.00  0.00    -0.152 A  
HETATM   27  N   UNL     1      -9.579   4.603  69.081  1.00  0.00    -0.161 NA 
HETATM   28  H   UNL     1      -8.874   3.876  69.206  1.00  0.00     0.000 HD 
HETATM   29  N   UNL     1     -10.323   5.200  70.068  1.00  0.00    -0.289 NA 
HETATM   30  N   UNL     1     -11.162   6.087  69.556  1.00  0.00    -0.403 NA 
HETATM   31  N   UNL     1     -10.965   6.025  68.232  1.00  0.00    -0.300 NA 
ENDBRANCH  22  26
ENDBRANCH  16  20
ENDBRANCH  13  14
ENDBRANCH   9  13
BRANCH   8  32
HETATM   32  C   UNL     1     -11.478  12.245  68.296  1.00  0.00    -0.315 C  
HETATM   33  O   UNL     1     -11.843  11.977  67.164  1.00  0.00    -0.565 OA 
BRANCH  32  34
HETATM   34  O   UNL     1     -11.125  13.485  68.719  1.00  0.00    -0.246 OA 
BRANCH  34  35
HETATM   35  C   UNL     1     -10.715  14.337  67.638  1.00  0.00    -0.258 C  
HETATM   36  C   UNL     1     -11.203  15.738  68.010  1.00  0.00    -0.338 C  
BRANCH  35  37
HETATM   37  O   UNL     1      -9.296  14.457  67.532  1.00  0.00    -0.190 OA 
BRANCH  37  38
HETATM   38  C   UNL     1      -8.664  14.985  68.603  1.00  0.00    -0.176 C  
HETATM   39  O   UNL     1      -9.111  15.080  69.733  1.00  0.00    -0.072 OA 
BRANCH  38  40
HETATM   40  O   UNL     1      -7.440  15.356  68.184  1.00  0.00    -0.108 OA 
BRANCH  40  41
HETATM   41  C   UNL     1      -6.985  16.726  68.107  1.00  0.00    -0.157 C  
HETATM   42  C   UNL     1      -8.824  18.620  66.732  1.00  0.00    -0.297 C  
HETATM   43  C   UNL     1      -6.860  17.069  66.621  1.00  0.00    -0.279 C  
HETATM   44  C   UNL     1      -8.211  17.427  66.011  1.00  0.00    -0.161 C  
HETATM   45  C   UNL     1      -8.984  18.375  68.229  1.00  0.00    -0.330 C  
HETATM   46  C   UNL     1      -7.728  17.808  68.899  1.00  0.00    -0.201 C  
ENDBRANCH  40  41
ENDBRANCH  38  40
ENDBRANCH  37  38
ENDBRANCH  35  37
ENDBRANCH  34  35
ENDBRANCH  32  34
ENDBRANCH   8  32
ENDBRANCH   3   4
ENDBRANCH   2   3
TORSDOF 13
ENDMDL
MODEL      200
REMARK 921   NORMALIZED FREE ENERGY PREDICTED BY IDOCK:   -5.00 KCAL/MOL
REMARK 922        TOTAL FREE ENERGY PREDICTED BY IDOCK:  -11.25 KCAL/MOL
REMARK 923 INTER-LIGAND FREE ENERGY PREDICTED BY IDOCK:   -8.89 KCAL/MOL
REMARK 924 INTRA-LIGAND FREE ENERGY PREDICTED BY IDOCK:   -2.37 KCAL/MOL
REMARK 927      BINDING AFFINITY PREDICTED BY RF-SCORE:    0.00 PKD
ROOT
HETATM    1  C   UNL     1      -5.768   7.266  72.089  1.00  0.00    -0.037 C  
HETATM    2  C   UNL     1      -5.676   8.503  71.213  1.00  0.00    -0.036 C  
ENDROOT
BRANCH   2   3
HETATM    3  O   UNL     1      -6.893   9.240  71.366  1.00  0.00    -0.227 OA 
BRANCH   3   4
HETATM    4  C   UNL     1      -7.121  10.144  70.418  1.00  0.00    -0.088 A  
HETATM    5  N   UNL     1      -6.371  11.199  70.198  1.00  0.00    -0.151 NA 
HETATM    6  C   UNL     1      -6.968  11.843  69.154  1.00  0.00    -0.079 A  
HETATM    7  C   UNL     1      -8.083  11.136  68.660  1.00  0.00    -0.150 A  
HETATM    8  C   UNL     1      -8.749  11.601  67.499  1.00  0.00    -0.156 A  
HETATM    9  N   UNL     1      -8.214  10.102  69.579  1.00  0.00    -0.161 NA 
HETATM   10  C   UNL     1      -7.267  13.564  67.489  1.00  0.00    -0.165 A  
HETATM   11  C   UNL     1      -6.580  13.070  68.591  1.00  0.00    -0.092 A  
HETATM   12  C   UNL     1      -8.308  12.823  66.942  1.00  0.00    -0.064 A  
BRANCH   9  13
HETATM   13  C   UNL     1      -9.344   9.209  69.836  1.00  0.00    -0.186 C  
BRANCH  13  14
HETATM   14  C   UNL     1      -9.253   7.905  69.085  1.00  0.00    -0.144 A  
HETATM   15  C   UNL     1     -10.283   6.039  67.940  1.00  0.00    -0.217 A  
HETATM   16  C   UNL     1      -9.147   5.882  67.127  1.00  0.00    -0.113 A  
HETATM   17  C   UNL     1      -8.027   7.522  68.537  1.00  0.00    -0.123 A  
HETATM   18  C   UNL     1     -10.359   7.085  68.869  1.00  0.00    -0.198 A  
HETATM   19  C   UNL     1      -7.980   6.536  67.552  1.00  0.00    -0.114 A  
BRANCH  16  20
HETATM   20  C   UNL     1      -9.196   5.197  65.802  1.00  0.00    -0.162 A  
HETATM   21  C   UNL     1      -9.679   3.867  65.729  1.00  0.00    -0.169 A  
HETATM   22  C   UNL     1      -8.682   5.764  64.597  1.00  0.00     0.063 A  
HETATM   23  C   UNL     1      -9.677   3.134  64.538  1.00  0.00    -0.143 A  
HETATM   24  C   UNL     1      -8.752   5.024  63.394  1.00  0.00    -0.078 A  
HETATM   25  C   UNL     1      -9.233   3.720  63.364  1.00  0.00    -0.112 A  
BRANCH  22  26
HETATM   26  C   UNL     1      -8.011   7.066  64.481  1.00  0.00    -0.104 A  
HETATM   27  N   UNL     1      -8.590   8.249  64.363  1.00  0.00    -0.394 NA 
HETATM   28  H   UNL     1      -9.592   8.437  64.344  1.00  0.00     0.000 HD 
HETATM   29  N   UNL     1      -7.581   9.176  64.270  1.00  0.00    -0.111 NA 
HETATM   30  N   UNL     1      -6.395   8.589  64.304  1.00  0.00    -0.067 NA 
HETATM   31  N   UNL     1      -6.660   7.278  64.388  1.00  0.00    -0.040 NA 
ENDBRANCH  22  26
ENDBRANCH  16  20
ENDBRANCH  13  14
ENDBRANCH   9  13
BRANCH   8  32
HETATM   32  C   UNL     1      -9.966  10.988  66.914  1.00  0.00    -0.196 C  
HETATM   33  O   UNL     1     -10.930  10.650  67.579  1.00  0.00    -0.279 OA 
BRANCH  32  34
HETATM   34  O   UNL     1      -9.954  11.067  65.559  1.00  0.00    -0.230 OA 
BRANCH  34  35
HETATM   35  C   UNL     1     -10.650  12.223  65.070  1.00  0.00    -0.287 C  
HETATM   36  C   UNL     1     -11.389  11.759  63.814  1.00  0.00    -0.524 C  
BRANCH  35  37
HETATM   37  O   UNL     1     -11.676  12.671  65.957  1.00  0.00    -0.373 OA 
BRANCH  37  38
HETATM   38  C   UNL     1     -11.829  14.010  66.059  1.00  0.00    -0.388 C  
HETATM   39  O   UNL     1     -11.662  14.827  65.170  1.00  0.00    -0.358 OA 
BRANCH  38  40
HETATM   40  O   UNL     1     -12.227  14.257  67.320  1.00  0.00    -0.393 OA 
BRANCH  40  41
HETATM   41  C   UNL     1     -11.483  13.874  68.499  1.00  0.00    -0.311 C  
HETATM   42  C   UNL     1     -11.790  15.665  70.857  1.00  0.00    -0.428 C  
HETATM   43  C   UNL     1     -10.513  15.019  68.801  1.00  0.00    -0.238 C  
HETATM   44  C   UNL     1     -11.202  16.159  69.543  1.00  0.00    -0.337 C  
HETATM   45  C   UNL     1     -12.770  14.513  70.658  1.00  0.00    -0.421 C  
HETATM   46  C   UNL     1     -12.240  13.403  69.745  1.00  0.00    -0.307 C  
ENDBRANCH  40  41
ENDBRANCH  38  40
ENDBRANCH  37  38
ENDBRANCH  35  37
ENDBRANCH  34  35
ENDBRANCH  32  34
ENDBRANCH   8  32
ENDBRANCH   3   4
ENDBRANCH   2   3
TORSDOF 13
ENDMDL
MODEL      201
REMARK 921   NORMALIZED FREE ENERGY PREDICTED BY IDOCK:   -5.00 KCAL/MOL
REMARK 922        TOTAL FREE ENERGY PREDICTED BY IDOCK:  -11.25 KCAL/MOL
REMARK 923 INTER-LIGAND FREE ENERGY PREDICTED BY IDOCK:   -9.49 KCAL/MOL
REMARK 924 INTRA-LIGAND FREE ENERGY PREDICTED BY IDOCK:   -1.76 KCAL/MOL
REMARK 927      BINDING AFFINITY PREDICTED BY RF-SCORE:    0.00 PKD
ROOT
HETATM    1  C   UNL     1      -7.406   7.221  63.435  1.00  0.00    -0.086 C  
HETATM    2  C   UNL     1      -7.603   7.905  64.776  1.00  0.00    -0.110 C  
ENDROOT
BRANCH   2   3
HETATM    3  O   UNL     1      -8.213   9.177  64.533  1.00  0.00    -0.134 OA 
BRANCH   3   4
HETATM    4  C   UNL     1      -7.866  10.135  65.388  1.00  0.00    -0.142 A  
HETATM    5  N   UNL     1      -6.632  10.409  65.739  1.00  0.00    -0.119 NA 
HETATM    6  C   UNL     1      -6.740  11.442  66.625  1.00  0.00    -0.112 A  
HETATM    7  C   UNL     1      -8.072  11.873  66.779  1.00  0.00    -0.108 A  
HETATM    8  C   UNL     1      -8.352  13.015  67.570  1.00  0.00    -0.184 A  
HETATM    9  N   UNL     1      -8.781  10.926  66.049  1.00  0.00    -0.182 NA 
HETATM   10  C   UNL     1      -5.969  13.131  68.165  1.00  0.00    -0.104 A  
HETATM   11  C   UNL     1      -5.694  12.048  67.340  1.00  0.00    -0.123 A  
HETATM   12  C   UNL     1      -7.268  13.618  68.248  1.00  0.00    -0.111 A  
BRANCH   9  13
HETATM   13  C   UNL     1     -10.208  10.603  66.062  1.00  0.00    -0.247 C  
BRANCH  13  14
HETATM   14  C   UNL     1     -10.615   9.758  67.243  1.00  0.00    -0.320 A  
HETATM   15  C   UNL     1     -10.600   7.668  68.462  1.00  0.00    -0.162 A  
HETATM   16  C   UNL     1     -10.745   8.353  69.680  1.00  0.00    -0.201 A  
HETATM   17  C   UNL     1     -11.107  10.386  68.388  1.00  0.00    -0.322 A  
HETATM   18  C   UNL     1     -10.472   8.372  67.257  1.00  0.00    -0.373 A  
HETATM   19  C   UNL     1     -11.150   9.695  69.599  1.00  0.00    -0.223 A  
BRANCH  16  20
HETATM   20  C   UNL     1     -10.343   7.758  70.989  1.00  0.00    -0.215 A  
HETATM   21  C   UNL     1     -11.118   8.036  72.142  1.00  0.00    -0.372 A  
HETATM   22  C   UNL     1      -9.150   6.997  71.182  1.00  0.00    -0.153 A  
HETATM   23  C   UNL     1     -10.757   7.583  73.414  1.00  0.00    -0.387 A  
HETATM   24  C   UNL     1      -8.843   6.497  72.467  1.00  0.00    -0.132 A  
HETATM   25  C   UNL     1      -9.630   6.794  73.575  1.00  0.00    -0.205 A  
BRANCH  22  26
HETATM   26  C   UNL     1      -8.139   6.716  70.154  1.00  0.00    -0.124 A  
HETATM   27  N   UNL     1      -7.940   5.568  69.529  1.00  0.00    -0.093 NA 
HETATM   28  H   UNL     1      -8.468   4.705  69.659  1.00  0.00     0.000 HD 
HETATM   29  N   UNL     1      -6.887   5.762  68.669  1.00  0.00    -0.060 NA 
HETATM   30  N   UNL     1      -6.417   6.995  68.768  1.00  0.00    -0.032 NA 
HETATM   31  N   UNL     1      -7.161   7.574  69.721  1.00  0.00    -0.078 NA 
ENDBRANCH  22  26
ENDBRANCH  16  20
ENDBRANCH  13  14
ENDBRANCH   9  13
BRANCH   8  32
HETATM   32  C   UNL     1      -9.709  13.535  67.862  1.00  0.00    -0.225 C  
HETATM   33  O   UNL     1     -10.113  13.749  68.993  1.00  0.00    -0.128 OA 
BRANCH  32  34
HETATM   34  O   UNL     1     -10.334  13.948  66.730  1.00  0.00    -0.266 OA 
BRANCH  34  35
HETATM   35  C   UNL     1     -10.604  15.357  66.734  1.00  0.00    -0.309 C  
HETATM   36  C   UNL     1     -11.624  15.577  67.853  1.00  0.00    -0.231 C  
BRANCH  35  37
HETATM   37  O   UNL     1      -9.471  16.140  67.110  1.00  0.00    -0.219 OA 
BRANCH  37  38
HETATM   38  C   UNL     1      -9.404  17.380  66.576  1.00  0.00    -0.270 C  
HETATM   39  O   UNL     1     -10.191  18.291  66.762  1.00  0.00    -0.340 OA 
BRANCH  38  40
HETATM   40  O   UNL     1      -8.287  17.417  65.826  1.00  0.00    -0.538 OA 
BRANCH  40  41
HETATM   41  C   UNL     1      -6.996  17.857  66.307  1.00  0.00    -0.275 C  
HETATM   42  C   UNL     1      -6.668  20.799  66.614  1.00  0.00    -0.339 C  
HETATM   43  C   UNL     1      -6.394  18.741  65.213  1.00  0.00    -0.309 C  
HETATM   44  C   UNL     1      -6.955  20.158  65.263  1.00  0.00    -0.300 C  
HETATM   45  C   UNL     1      -7.227  19.982  67.775  1.00  0.00    -0.326 C  
HETATM   46  C   UNL     1      -6.890  18.490  67.698  1.00  0.00    -0.206 C  
ENDBRANCH  40  41
ENDBRANCH  38  40
ENDBRANCH  37  38
ENDBRANCH  35  37
ENDBRANCH  34  35
ENDBRANCH  32  34
ENDBRANCH   8  32
ENDBRANCH   3   4
ENDBRANCH   2   3
TORSDOF 13
ENDMDL
MODEL      202
REMARK 921   NORMALIZED FREE ENERGY PREDICTED BY IDOCK:   -4.99 KCAL/MOL
REMARK 922        TOTAL FREE ENERGY PREDICTED BY IDOCK:  -11.24 KCAL/MOL
REMARK 923 INTER-LIGAND FREE ENERGY PREDICTED BY IDOCK:   -8.17 KCAL/MOL
REMARK 924 INTRA-LIGAND FREE ENERGY PREDICTED BY IDOCK:   -3.06 KCAL/MOL
REMARK 927      BINDING AFFINITY PREDICTED BY RF-SCORE:    0.00 PKD
ROOT
HETATM    1  C   UNL     1      -9.898  13.519  66.206  1.00  0.00    -0.306 C  
HETATM    2  C   UNL     1     -11.002  12.700  65.561  1.00  0.00    -0.279 C  
ENDROOT
BRANCH   2   3
HETATM    3  O   UNL     1     -10.823  11.336  65.957  1.00  0.00    -0.267 OA 
BRANCH   3   4
HETATM    4  C   UNL     1     -11.084  11.088  67.238  1.00  0.00    -0.294 A  
HETATM    5  N   UNL     1     -12.144  11.522  67.880  1.00  0.00    -0.605 NA 
HETATM    6  C   UNL     1     -12.004  11.045  69.151  1.00  0.00    -0.324 A  
HETATM    7  C   UNL     1     -10.861  10.233  69.291  1.00  0.00    -0.238 A  
HETATM    8  C   UNL     1     -10.628   9.557  70.514  1.00  0.00    -0.358 A  
HETATM    9  N   UNL     1     -10.233  10.381  68.061  1.00  0.00    -0.162 NA 
HETATM   10  C   UNL     1     -12.596  10.687  71.462  1.00  0.00    -0.517 A  
HETATM   11  C   UNL     1     -12.852  11.298  70.241  1.00  0.00    -0.060 A  
HETATM   12  C   UNL     1     -11.523   9.812  71.579  1.00  0.00    -0.393 A  
BRANCH   9  13
HETATM   13  C   UNL     1      -8.860  10.072  67.661  1.00  0.00    -0.121 C  
BRANCH  13  14
HETATM   14  C   UNL     1      -8.640   8.607  67.376  1.00  0.00    -0.134 A  
HETATM   15  C   UNL     1      -9.249   6.548  66.261  1.00  0.00    -0.160 A  
HETATM   16  C   UNL     1      -7.911   6.118  66.277  1.00  0.00    -0.106 A  
HETATM   17  C   UNL     1      -7.411   8.030  67.701  1.00  0.00    -0.097 A  
HETATM   18  C   UNL     1      -9.600   7.813  66.750  1.00  0.00    -0.274 A  
HETATM   19  C   UNL     1      -7.043   6.809  67.138  1.00  0.00    -0.079 A  
BRANCH  16  20
HETATM   20  C   UNL     1      -7.384   5.096  65.326  1.00  0.00    -0.068 A  
HETATM   21  C   UNL     1      -6.932   5.508  64.049  1.00  0.00    -0.047 A  
HETATM   22  C   UNL     1      -7.403   3.691  65.581  1.00  0.00    -0.076 A  
HETATM   23  C   UNL     1      -6.504   4.599  63.076  1.00  0.00    -0.026 A  
HETATM   24  C   UNL     1      -6.904   2.799  64.605  1.00  0.00    -0.040 A  
HETATM   25  C   UNL     1      -6.469   3.244  63.361  1.00  0.00    -0.026 A  
BRANCH  22  26
HETATM   26  C   UNL     1      -7.960   3.046  66.778  1.00  0.00    -0.080 A  
HETATM   27  N   UNL     1      -7.286   2.424  67.730  1.00  0.00    -0.048 NA 
HETATM   28  H   UNL     1      -6.274   2.307  67.783  1.00  0.00     0.000 HD 
HETATM   29  N   UNL     1      -8.211   1.966  68.636  1.00  0.00    -0.055 NA 
HETATM   30  N   UNL     1      -9.440   2.269  68.250  1.00  0.00    -0.209 NA 
HETATM   31  N   UNL     1      -9.289   2.898  67.076  1.00  0.00    -0.144 NA 
ENDBRANCH  22  26
ENDBRANCH  16  20
ENDBRANCH  13  14
ENDBRANCH   9  13
BRANCH   8  32
HETATM   32  C   UNL     1      -9.438   8.725  70.814  1.00  0.00    -0.206 C  
HETATM   33  O   UNL     1      -8.541   9.084  71.557  1.00  0.00    -0.303 OA 
BRANCH  32  34
HETATM   34  O   UNL     1      -9.592   7.459  70.347  1.00  0.00    -0.166 OA 
BRANCH  34  35
HETATM   35  C   UNL     1     -10.869   6.899  70.689  1.00  0.00    -0.245 C  
HETATM   36  C   UNL     1     -11.318   6.115  69.455  1.00  0.00    -0.426 C  
BRANCH  35  37
HETATM   37  O   UNL     1     -10.788   5.929  71.734  1.00  0.00    -0.243 OA 
BRANCH  37  38
HETATM   38  C   UNL     1     -10.205   6.340  72.881  1.00  0.00    -0.190 C  
HETATM   39  O   UNL     1     -10.751   6.920  73.803  1.00  0.00    -0.347 OA 
BRANCH  38  40
HETATM   40  O   UNL     1      -8.916   5.958  72.816  1.00  0.00    -0.125 OA 
BRANCH  40  41
HETATM   41  C   UNL     1      -8.477   4.585  72.708  1.00  0.00    -0.113 C  
HETATM   42  C   UNL     1      -5.716   4.189  71.669  1.00  0.00    -0.008 C  
HETATM   43  C   UNL     1      -8.178   4.330  71.228  1.00  0.00    -0.083 C  
HETATM   44  C   UNL     1      -6.801   4.856  70.835  1.00  0.00    -0.040 C  
HETATM   45  C   UNL     1      -5.933   4.383  73.167  1.00  0.00    -0.012 C  
HETATM   46  C   UNL     1      -7.361   4.079  73.628  1.00  0.00    -0.070 C  
ENDBRANCH  40  41
ENDBRANCH  38  40
ENDBRANCH  37  38
ENDBRANCH  35  37
ENDBRANCH  34  35
ENDBRANCH  32  34
ENDBRANCH   8  32
ENDBRANCH   3   4
ENDBRANCH   2   3
TORSDOF 13
ENDMDL
MODEL      203
REMARK 921   NORMALIZED FREE ENERGY PREDICTED BY IDOCK:   -4.99 KCAL/MOL
REMARK 922        TOTAL FREE ENERGY PREDICTED BY IDOCK:  -11.23 KCAL/MOL
REMARK 923 INTER-LIGAND FREE ENERGY PREDICTED BY IDOCK:   -8.23 KCAL/MOL
REMARK 924 INTRA-LIGAND FREE ENERGY PREDICTED BY IDOCK:   -3.01 KCAL/MOL
REMARK 927      BINDING AFFINITY PREDICTED BY RF-SCORE:    0.00 PKD
ROOT
HETATM    1  C   UNL     1      -7.085   9.554  63.688  1.00  0.00    -0.107 C  
HETATM    2  C   UNL     1      -7.943   8.323  63.455  1.00  0.00    -0.154 C  
ENDROOT
BRANCH   2   3
HETATM    3  O   UNL     1      -8.876   8.230  64.537  1.00  0.00     0.065 OA 
BRANCH   3   4
HETATM    4  C   UNL     1      -8.324   8.128  65.743  1.00  0.00    -0.136 A  
HETATM    5  N   UNL     1      -7.157   7.576  65.985  1.00  0.00    -0.068 NA 
HETATM    6  C   UNL     1      -6.992   7.683  67.335  1.00  0.00    -0.084 A  
HETATM    7  C   UNL     1      -8.050   8.383  67.947  1.00  0.00    -0.123 A  
HETATM    8  C   UNL     1      -7.980   8.690  69.329  1.00  0.00    -0.103 A  
HETATM    9  N   UNL     1      -8.945   8.552  66.898  1.00  0.00    -0.138 NA 
HETATM   10  C   UNL     1      -5.879   7.418  69.459  1.00  0.00    -0.023 A  
HETATM   11  C   UNL     1      -5.924   7.173  68.093  1.00  0.00    -0.030 A  
HETATM   12  C   UNL     1      -6.873   8.188  70.051  1.00  0.00    -0.040 A  
BRANCH   9  13
HETATM   13  C   UNL     1     -10.364   8.908  66.920  1.00  0.00    -0.262 C  
BRANCH  13  14
HETATM   14  C   UNL     1     -10.608  10.389  66.781  1.00  0.00    -0.270 A  
HETATM   15  C   UNL     1     -11.268  12.527  67.704  1.00  0.00    -0.332 A  
HETATM   16  C   UNL     1     -10.427  13.200  66.801  1.00  0.00    -0.262 A  
HETATM   17  C   UNL     1     -10.069  11.066  65.685  1.00  0.00    -0.310 A  
HETATM   18  C   UNL     1     -11.308  11.126  67.734  1.00  0.00    -0.364 A  
HETATM   19  C   UNL     1      -9.961  12.456  65.707  1.00  0.00    -0.270 A  
BRANCH  16  20
HETATM   20  C   UNL     1      -9.917  14.580  67.056  1.00  0.00    -0.255 A  
HETATM   21  C   UNL     1     -10.755  15.688  66.782  1.00  0.00    -0.300 A  
HETATM   22  C   UNL     1      -8.580  14.868  67.467  1.00  0.00    -0.195 A  
HETATM   23  C   UNL     1     -10.318  17.010  66.916  1.00  0.00    -0.303 A  
HETATM   24  C   UNL     1      -8.184  16.211  67.657  1.00  0.00    -0.161 A  
HETATM   25  C   UNL     1      -9.038  17.273  67.375  1.00  0.00    -0.227 A  
BRANCH  22  26
HETATM   26  C   UNL     1      -7.514  13.877  67.666  1.00  0.00    -0.176 A  
HETATM   27  N   UNL     1      -7.622  12.706  68.271  1.00  0.00    -0.125 NA 
HETATM   28  H   UNL     1      -8.466  12.310  68.683  1.00  0.00     0.000 HD 
HETATM   29  N   UNL     1      -6.377  12.127  68.238  1.00  0.00    -0.051 NA 
HETATM   30  N   UNL     1      -5.500  12.925  67.649  1.00  0.00    -0.193 NA 
HETATM   31  N   UNL     1      -6.193  14.028  67.335  1.00  0.00    -0.316 NA 
ENDBRANCH  22  26
ENDBRANCH  16  20
ENDBRANCH  13  14
ENDBRANCH   9  13
BRANCH   8  32
HETATM   32  C   UNL     1      -9.048   9.365  70.105  1.00  0.00    -0.231 C  
HETATM   33  O   UNL     1      -9.165  10.577  70.166  1.00  0.00     0.248 OA 
BRANCH  32  34
HETATM   34  O   UNL     1      -9.982   8.477  70.533  1.00  0.00    -0.181 OA 
BRANCH  34  35
HETATM   35  C   UNL     1     -10.772   8.992  71.615  1.00  0.00    -0.371 C  
HETATM   36  C   UNL     1     -12.100   9.421  70.988  1.00  0.00    -0.373 C  
BRANCH  35  37
HETATM   37  O   UNL     1     -11.123   7.991  72.572  1.00  0.00    -0.319 OA 
BRANCH  37  38
HETATM   38  C   UNL     1     -10.133   7.590  73.400  1.00  0.00    -0.338 C  
HETATM   39  O   UNL     1      -9.135   8.223  73.695  1.00  0.00    -0.222 OA 
BRANCH  38  40
HETATM   40  O   UNL     1     -10.481   6.371  73.852  1.00  0.00    -0.289 OA 
BRANCH  40  41
HETATM   41  C   UNL     1      -9.797   5.146  73.500  1.00  0.00    -0.156 C  
HETATM   42  C   UNL     1      -9.166   4.805  70.612  1.00  0.00    -0.191 C  
HETATM   43  C   UNL     1     -10.714   4.389  72.537  1.00  0.00    -0.164 C  
HETATM   44  C   UNL     1     -10.598   4.925  71.113  1.00  0.00    -0.096 C  
HETATM   45  C   UNL     1      -8.172   5.527  71.516  1.00  0.00    -0.119 C  
HETATM   46  C   UNL     1      -8.349   5.211  73.004  1.00  0.00    -0.112 C  
ENDBRANCH  40  41
ENDBRANCH  38  40
ENDBRANCH  37  38
ENDBRANCH  35  37
ENDBRANCH  34  35
ENDBRANCH  32  34
ENDBRANCH   8  32
ENDBRANCH   3   4
ENDBRANCH   2   3
TORSDOF 13
ENDMDL
MODEL      204
REMARK 921   NORMALIZED FREE ENERGY PREDICTED BY IDOCK:   -4.99 KCAL/MOL
REMARK 922        TOTAL FREE ENERGY PREDICTED BY IDOCK:  -11.23 KCAL/MOL
REMARK 923 INTER-LIGAND FREE ENERGY PREDICTED BY IDOCK:   -9.22 KCAL/MOL
REMARK 924 INTRA-LIGAND FREE ENERGY PREDICTED BY IDOCK:   -2.01 KCAL/MOL
REMARK 927      BINDING AFFINITY PREDICTED BY RF-SCORE:    0.00 PKD
ROOT
HETATM    1  C   UNL     1      -8.741   9.972  63.696  1.00  0.00    -0.227 C  
HETATM    2  C   UNL     1      -8.351  10.269  65.133  1.00  0.00    -0.161 C  
ENDROOT
BRANCH   2   3
HETATM    3  O   UNL     1      -7.383   9.293  65.534  1.00  0.00    -0.088 OA 
BRANCH   3   4
HETATM    4  C   UNL     1      -7.890   8.109  65.868  1.00  0.00    -0.094 A  
HETATM    5  N   UNL     1      -8.372   7.237  65.014  1.00  0.00    -0.096 NA 
HETATM    6  C   UNL     1      -8.783   6.186  65.780  1.00  0.00    -0.145 A  
HETATM    7  C   UNL     1      -8.487   6.374  67.145  1.00  0.00    -0.112 A  
HETATM    8  C   UNL     1      -8.736   5.327  68.067  1.00  0.00    -0.102 A  
HETATM    9  N   UNL     1      -8.013   7.680  67.172  1.00  0.00    -0.116 NA 
HETATM   10  C   UNL     1      -9.740   4.019  66.241  1.00  0.00    -0.201 A  
HETATM   11  C   UNL     1      -9.437   5.025  65.333  1.00  0.00    -0.099 A  
HETATM   12  C   UNL     1      -9.365   4.161  67.572  1.00  0.00    -0.204 A  
BRANCH   9  13
HETATM   13  C   UNL     1      -7.839   8.594  68.301  1.00  0.00    -0.102 C  
BRANCH  13  14
HETATM   14  C   UNL     1      -9.144   9.079  68.880  1.00  0.00    -0.140 A  
HETATM   15  C   UNL     1     -10.529   9.702  70.764  1.00  0.00    -0.375 A  
HETATM   16  C   UNL     1     -11.254  10.599  69.962  1.00  0.00    -0.382 A  
HETATM   17  C   UNL     1     -10.076   9.686  68.036  1.00  0.00    -0.213 A  
HETATM   18  C   UNL     1      -9.439   8.995  70.240  1.00  0.00    -0.230 A  
HETATM   19  C   UNL     1     -11.108  10.455  68.573  1.00  0.00    -0.318 A  
BRANCH  16  20
HETATM   20  C   UNL     1     -12.019  11.748  70.531  1.00  0.00    -0.383 A  
HETATM   21  C   UNL     1     -12.963  11.508  71.559  1.00  0.00    -0.485 A  
HETATM   22  C   UNL     1     -11.937  13.082  70.029  1.00  0.00    -0.383 A  
HETATM   23  C   UNL     1     -13.774  12.520  72.082  1.00  0.00    -0.338 A  
HETATM   24  C   UNL     1     -12.721  14.098  70.620  1.00  0.00    -0.389 A  
HETATM   25  C   UNL     1     -13.639  13.821  71.628  1.00  0.00    -0.386 A  
BRANCH  22  26
HETATM   26  C   UNL     1     -11.131  13.515  68.879  1.00  0.00    -0.267 A  
HETATM   27  N   UNL     1      -9.837  13.784  68.874  1.00  0.00    -0.417 NA 
HETATM   28  H   UNL     1      -9.199  13.719  69.667  1.00  0.00     0.000 HD 
HETATM   29  N   UNL     1      -9.516  14.165  67.594  1.00  0.00    -0.207 NA 
HETATM   30  N   UNL     1     -10.588  14.161  66.818  1.00  0.00    -0.276 NA 
HETATM   31  N   UNL     1     -11.598  13.804  67.623  1.00  0.00    -0.326 NA 
ENDBRANCH  22  26
ENDBRANCH  16  20
ENDBRANCH  13  14
ENDBRANCH   9  13
BRANCH   8  32
HETATM   32  C   UNL     1      -8.527   5.416  69.532  1.00  0.00    -0.100 C  
HETATM   33  O   UNL     1      -9.418   5.236  70.345  1.00  0.00    -0.151 OA 
BRANCH  32  34
HETATM   34  O   UNL     1      -7.207   5.492  69.838  1.00  0.00    -0.064 OA 
BRANCH  34  35
HETATM   35  C   UNL     1      -6.848   4.636  70.933  1.00  0.00    -0.036 C  
HETATM   36  C   UNL     1      -5.794   3.678  70.379  1.00  0.00    -0.017 C  
BRANCH  35  37
HETATM   37  O   UNL     1      -6.192   5.334  71.992  1.00  0.00    -0.028 OA 
BRANCH  37  38
HETATM   38  C   UNL     1      -6.570   6.618  72.181  1.00  0.00    -0.058 C  
HETATM   39  O   UNL     1      -5.859   7.603  72.083  1.00  0.00    -0.036 OA 
BRANCH  38  40
HETATM   40  O   UNL     1      -7.884   6.594  72.469  1.00  0.00    -0.101 OA 
BRANCH  40  41
HETATM   41  C   UNL     1      -8.431   6.193  73.746  1.00  0.00    -0.123 C  
HETATM   42  C   UNL     1     -11.117   4.915  73.656  1.00  0.00    -0.370 C  
HETATM   43  C   UNL     1      -9.729   6.981  73.939  1.00  0.00    -0.331 C  
HETATM   44  C   UNL     1     -10.890   6.344  73.183  1.00  0.00    -0.282 C  
HETATM   45  C   UNL     1      -9.870   4.049  73.508  1.00  0.00    -0.157 C  
HETATM   46  C   UNL     1      -8.597   4.701  74.056  1.00  0.00    -0.105 C  
ENDBRANCH  40  41
ENDBRANCH  38  40
ENDBRANCH  37  38
ENDBRANCH  35  37
ENDBRANCH  34  35
ENDBRANCH  32  34
ENDBRANCH   8  32
ENDBRANCH   3   4
ENDBRANCH   2   3
TORSDOF 13
ENDMDL
MODEL      205
REMARK 921   NORMALIZED FREE ENERGY PREDICTED BY IDOCK:   -4.98 KCAL/MOL
REMARK 922        TOTAL FREE ENERGY PREDICTED BY IDOCK:  -11.22 KCAL/MOL
REMARK 923 INTER-LIGAND FREE ENERGY PREDICTED BY IDOCK:  -10.09 KCAL/MOL
REMARK 924 INTRA-LIGAND FREE ENERGY PREDICTED BY IDOCK:   -1.13 KCAL/MOL
REMARK 927      BINDING AFFINITY PREDICTED BY RF-SCORE:    0.00 PKD
ROOT
HETATM    1  C   UNL     1     -10.895   6.781  67.106  1.00  0.00    -0.462 C  
HETATM    2  C   UNL     1     -10.890   8.299  67.149  1.00  0.00    -0.024 C  
ENDROOT
BRANCH   2   3
HETATM    3  O   UNL     1     -10.088   8.764  66.059  1.00  0.00    -0.228 OA 
BRANCH   3   4
HETATM    4  C   UNL     1      -9.984  10.087  65.967  1.00  0.00    -0.267 A  
HETATM    5  N   UNL     1     -10.805  10.853  65.286  1.00  0.00    -0.123 NA 
HETATM    6  C   UNL     1     -10.327  12.120  65.460  1.00  0.00    -0.263 A  
HETATM    7  C   UNL     1      -9.219  12.157  66.329  1.00  0.00    -0.183 A  
HETATM    8  C   UNL     1      -8.673  13.405  66.715  1.00  0.00    -0.093 A  
HETATM    9  N   UNL     1      -8.960  10.808  66.543  1.00  0.00    -0.153 NA 
HETATM   10  C   UNL     1     -10.255  14.517  65.195  1.00  0.00    -0.420 A  
HETATM   11  C   UNL     1     -10.824  13.293  64.868  1.00  0.00    -0.358 A  
HETATM   12  C   UNL     1      -9.222  14.566  66.124  1.00  0.00    -0.175 A  
BRANCH   9  13
HETATM   13  C   UNL     1      -7.767  10.152  67.079  1.00  0.00    -0.096 C  
BRANCH  13  14
HETATM   14  C   UNL     1      -8.007   9.472  68.403  1.00  0.00    -0.093 A  
HETATM   15  C   UNL     1      -9.131   9.328  70.541  1.00  0.00    -0.307 A  
HETATM   16  C   UNL     1      -9.000   7.929  70.540  1.00  0.00    -0.145 A  
HETATM   17  C   UNL     1      -7.574   8.156  68.578  1.00  0.00    -0.104 A  
HETATM   18  C   UNL     1      -8.694  10.088  69.448  1.00  0.00    -0.195 A  
HETATM   19  C   UNL     1      -8.084   7.388  69.624  1.00  0.00    -0.128 A  
BRANCH  16  20
HETATM   20  C   UNL     1      -9.887   7.038  71.344  1.00  0.00    -0.180 A  
HETATM   21  C   UNL     1      -9.451   5.727  71.656  1.00  0.00    -0.172 A  
HETATM   22  C   UNL     1     -11.214   7.388  71.740  1.00  0.00    -0.277 A  
HETATM   23  C   UNL     1     -10.261   4.809  72.333  1.00  0.00    -0.252 A  
HETATM   24  C   UNL     1     -11.987   6.464  72.479  1.00  0.00    -0.123 A  
HETATM   25  C   UNL     1     -11.522   5.185  72.765  1.00  0.00    -0.284 A  
BRANCH  22  26
HETATM   26  C   UNL     1     -11.908   8.636  71.396  1.00  0.00    -0.297 A  
HETATM   27  N   UNL     1     -12.366   8.988  70.207  1.00  0.00    -0.244 NA 
HETATM   28  H   UNL     1     -12.315   8.439  69.349  1.00  0.00     0.000 HD 
HETATM   29  N   UNL     1     -12.924  10.235  70.350  1.00  0.00    -0.200 NA 
HETATM   30  N   UNL     1     -12.798  10.669  71.594  1.00  0.00    -0.448 NA 
HETATM   31  N   UNL     1     -12.128   9.700  72.232  1.00  0.00    -0.063 NA 
ENDBRANCH  22  26
ENDBRANCH  16  20
ENDBRANCH  13  14
ENDBRANCH   9  13
BRANCH   8  32
HETATM   32  C   UNL     1      -7.475  13.582  67.571  1.00  0.00    -0.167 C  
HETATM   33  O   UNL     1      -6.711  12.673  67.847  1.00  0.00    -0.082 OA 
BRANCH  32  34
HETATM   34  O   UNL     1      -7.226  14.896  67.806  1.00  0.00    -0.137 OA 
BRANCH  34  35
HETATM   35  C   UNL     1      -7.608  15.299  69.129  1.00  0.00    -0.192 C  
HETATM   36  C   UNL     1      -6.513  14.765  70.054  1.00  0.00    -0.169 C  
BRANCH  35  37
HETATM   37  O   UNL     1      -7.584  16.715  69.308  1.00  0.00    -0.227 OA 
BRANCH  37  38
HETATM   38  C   UNL     1      -6.552  17.369  68.729  1.00  0.00    -0.206 C  
HETATM   39  O   UNL     1      -5.400  17.397  69.124  1.00  0.00    -0.157 OA 
BRANCH  38  40
HETATM   40  O   UNL     1      -7.042  17.955  67.620  1.00  0.00    -0.191 OA 
BRANCH  40  41
HETATM   41  C   UNL     1      -7.633  19.275  67.591  1.00  0.00    -0.244 C  
HETATM   42  C   UNL     1     -10.583  19.359  67.210  1.00  0.00    -0.599 C  
HETATM   43  C   UNL     1      -8.286  19.437  66.216  1.00  0.00    -0.338 C  
HETATM   44  C   UNL     1      -9.654  18.765  66.161  1.00  0.00    -0.238 C  
HETATM   45  C   UNL     1     -10.012  19.251  68.621  1.00  0.00    -0.506 C  
HETATM   46  C   UNL     1      -8.555  19.710  68.734  1.00  0.00    -0.277 C  
ENDBRANCH  40  41
ENDBRANCH  38  40
ENDBRANCH  37  38
ENDBRANCH  35  37
ENDBRANCH  34  35
ENDBRANCH  32  34
ENDBRANCH   8  32
ENDBRANCH   3   4
ENDBRANCH   2   3
TORSDOF 13
ENDMDL
MODEL      206
REMARK 921   NORMALIZED FREE ENERGY PREDICTED BY IDOCK:   -4.92 KCAL/MOL
REMARK 922        TOTAL FREE ENERGY PREDICTED BY IDOCK:  -11.11 KCAL/MOL
REMARK 923 INTER-LIGAND FREE ENERGY PREDICTED BY IDOCK:   -8.85 KCAL/MOL
REMARK 924 INTRA-LIGAND FREE ENERGY PREDICTED BY IDOCK:   -2.26 KCAL/MOL
REMARK 927      BINDING AFFINITY PREDICTED BY RF-SCORE:    0.00 PKD
ROOT
HETATM    1  C   UNL     1     -13.759  13.717  72.591  1.00  0.00    -0.551 C  
HETATM    2  C   UNL     1     -12.652  13.866  71.562  1.00  0.00    -0.334 C  
ENDROOT
BRANCH   2   3
HETATM    3  O   UNL     1     -12.962  13.007  70.460  1.00  0.00     0.006 OA 
BRANCH   3   4
HETATM    4  C   UNL     1     -12.271  11.871  70.427  1.00  0.00    -0.314 A  
HETATM    5  N   UNL     1     -12.052  11.101  71.468  1.00  0.00    -0.023 NA 
HETATM    6  C   UNL     1     -11.308  10.064  70.988  1.00  0.00    -0.357 A  
HETATM    7  C   UNL     1     -11.113  10.149  69.595  1.00  0.00    -0.263 A  
HETATM    8  C   UNL     1     -10.464   9.091  68.912  1.00  0.00    -0.231 A  
HETATM    9  N   UNL     1     -11.654  11.392  69.291  1.00  0.00    -0.286 NA 
HETATM   10  C   UNL     1     -10.069   7.995  71.079  1.00  0.00    -0.213 A  
HETATM   11  C   UNL     1     -10.760   9.007  71.733  1.00  0.00    -0.437 A  
HETATM   12  C   UNL     1      -9.956   8.028  69.694  1.00  0.00    -0.188 A  
BRANCH   9  13
HETATM   13  C   UNL     1     -11.492  12.223  68.098  1.00  0.00    -0.316 C  
BRANCH  13  14
HETATM   14  C   UNL     1     -10.562  13.391  68.310  1.00  0.00    -0.264 A  
HETATM   15  C   UNL     1      -8.359  14.300  68.729  1.00  0.00    -0.095 A  
HETATM   16  C   UNL     1      -8.688  15.475  68.031  1.00  0.00    -0.163 A  
HETATM   17  C   UNL     1     -10.985  14.670  67.942  1.00  0.00    -0.283 A  
HETATM   18  C   UNL     1      -9.270  13.240  68.812  1.00  0.00     0.127 A  
HETATM   19  C   UNL     1     -10.052  15.695  67.784  1.00  0.00    -0.226 A  
BRANCH  16  20
HETATM   20  C   UNL     1      -7.653  16.373  67.437  1.00  0.00    -0.186 A  
HETATM   21  C   UNL     1      -6.348  15.869  67.213  1.00  0.00    -0.148 A  
HETATM   22  C   UNL     1      -7.864  17.759  67.172  1.00  0.00    -0.229 A  
HETATM   23  C   UNL     1      -5.306  16.673  66.739  1.00  0.00    -0.005 A  
HETATM   24  C   UNL     1      -6.812  18.533  66.632  1.00  0.00    -0.221 A  
HETATM   25  C   UNL     1      -5.543  18.001  66.427  1.00  0.00    -0.207 A  
BRANCH  22  26
HETATM   26  C   UNL     1      -9.093  18.510  67.465  1.00  0.00    -0.279 A  
HETATM   27  N   UNL     1     -10.072  18.789  66.622  1.00  0.00    -0.353 NA 
HETATM   28  H   UNL     1     -10.127  18.516  65.641  1.00  0.00     0.000 HD 
HETATM   29  N   UNL     1     -11.002  19.518  67.322  1.00  0.00    -0.450 NA 
HETATM   30  N   UNL     1     -10.606  19.715  68.569  1.00  0.00    -0.197 NA 
HETATM   31  N   UNL     1      -9.403  19.131  68.647  1.00  0.00    -0.372 NA 
ENDBRANCH  22  26
ENDBRANCH  16  20
ENDBRANCH  13  14
ENDBRANCH   9  13
BRANCH   8  32
HETATM   32  C   UNL     1     -10.143   9.082  67.465  1.00  0.00    -0.228 C  
HETATM   33  O   UNL     1     -10.868   8.581  66.622  1.00  0.00    -0.090 OA 
BRANCH  32  34
HETATM   34  O   UNL     1      -9.082   9.883  67.190  1.00  0.00    -0.137 OA 
BRANCH  34  35
HETATM   35  C   UNL     1      -8.785   9.938  65.787  1.00  0.00    -0.141 C  
HETATM   36  C   UNL     1      -8.420  11.396  65.500  1.00  0.00     0.163 C  
BRANCH  35  37
HETATM   37  O   UNL     1      -7.619   9.191  65.436  1.00  0.00    -0.095 OA 
BRANCH  37  38
HETATM   38  C   UNL     1      -7.831   8.062  64.724  1.00  0.00    -0.131 C  
HETATM   39  O   UNL     1      -7.759   7.947  63.513  1.00  0.00    -0.123 OA 
BRANCH  38  40
HETATM   40  O   UNL     1      -8.109   7.091  65.614  1.00  0.00    -0.115 OA 
BRANCH  40  41
HETATM   41  C   UNL     1      -7.854   5.685  65.392  1.00  0.00    -0.102 C  
HETATM   42  C   UNL     1      -9.534   3.804  66.971  1.00  0.00    -0.227 C  
HETATM   43  C   UNL     1      -7.404   5.100  66.733  1.00  0.00    -0.086 C  
HETATM   44  C   UNL     1      -8.592   4.796  67.639  1.00  0.00    -0.103 C  
HETATM   45  C   UNL     1     -10.034   4.299  65.618  1.00  0.00    -0.233 C  
HETATM   46  C   UNL     1      -8.922   4.828  64.706  1.00  0.00    -0.146 C  
ENDBRANCH  40  41
ENDBRANCH  38  40
ENDBRANCH  37  38
ENDBRANCH  35  37
ENDBRANCH  34  35
ENDBRANCH  32  34
ENDBRANCH   8  32
ENDBRANCH   3   4
ENDBRANCH   2   3
TORSDOF 13
ENDMDL
MODEL      207
REMARK 921   NORMALIZED FREE ENERGY PREDICTED BY IDOCK:   -4.90 KCAL/MOL
REMARK 922        TOTAL FREE ENERGY PREDICTED BY IDOCK:  -11.07 KCAL/MOL
REMARK 923 INTER-LIGAND FREE ENERGY PREDICTED BY IDOCK:   -8.17 KCAL/MOL
REMARK 924 INTRA-LIGAND FREE ENERGY PREDICTED BY IDOCK:   -2.90 KCAL/MOL
REMARK 927      BINDING AFFINITY PREDICTED BY RF-SCORE:    0.00 PKD
ROOT
HETATM    1  C   UNL     1     -13.349   8.706  72.746  1.00  0.00    -0.172 C  
HETATM    2  C   UNL     1     -12.508   9.287  71.624  1.00  0.00    -0.368 C  
ENDROOT
BRANCH   2   3
HETATM    3  O   UNL     1     -11.212   9.581  72.155  1.00  0.00    -0.066 OA 
BRANCH   3   4
HETATM    4  C   UNL     1     -10.283   8.662  71.904  1.00  0.00    -0.334 A  
HETATM    5  N   UNL     1     -10.205   7.498  72.507  1.00  0.00    -0.214 NA 
HETATM    6  C   UNL     1      -9.117   6.889  71.953  1.00  0.00    -0.141 A  
HETATM    7  C   UNL     1      -8.539   7.662  70.927  1.00  0.00    -0.129 A  
HETATM    8  C   UNL     1      -7.472   7.127  70.163  1.00  0.00    -0.089 A  
HETATM    9  N   UNL     1      -9.254   8.850  71.007  1.00  0.00    -0.223 NA 
HETATM   10  C   UNL     1      -7.491   5.140  71.612  1.00  0.00    -0.096 A  
HETATM   11  C   UNL     1      -8.575   5.644  72.317  1.00  0.00    -0.129 A  
HETATM   12  C   UNL     1      -6.976   5.857  70.539  1.00  0.00    -0.058 A  
BRANCH   9  13
HETATM   13  C   UNL     1      -8.951  10.170  70.453  1.00  0.00     0.451 C  
BRANCH  13  14
HETATM   14  C   UNL     1      -9.466  10.358  69.048  1.00  0.00    -0.205 A  
HETATM   15  C   UNL     1     -11.261  10.336  67.426  1.00  0.00    -0.145 A  
HETATM   16  C   UNL     1     -10.618  11.330  66.668  1.00  0.00    -0.309 A  
HETATM   17  C   UNL     1      -8.687  11.061  68.128  1.00  0.00    -0.141 A  
HETATM   18  C   UNL     1     -10.719   9.900  68.641  1.00  0.00    -0.256 A  
HETATM   19  C   UNL     1      -9.264  11.560  66.961  1.00  0.00    -0.180 A  
BRANCH  16  20
HETATM   20  C   UNL     1     -11.350  12.212  65.713  1.00  0.00    -0.402 A  
HETATM   21  C   UNL     1     -11.400  11.857  64.343  1.00  0.00    -0.395 A  
HETATM   22  C   UNL     1     -11.926  13.467  66.075  1.00  0.00    -0.449 A  
HETATM   23  C   UNL     1     -11.995  12.675  63.377  1.00  0.00    -0.613 A  
HETATM   24  C   UNL     1     -12.578  14.244  65.091  1.00  0.00    -0.384 A  
HETATM   25  C   UNL     1     -12.604  13.860  63.754  1.00  0.00     0.012 A  
BRANCH  22  26
HETATM   26  C   UNL     1     -11.861  14.087  67.406  1.00  0.00    -0.409 A  
HETATM   27  N   UNL     1     -12.292  13.570  68.544  1.00  0.00    -0.242 NA 
HETATM   28  H   UNL     1     -12.727  12.656  68.671  1.00  0.00     0.000 HD 
HETATM   29  N   UNL     1     -12.041  14.501  69.522  1.00  0.00    -0.315 NA 
HETATM   30  N   UNL     1     -11.488  15.589  69.009  1.00  0.00    -0.329 NA 
HETATM   31  N   UNL     1     -11.418  15.352  67.691  1.00  0.00    -0.298 NA 
ENDBRANCH  22  26
ENDBRANCH  16  20
ENDBRANCH  13  14
ENDBRANCH   9  13
BRANCH   8  32
HETATM   32  C   UNL     1      -6.738   7.855  69.100  1.00  0.00    -0.048 C  
HETATM   33  O   UNL     1      -5.527   7.998  69.103  1.00  0.00    -0.029 OA 
BRANCH  32  34
HETATM   34  O   UNL     1      -7.544   8.128  68.043  1.00  0.00    -0.101 OA 
BRANCH  34  35
HETATM   35  C   UNL     1      -8.049   6.940  67.416  1.00  0.00    -0.115 C  
HETATM   36  C   UNL     1      -9.187   7.406  66.506  1.00  0.00    -0.206 C  
BRANCH  35  37
HETATM   37  O   UNL     1      -7.103   6.329  66.539  1.00  0.00    -0.065 OA 
BRANCH  37  38
HETATM   38  C   UNL     1      -6.841   5.022  66.766  1.00  0.00    -0.063 C  
HETATM   39  O   UNL     1      -6.171   4.566  67.675  1.00  0.00    -0.033 OA 
BRANCH  38  40
HETATM   40  O   UNL     1      -7.488   4.329  65.811  1.00  0.00    -0.079 OA 
BRANCH  40  41
HETATM   41  C   UNL     1      -8.638   3.486  66.053  1.00  0.00    -0.117 C  
HETATM   42  C   UNL     1      -8.655   2.043  68.656  1.00  0.00    -0.097 C  
HETATM   43  C   UNL     1      -8.114   2.057  66.211  1.00  0.00    -0.081 C  
HETATM   44  C   UNL     1      -7.571   1.809  67.614  1.00  0.00    -0.058 C  
HETATM   45  C   UNL     1      -9.246   3.447  68.574  1.00  0.00    -0.229 C  
HETATM   46  C   UNL     1      -9.632   3.872  67.153  1.00  0.00    -0.226 C  
ENDBRANCH  40  41
ENDBRANCH  38  40
ENDBRANCH  37  38
ENDBRANCH  35  37
ENDBRANCH  34  35
ENDBRANCH  32  34
ENDBRANCH   8  32
ENDBRANCH   3   4
ENDBRANCH   2   3
TORSDOF 13
ENDMDL
MODEL      208
REMARK 921   NORMALIZED FREE ENERGY PREDICTED BY IDOCK:   -4.88 KCAL/MOL
REMARK 922        TOTAL FREE ENERGY PREDICTED BY IDOCK:  -11.04 KCAL/MOL
REMARK 923 INTER-LIGAND FREE ENERGY PREDICTED BY IDOCK:   -8.80 KCAL/MOL
REMARK 924 INTRA-LIGAND FREE ENERGY PREDICTED BY IDOCK:   -2.24 KCAL/MOL
REMARK 927      BINDING AFFINITY PREDICTED BY RF-SCORE:    0.00 PKD
ROOT
HETATM    1  C   UNL     1     -13.271  15.101  72.113  1.00  0.00    -0.470 C  
HETATM    2  C   UNL     1     -12.090  15.204  71.165  1.00  0.00    -0.333 C  
ENDROOT
BRANCH   2   3
HETATM    3  O   UNL     1     -11.915  13.927  70.543  1.00  0.00    -0.323 OA 
BRANCH   3   4
HETATM    4  C   UNL     1     -10.816  13.812  69.803  1.00  0.00     0.217 A  
HETATM    5  N   UNL     1      -9.845  14.694  69.769  1.00  0.00     0.170 NA 
HETATM    6  C   UNL     1      -8.938  14.184  68.887  1.00  0.00     0.019 A  
HETATM    7  C   UNL     1      -9.317  12.914  68.408  1.00  0.00    -0.147 A  
HETATM    8  C   UNL     1      -8.432  12.186  67.576  1.00  0.00    -0.169 A  
HETATM    9  N   UNL     1     -10.593  12.762  68.937  1.00  0.00    -0.175 NA 
HETATM   10  C   UNL     1      -6.905  14.114  67.590  1.00  0.00    -0.196 A  
HETATM   11  C   UNL     1      -7.750  14.797  68.454  1.00  0.00    -0.122 A  
HETATM   12  C   UNL     1      -7.230  12.824  67.189  1.00  0.00    -0.014 A  
BRANCH   9  13
HETATM   13  C   UNL     1     -11.659  11.830  68.570  1.00  0.00    -0.321 C  
BRANCH  13  14
HETATM   14  C   UNL     1     -11.605  10.534  69.339  1.00  0.00    -0.318 A  
HETATM   15  C   UNL     1     -10.948   8.214  69.544  1.00  0.00    -0.056 A  
HETATM   16  C   UNL     1     -10.868   8.338  70.941  1.00  0.00    -0.261 A  
HETATM   17  C   UNL     1     -11.866  10.547  70.711  1.00  0.00    -0.465 A  
HETATM   18  C   UNL     1     -11.253   9.323  68.744  1.00  0.00     0.169 A  
HETATM   19  C   UNL     1     -11.481   9.468  71.505  1.00  0.00    -0.466 A  
BRANCH  16  20
HETATM   20  C   UNL     1     -10.048   7.417  71.784  1.00  0.00    -0.197 A  
HETATM   21  C   UNL     1     -10.683   6.342  72.451  1.00  0.00    -0.257 A  
HETATM   22  C   UNL     1      -8.659   7.612  72.050  1.00  0.00    -0.136 A  
HETATM   23  C   UNL     1      -9.997   5.489  73.321  1.00  0.00    -0.188 A  
HETATM   24  C   UNL     1      -7.975   6.698  72.883  1.00  0.00    -0.103 A  
HETATM   25  C   UNL     1      -8.636   5.654  73.522  1.00  0.00    -0.114 A  
BRANCH  22  26
HETATM   26  C   UNL     1      -7.847   8.741  71.576  1.00  0.00    -0.104 A  
HETATM   27  N   UNL     1      -8.075   9.490  70.511  1.00  0.00    -0.188 NA 
HETATM   28  H   UNL     1      -8.857   9.403  69.862  1.00  0.00     0.000 HD 
HETATM   29  N   UNL     1      -7.055  10.408  70.447  1.00  0.00    -0.282 NA 
HETATM   30  N   UNL     1      -6.192  10.226  71.434  1.00  0.00    -0.308 NA 
HETATM   31  N   UNL     1      -6.657   9.164  72.107  1.00  0.00    -0.293 NA 
ENDBRANCH  22  26
ENDBRANCH  16  20
ENDBRANCH  13  14
ENDBRANCH   9  13
BRANCH   8  32
HETATM   32  C   UNL     1      -8.732  10.873  66.957  1.00  0.00    -0.141 C  
HETATM   33  O   UNL     1      -8.298   9.817  67.386  1.00  0.00    -0.114 OA 
BRANCH  32  34
HETATM   34  O   UNL     1      -9.709  10.980  66.021  1.00  0.00    -0.207 OA 
BRANCH  34  35
HETATM   35  C   UNL     1      -9.252  11.624  64.822  1.00  0.00     0.111 C  
HETATM   36  C   UNL     1      -9.234  10.532  63.750  1.00  0.00    -0.292 C  
BRANCH  35  37
HETATM   37  O   UNL     1     -10.167  12.605  64.334  1.00  0.00    -0.338 OA 
BRANCH  37  38
HETATM   38  C   UNL     1     -11.476  12.272  64.381  1.00  0.00    -0.354 C  
HETATM   39  O   UNL     1     -12.088  11.623  63.551  1.00  0.00    -0.441 OA 
BRANCH  38  40
HETATM   40  O   UNL     1     -11.959  12.772  65.534  1.00  0.00    -0.399 OA 
BRANCH  40  41
HETATM   41  C   UNL     1     -12.621  14.052  65.652  1.00  0.00    -0.512 C  
HETATM   42  C   UNL     1     -10.873  16.442  65.359  1.00  0.00    -0.249 C  
HETATM   43  C   UNL     1     -11.991  14.768  66.849  1.00  0.00    -0.212 C  
HETATM   44  C   UNL     1     -10.668  15.428  66.475  1.00  0.00    -0.308 C  
HETATM   45  C   UNL     1     -11.505  15.820  64.118  1.00  0.00    -0.079 C  
HETATM   46  C   UNL     1     -12.733  14.955  64.419  1.00  0.00     0.167 C  
ENDBRANCH  40  41
ENDBRANCH  38  40
ENDBRANCH  37  38
ENDBRANCH  35  37
ENDBRANCH  34  35
ENDBRANCH  32  34
ENDBRANCH   8  32
ENDBRANCH   3   4
ENDBRANCH   2   3
TORSDOF 13
ENDMDL
MODEL      209
REMARK 921   NORMALIZED FREE ENERGY PREDICTED BY IDOCK:   -4.85 KCAL/MOL
REMARK 922        TOTAL FREE ENERGY PREDICTED BY IDOCK:  -10.99 KCAL/MOL
REMARK 923 INTER-LIGAND FREE ENERGY PREDICTED BY IDOCK:  -10.50 KCAL/MOL
REMARK 924 INTRA-LIGAND FREE ENERGY PREDICTED BY IDOCK:   -0.49 KCAL/MOL
REMARK 927      BINDING AFFINITY PREDICTED BY RF-SCORE:    0.00 PKD
ROOT
HETATM    1  C   UNL     1     -14.141   7.995  72.696  1.00  0.00     0.103 C  
HETATM    2  C   UNL     1     -14.064   8.822  71.425  1.00  0.00    -0.246 C  
ENDROOT
BRANCH   2   3
HETATM    3  O   UNL     1     -12.765   9.421  71.371  1.00  0.00    -0.318 OA 
BRANCH   3   4
HETATM    4  C   UNL     1     -12.766  10.747  71.267  1.00  0.00    -0.441 A  
HETATM    5  N   UNL     1     -13.192  11.567  72.200  1.00  0.00    -0.404 NA 
HETATM    6  C   UNL     1     -13.018  12.815  71.676  1.00  0.00    -0.303 A  
HETATM    7  C   UNL     1     -12.401  12.779  70.410  1.00  0.00    -0.247 A  
HETATM    8  C   UNL     1     -12.036  13.991  69.774  1.00  0.00    -0.405 A  
HETATM    9  N   UNL     1     -12.361  11.418  70.133  1.00  0.00    -0.286 NA 
HETATM   10  C   UNL     1     -13.091  15.226  71.621  1.00  0.00    -0.507 A  
HETATM   11  C   UNL     1     -13.391  14.034  72.267  1.00  0.00    -0.574 A  
HETATM   12  C   UNL     1     -12.400  15.198  70.416  1.00  0.00    -0.411 A  
BRANCH   9  13
HETATM   13  C   UNL     1     -12.145  10.721  68.865  1.00  0.00    -0.037 C  
BRANCH  13  14
HETATM   14  C   UNL     1     -11.019   9.719  68.922  1.00  0.00    -0.183 A  
HETATM   15  C   UNL     1     -10.020   7.612  68.277  1.00  0.00    -0.198 A  
HETATM   16  C   UNL     1      -8.731   8.151  68.432  1.00  0.00    -0.134 A  
HETATM   17  C   UNL     1      -9.774  10.124  69.407  1.00  0.00    -0.247 A  
HETATM   18  C   UNL     1     -11.156   8.411  68.460  1.00  0.00     0.317 A  
HETATM   19  C   UNL     1      -8.640   9.358  69.145  1.00  0.00    -0.140 A  
BRANCH  16  20
HETATM   20  C   UNL     1      -7.533   7.577  67.751  1.00  0.00    -0.101 A  
HETATM   21  C   UNL     1      -6.672   6.717  68.475  1.00  0.00    -0.064 A  
HETATM   22  C   UNL     1      -7.131   7.926  66.426  1.00  0.00    -0.071 A  
HETATM   23  C   UNL     1      -5.489   6.209  67.931  1.00  0.00    -0.005 A  
HETATM   24  C   UNL     1      -5.964   7.347  65.877  1.00  0.00    -0.037 A  
HETATM   25  C   UNL     1      -5.145   6.506  66.623  1.00  0.00    -0.012 A  
BRANCH  22  26
HETATM   26  C   UNL     1      -7.799   8.905  65.559  1.00  0.00    -0.100 A  
HETATM   27  N   UNL     1      -7.225   9.706  64.677  1.00  0.00    -0.117 NA 
HETATM   28  H   UNL     1      -6.230   9.756  64.458  1.00  0.00     0.000 HD 
HETATM   29  N   UNL     1      -8.227  10.456  64.111  1.00  0.00    -0.149 NA 
HETATM   30  N   UNL     1      -9.401  10.153  64.642  1.00  0.00    -0.254 NA 
HETATM   31  N   UNL     1      -9.132   9.226  65.571  1.00  0.00    -0.208 NA 
ENDBRANCH  22  26
ENDBRANCH  16  20
ENDBRANCH  13  14
ENDBRANCH   9  13
BRANCH   8  32
HETATM   32  C   UNL     1     -11.440  14.097  68.421  1.00  0.00    -0.302 C  
HETATM   33  O   UNL     1     -12.034  14.562  67.463  1.00  0.00    -0.382 OA 
BRANCH  32  34
HETATM   34  O   UNL     1     -10.109  13.828  68.446  1.00  0.00    -0.233 OA 
BRANCH  34  35
HETATM   35  C   UNL     1      -9.605  13.430  67.163  1.00  0.00    -0.241 C  
HETATM   36  C   UNL     1     -10.716  12.593  66.526  1.00  0.00    -0.273 C  
BRANCH  35  37
HETATM   37  O   UNL     1      -9.416  14.530  66.273  1.00  0.00    -0.289 OA 
BRANCH  37  38
HETATM   38  C   UNL     1      -8.771  15.603  66.785  1.00  0.00    -0.271 C  
HETATM   39  O   UNL     1      -7.675  15.602  67.316  1.00  0.00    -0.168 OA 
BRANCH  38  40
HETATM   40  O   UNL     1      -9.565  16.668  66.568  1.00  0.00    -0.245 OA 
BRANCH  40  41
HETATM   41  C   UNL     1      -9.821  17.705  67.543  1.00  0.00    -0.299 C  
HETATM   42  C   UNL     1      -8.600  20.355  66.958  1.00  0.00    -0.370 C  
HETATM   43  C   UNL     1      -8.461  18.132  68.102  1.00  0.00    -0.282 C  
HETATM   44  C   UNL     1      -7.753  19.109  67.170  1.00  0.00    -0.263 C  
HETATM   45  C   UNL     1      -9.984  20.029  66.405  1.00  0.00    -0.601 C  
HETATM   46  C   UNL     1     -10.698  18.900  67.155  1.00  0.00    -0.506 C  
ENDBRANCH  40  41
ENDBRANCH  38  40
ENDBRANCH  37  38
ENDBRANCH  35  37
ENDBRANCH  34  35
ENDBRANCH  32  34
ENDBRANCH   8  32
ENDBRANCH   3   4
ENDBRANCH   2   3
TORSDOF 13
ENDMDL
MODEL      210
REMARK 921   NORMALIZED FREE ENERGY PREDICTED BY IDOCK:   -4.82 KCAL/MOL
REMARK 922        TOTAL FREE ENERGY PREDICTED BY IDOCK:  -10.94 KCAL/MOL
REMARK 923 INTER-LIGAND FREE ENERGY PREDICTED BY IDOCK:   -9.69 KCAL/MOL
REMARK 924 INTRA-LIGAND FREE ENERGY PREDICTED BY IDOCK:   -1.25 KCAL/MOL
REMARK 927      BINDING AFFINITY PREDICTED BY RF-SCORE:    0.00 PKD
ROOT
HETATM    1  C   UNL     1      -9.251   3.641  62.431  1.00  0.00    -0.092 C  
HETATM    2  C   UNL     1     -10.017   3.885  63.719  1.00  0.00    -0.175 C  
ENDROOT
BRANCH   2   3
HETATM    3  O   UNL     1      -9.078   3.852  64.799  1.00  0.00    -0.127 OA 
BRANCH   3   4
HETATM    4  C   UNL     1      -8.456   5.004  65.033  1.00  0.00    -0.146 A  
HETATM    5  N   UNL     1      -7.169   5.204  64.866  1.00  0.00    -0.062 NA 
HETATM    6  C   UNL     1      -6.966   6.504  65.225  1.00  0.00    -0.052 A  
HETATM    7  C   UNL     1      -8.169   7.158  65.561  1.00  0.00    -0.139 A  
HETATM    8  C   UNL     1      -8.157   8.546  65.842  1.00  0.00    -0.116 A  
HETATM    9  N   UNL     1      -9.092   6.120  65.534  1.00  0.00    -0.005 NA 
HETATM   10  C   UNL     1      -5.707   8.524  65.621  1.00  0.00    -0.043 A  
HETATM   11  C   UNL     1      -5.734   7.177  65.286  1.00  0.00    -0.036 A  
HETATM   12  C   UNL     1      -6.901   9.195  65.861  1.00  0.00    -0.087 A  
BRANCH   9  13
HETATM   13  C   UNL     1     -10.443   6.047  66.091  1.00  0.00     0.163 C  
BRANCH  13  14
HETATM   14  C   UNL     1     -10.464   6.034  67.599  1.00  0.00    -0.297 A  
HETATM   15  C   UNL     1      -9.684   5.181  69.724  1.00  0.00    -0.263 A  
HETATM   16  C   UNL     1      -9.945   6.417  70.341  1.00  0.00    -0.213 A  
HETATM   17  C   UNL     1     -11.040   7.110  68.278  1.00  0.00    -0.009 A  
HETATM   18  C   UNL     1      -9.883   5.013  68.348  1.00  0.00    -0.209 A  
HETATM   19  C   UNL     1     -10.764   7.309  69.630  1.00  0.00    -0.249 A  
BRANCH  16  20
HETATM   20  C   UNL     1      -9.272   6.843  71.604  1.00  0.00    -0.146 A  
HETATM   21  C   UNL     1      -8.160   6.105  72.077  1.00  0.00    -0.110 A  
HETATM   22  C   UNL     1      -9.746   7.901  72.437  1.00  0.00    -0.275 A  
HETATM   23  C   UNL     1      -7.532   6.392  73.293  1.00  0.00    -0.090 A  
HETATM   24  C   UNL     1      -9.053   8.212  73.629  1.00  0.00    -0.235 A  
HETATM   25  C   UNL     1      -7.965   7.461  74.060  1.00  0.00    -0.168 A  
BRANCH  22  26
HETATM   26  C   UNL     1     -10.960   8.695  72.205  1.00  0.00    -0.364 A  
HETATM   27  N   UNL     1     -11.046   9.840  71.550  1.00  0.00    -0.276 NA 
HETATM   28  H   UNL     1     -10.281  10.341  71.098  1.00  0.00     0.000 HD 
HETATM   29  N   UNL     1     -12.363  10.226  71.597  1.00  0.00    -0.384 NA 
HETATM   30  N   UNL     1     -13.086   9.357  72.286  1.00  0.00    -0.428 NA 
HETATM   31  N   UNL     1     -12.210   8.432  72.702  1.00  0.00    -0.329 NA 
ENDBRANCH  22  26
ENDBRANCH  16  20
ENDBRANCH  13  14
ENDBRANCH   9  13
BRANCH   8  32
HETATM   32  C   UNL     1      -9.336   9.338  66.266  1.00  0.00    -0.200 C  
HETATM   33  O   UNL     1      -9.421   9.879  67.356  1.00  0.00    -0.146 OA 
BRANCH  32  34
HETATM   34  O   UNL     1     -10.177   9.566  65.225  1.00  0.00    -0.044 OA 
BRANCH  34  35
HETATM   35  C   UNL     1     -10.088  10.910  64.731  1.00  0.00    -0.321 C  
HETATM   36  C   UNL     1      -9.814  10.781  63.232  1.00  0.00    -0.394 C  
BRANCH  35  37
HETATM   37  O   UNL     1     -11.325  11.619  64.820  1.00  0.00    -0.284 OA 
BRANCH  37  38
HETATM   38  C   UNL     1     -11.449  12.698  64.016  1.00  0.00    -0.411 C  
HETATM   39  O   UNL     1     -12.300  12.868  63.160  1.00  0.00    -0.614 OA 
BRANCH  38  40
HETATM   40  O   UNL     1     -10.470  13.552  64.364  1.00  0.00    -0.430 OA 
BRANCH  40  41
HETATM   41  C   UNL     1     -10.679  14.767  65.120  1.00  0.00    -0.415 C  
HETATM   42  C   UNL     1     -10.202  14.558  68.051  1.00  0.00    -0.233 C  
HETATM   43  C   UNL     1     -11.798  14.476  66.123  1.00  0.00    -0.344 C  
HETATM   44  C   UNL     1     -11.276  13.738  67.351  1.00  0.00    -0.330 C  
HETATM   45  C   UNL     1      -9.040  14.905  67.125  1.00  0.00    -0.236 C  
HETATM   46  C   UNL     1      -9.477  15.464  65.768  1.00  0.00    -0.325 C  
ENDBRANCH  40  41
ENDBRANCH  38  40
ENDBRANCH  37  38
ENDBRANCH  35  37
ENDBRANCH  34  35
ENDBRANCH  32  34
ENDBRANCH   8  32
ENDBRANCH   3   4
ENDBRANCH   2   3
TORSDOF 13
ENDMDL
MODEL      211
REMARK 921   NORMALIZED FREE ENERGY PREDICTED BY IDOCK:   -4.81 KCAL/MOL
REMARK 922        TOTAL FREE ENERGY PREDICTED BY IDOCK:  -10.91 KCAL/MOL
REMARK 923 INTER-LIGAND FREE ENERGY PREDICTED BY IDOCK:   -8.39 KCAL/MOL
REMARK 924 INTRA-LIGAND FREE ENERGY PREDICTED BY IDOCK:   -2.53 KCAL/MOL
REMARK 927      BINDING AFFINITY PREDICTED BY RF-SCORE:    0.00 PKD
ROOT
HETATM    1  C   UNL     1     -11.675  15.681  70.226  1.00  0.00    -0.375 C  
HETATM    2  C   UNL     1     -12.398  14.846  69.184  1.00  0.00    -0.063 C  
ENDROOT
BRANCH   2   3
HETATM    3  O   UNL     1     -11.901  13.507  69.274  1.00  0.00    -0.301 OA 
BRANCH   3   4
HETATM    4  C   UNL     1     -11.540  12.966  68.113  1.00  0.00    -0.336 A  
HETATM    5  N   UNL     1     -12.264  13.000  67.019  1.00  0.00    -0.359 NA 
HETATM    6  C   UNL     1     -11.525  12.329  66.089  1.00  0.00    -0.374 A  
HETATM    7  C   UNL     1     -10.274  11.924  66.595  1.00  0.00    -0.208 A  
HETATM    8  C   UNL     1      -9.330  11.319  65.728  1.00  0.00    -0.245 A  
HETATM    9  N   UNL     1     -10.372  12.255  67.940  1.00  0.00    -0.203 NA 
HETATM   10  C   UNL     1     -11.007  11.385  63.930  1.00  0.00    -0.442 A  
HETATM   11  C   UNL     1     -11.904  12.032  64.769  1.00  0.00    -0.325 A  
HETATM   12  C   UNL     1      -9.737  11.067  64.397  1.00  0.00    -0.330 A  
BRANCH   9  13
HETATM   13  C   UNL     1      -9.564  11.818  69.079  1.00  0.00     0.165 C  
BRANCH  13  14
HETATM   14  C   UNL     1      -9.639  10.332  69.325  1.00  0.00    -0.239 A  
HETATM   15  C   UNL     1     -10.774   8.204  69.130  1.00  0.00    -0.117 A  
HETATM   16  C   UNL     1      -9.544   7.524  69.131  1.00  0.00    -0.157 A  
HETATM   17  C   UNL     1      -8.477   9.643  69.679  1.00  0.00    -0.181 A  
HETATM   18  C   UNL     1     -10.816   9.604  69.162  1.00  0.00    -0.212 A  
HETATM   19  C   UNL     1      -8.426   8.255  69.561  1.00  0.00    -0.125 A  
BRANCH  16  20
HETATM   20  C   UNL     1      -9.384   6.153  68.561  1.00  0.00    -0.117 A  
HETATM   21  C   UNL     1      -9.204   6.002  67.165  1.00  0.00    -0.117 A  
HETATM   22  C   UNL     1      -9.507   4.956  69.330  1.00  0.00    -0.206 A  
HETATM   23  C   UNL     1      -9.130   4.748  66.550  1.00  0.00    -0.121 A  
HETATM   24  C   UNL     1      -9.364   3.702  68.693  1.00  0.00    -0.228 A  
HETATM   25  C   UNL     1      -9.188   3.596  67.317  1.00  0.00    -0.215 A  
BRANCH  22  26
HETATM   26  C   UNL     1      -9.835   4.886  70.760  1.00  0.00    -0.215 A  
HETATM   27  N   UNL     1     -10.502   5.784  71.465  1.00  0.00    -0.227 NA 
HETATM   28  H   UNL     1     -10.900   6.657  71.119  1.00  0.00     0.000 HD 
HETATM   29  N   UNL     1     -10.558   5.314  72.754  1.00  0.00    -0.215 NA 
HETATM   30  N   UNL     1      -9.918   4.160  72.864  1.00  0.00    -0.143 NA 
HETATM   31  N   UNL     1      -9.431   3.916  71.640  1.00  0.00    -0.141 NA 
ENDBRANCH  22  26
ENDBRANCH  16  20
ENDBRANCH  13  14
ENDBRANCH   9  13
BRANCH   8  32
HETATM   32  C   UNL     1      -8.007  10.794  66.143  1.00  0.00    -0.157 C  
HETATM   33  O   UNL     1      -7.775   9.605  66.285  1.00  0.00    -0.100 OA 
BRANCH  32  34
HETATM   34  O   UNL     1      -7.061  11.766  66.119  1.00  0.00     0.215 OA 
BRANCH  34  35
HETATM   35  C   UNL     1      -6.613  12.130  67.434  1.00  0.00    -0.147 C  
HETATM   36  C   UNL     1      -5.326  11.336  67.665  1.00  0.00    -0.043 C  
BRANCH  35  37
HETATM   37  O   UNL     1      -6.223  13.500  67.530  1.00  0.00    -0.255 OA 
BRANCH  37  38
HETATM   38  C   UNL     1      -5.954  13.954  68.774  1.00  0.00    -0.085 C  
HETATM   39  O   UNL     1      -5.834  13.278  69.780  1.00  0.00    -0.105 OA 
BRANCH  38  40
HETATM   40  O   UNL     1      -5.818  15.290  68.675  1.00  0.00    -0.084 OA 
BRANCH  40  41
HETATM   41  C   UNL     1      -6.757  16.246  69.218  1.00  0.00    -0.203 C  
HETATM   42  C   UNL     1      -8.287  17.831  67.216  1.00  0.00    -0.228 C  
HETATM   43  C   UNL     1      -6.308  17.629  68.739  1.00  0.00    -0.200 C  
HETATM   44  C   UNL     1      -6.769  17.906  67.312  1.00  0.00    -0.192 C  
HETATM   45  C   UNL     1      -8.832  16.485  67.681  1.00  0.00    -0.195 C  
HETATM   46  C   UNL     1      -8.260  16.017  69.022  1.00  0.00    -0.235 C  
ENDBRANCH  40  41
ENDBRANCH  38  40
ENDBRANCH  37  38
ENDBRANCH  35  37
ENDBRANCH  34  35
ENDBRANCH  32  34
ENDBRANCH   8  32
ENDBRANCH   3   4
ENDBRANCH   2   3
TORSDOF 13
ENDMDL
MODEL      212
REMARK 921   NORMALIZED FREE ENERGY PREDICTED BY IDOCK:   -4.79 KCAL/MOL
REMARK 922        TOTAL FREE ENERGY PREDICTED BY IDOCK:  -10.89 KCAL/MOL
REMARK 923 INTER-LIGAND FREE ENERGY PREDICTED BY IDOCK:   -9.34 KCAL/MOL
REMARK 924 INTRA-LIGAND FREE ENERGY PREDICTED BY IDOCK:   -1.55 KCAL/MOL
REMARK 927      BINDING AFFINITY PREDICTED BY RF-SCORE:    0.00 PKD
ROOT
HETATM    1  C   UNL     1     -12.259   8.489  72.436  1.00  0.00    -0.432 C  
HETATM    2  C   UNL     1     -10.910   7.812  72.267  1.00  0.00    -0.283 C  
ENDROOT
BRANCH   2   3
HETATM    3  O   UNL     1      -9.967   8.813  71.869  1.00  0.00    -0.290 OA 
BRANCH   3   4
HETATM    4  C   UNL     1      -9.095   8.421  70.943  1.00  0.00    -0.160 A  
HETATM    5  N   UNL     1      -7.878   7.999  71.197  1.00  0.00    -0.084 NA 
HETATM    6  C   UNL     1      -7.344   7.714  69.975  1.00  0.00    -0.080 A  
HETATM    7  C   UNL     1      -8.274   7.895  68.932  1.00  0.00    -0.126 A  
HETATM    8  C   UNL     1      -7.924   7.529  67.609  1.00  0.00    -0.117 A  
HETATM    9  N   UNL     1      -9.358   8.463  69.591  1.00  0.00    -0.160 NA 
HETATM   10  C   UNL     1      -5.660   6.990  68.406  1.00  0.00    -0.021 A  
HETATM   11  C   UNL     1      -6.030   7.293  69.709  1.00  0.00    -0.024 A  
HETATM   12  C   UNL     1      -6.602   7.078  67.388  1.00  0.00    -0.055 A  
BRANCH   9  13
HETATM   13  C   UNL     1     -10.514   9.182  69.055  1.00  0.00    -0.221 C  
BRANCH  13  14
HETATM   14  C   UNL     1     -10.314  10.676  69.007  1.00  0.00    -0.237 A  
HETATM   15  C   UNL     1      -8.995  12.623  68.437  1.00  0.00    -0.125 A  
HETATM   16  C   UNL     1     -10.161  13.388  68.264  1.00  0.00    -0.247 A  
HETATM   17  C   UNL     1     -11.417  11.514  69.180  1.00  0.00    -0.362 A  
HETATM   18  C   UNL     1      -9.075  11.258  68.744  1.00  0.00    -0.122 A  
HETATM   19  C   UNL     1     -11.346  12.851  68.791  1.00  0.00    -0.333 A  
BRANCH  16  20
HETATM   20  C   UNL     1     -10.192  14.627  67.431  1.00  0.00    -0.240 A  
HETATM   21  C   UNL     1     -10.244  15.889  68.073  1.00  0.00    -0.238 A  
HETATM   22  C   UNL     1     -10.279  14.624  66.006  1.00  0.00    -0.326 A  
HETATM   23  C   UNL     1     -10.359  17.087  67.361  1.00  0.00    -0.319 A  
HETATM   24  C   UNL     1     -10.329  15.852  65.309  1.00  0.00    -0.354 A  
HETATM   25  C   UNL     1     -10.380  17.071  65.976  1.00  0.00    -0.324 A  
BRANCH  22  26
HETATM   26  C   UNL     1     -10.383  13.429  65.158  1.00  0.00    -0.336 A  
HETATM   27  N   UNL     1      -9.889  13.274  63.942  1.00  0.00    -0.605 NA 
HETATM   28  H   UNL     1      -9.351  13.959  63.412  1.00  0.00     0.000 HD 
HETATM   29  N   UNL     1     -10.239  12.012  63.529  1.00  0.00    -0.438 NA 
HETATM   30  N   UNL     1     -10.958  11.395  64.453  1.00  0.00    -0.330 NA 
HETATM   31  N   UNL     1     -11.088  12.288  65.444  1.00  0.00    -0.302 NA 
ENDBRANCH  22  26
ENDBRANCH  16  20
ENDBRANCH  13  14
ENDBRANCH   9  13
BRANCH   8  32
HETATM   32  C   UNL     1      -8.783   7.723  66.416  1.00  0.00    -0.150 C  
HETATM   33  O   UNL     1      -9.115   8.821  66.004  1.00  0.00    -0.185 OA 
BRANCH  32  34
HETATM   34  O   UNL     1      -8.950   6.561  65.735  1.00  0.00    -0.134 OA 
BRANCH  34  35
HETATM   35  C   UNL     1      -9.833   5.652  66.409  1.00  0.00    -0.154 C  
HETATM   36  C   UNL     1     -11.019   6.498  66.874  1.00  0.00    -0.408 C  
BRANCH  35  37
HETATM   37  O   UNL     1     -10.398   4.674  65.534  1.00  0.00    -0.235 OA 
BRANCH  37  38
HETATM   38  C   UNL     1      -9.530   4.036  64.718  1.00  0.00    -0.170 C  
HETATM   39  O   UNL     1      -8.788   4.556  63.903  1.00  0.00    -0.138 OA 
BRANCH  38  40
HETATM   40  O   UNL     1      -9.627   2.724  65.002  1.00  0.00    -0.123 OA 
BRANCH  40  41
HETATM   41  C   UNL     1      -8.628   1.971  65.727  1.00  0.00    -0.111 C  
HETATM   42  C   UNL     1      -5.866   3.077  65.643  1.00  0.00    -0.019 C  
HETATM   43  C   UNL     1      -7.586   1.518  64.702  1.00  0.00    -0.062 C  
HETATM   44  C   UNL     1      -6.592   2.630  64.382  1.00  0.00    -0.031 C  
HETATM   45  C   UNL     1      -6.828   3.544  66.731  1.00  0.00    -0.054 C  
HETATM   46  C   UNL     1      -7.992   2.581  66.981  1.00  0.00    -0.071 C  
ENDBRANCH  40  41
ENDBRANCH  38  40
ENDBRANCH  37  38
ENDBRANCH  35  37
ENDBRANCH  34  35
ENDBRANCH  32  34
ENDBRANCH   8  32
ENDBRANCH   3   4
ENDBRANCH   2   3
TORSDOF 13
ENDMDL
MODEL      213
REMARK 921   NORMALIZED FREE ENERGY PREDICTED BY IDOCK:   -4.78 KCAL/MOL
REMARK 922        TOTAL FREE ENERGY PREDICTED BY IDOCK:  -10.87 KCAL/MOL
REMARK 923 INTER-LIGAND FREE ENERGY PREDICTED BY IDOCK:   -9.92 KCAL/MOL
REMARK 924 INTRA-LIGAND FREE ENERGY PREDICTED BY IDOCK:   -0.95 KCAL/MOL
REMARK 927      BINDING AFFINITY PREDICTED BY RF-SCORE:    0.00 PKD
ROOT
HETATM    1  C   UNL     1      -8.534  10.383  63.357  1.00  0.00    -0.174 C  
HETATM    2  C   UNL     1      -8.828  10.600  64.831  1.00  0.00    -0.190 C  
ENDROOT
BRANCH   2   3
HETATM    3  O   UNL     1      -7.844   9.882  65.583  1.00  0.00    -0.117 OA 
BRANCH   3   4
HETATM    4  C   UNL     1      -8.272   8.741  66.115  1.00  0.00    -0.117 A  
HETATM    5  N   UNL     1      -8.699   7.710  65.423  1.00  0.00    -0.062 NA 
HETATM    6  C   UNL     1      -9.038   6.776  66.359  1.00  0.00    -0.152 A  
HETATM    7  C   UNL     1      -8.751   7.206  67.669  1.00  0.00    -0.121 A  
HETATM    8  C   UNL     1      -8.929   6.313  68.755  1.00  0.00    -0.125 A  
HETATM    9  N   UNL     1      -8.363   8.526  67.474  1.00  0.00    -0.127 NA 
HETATM   10  C   UNL     1      -9.851   4.660  67.185  1.00  0.00    -0.227 A  
HETATM   11  C   UNL     1      -9.617   5.519  66.118  1.00  0.00    -0.158 A  
HETATM   12  C   UNL     1      -9.483   5.044  68.468  1.00  0.00    -0.185 A  
BRANCH   9  13
HETATM   13  C   UNL     1      -8.245   9.625  68.434  1.00  0.00    -0.106 C  
BRANCH  13  14
HETATM   14  C   UNL     1      -9.578  10.190  68.857  1.00  0.00    -0.186 A  
HETATM   15  C   UNL     1     -11.316  10.517  70.508  1.00  0.00    -0.400 A  
HETATM   16  C   UNL     1     -11.670  11.744  69.923  1.00  0.00    -0.399 A  
HETATM   17  C   UNL     1     -10.158  11.203  68.092  1.00  0.00    -0.193 A  
HETATM   18  C   UNL     1     -10.234   9.776  70.015  1.00  0.00    -0.308 A  
HETATM   19  C   UNL     1     -11.179  11.986  68.631  1.00  0.00    -0.309 A  
BRANCH  16  20
HETATM   20  C   UNL     1     -12.393  12.813  70.675  1.00  0.00    -0.381 A  
HETATM   21  C   UNL     1     -13.275  12.446  71.720  1.00  0.00    -0.435 A  
HETATM   22  C   UNL     1     -12.334  14.199  70.337  1.00  0.00    -0.428 A  
HETATM   23  C   UNL     1     -14.048  13.384  72.412  1.00  0.00    -0.517 A  
HETATM   24  C   UNL     1     -13.076  15.133  71.094  1.00  0.00    -0.515 A  
HETATM   25  C   UNL     1     -13.933  14.732  72.114  1.00  0.00    -0.590 A  
BRANCH  22  26
HETATM   26  C   UNL     1     -11.596  14.772  69.203  1.00  0.00    -0.303 A  
HETATM   27  N   UNL     1     -11.988  14.814  67.941  1.00  0.00    -0.548 NA 
HETATM   28  H   UNL     1     -12.869  14.463  67.566  1.00  0.00     0.000 HD 
HETATM   29  N   UNL     1     -10.981  15.423  67.233  1.00  0.00    -0.320 NA 
HETATM   30  N   UNL     1      -9.968  15.734  68.026  1.00  0.00    -0.221 NA 
HETATM   31  N   UNL     1     -10.327  15.290  69.238  1.00  0.00    -0.246 NA 
ENDBRANCH  22  26
ENDBRANCH  16  20
ENDBRANCH  13  14
ENDBRANCH   9  13
BRANCH   8  32
HETATM   32  C   UNL     1      -8.723   6.657  70.182  1.00  0.00    -0.141 C  
HETATM   33  O   UNL     1      -8.012   7.576  70.552  1.00  0.00    -0.095 OA 
BRANCH  32  34
HETATM   34  O   UNL     1      -9.586   5.980  70.982  1.00  0.00    -0.169 OA 
BRANCH  34  35
HETATM   35  C   UNL     1     -10.086   6.789  72.057  1.00  0.00    -0.182 C  
HETATM   36  C   UNL     1     -11.586   6.937  71.798  1.00  0.00    -0.322 C  
BRANCH  35  37
HETATM   37  O   UNL     1      -9.993   6.144  73.328  1.00  0.00    -0.168 OA 
BRANCH  37  38
HETATM   38  C   UNL     1      -9.911   4.795  73.303  1.00  0.00    -0.148 C  
HETATM   39  O   UNL     1     -10.634   4.037  72.680  1.00  0.00    -0.172 OA 
BRANCH  38  40
HETATM   40  O   UNL     1      -8.862   4.459  74.077  1.00  0.00    -0.103 OA 
BRANCH  40  41
HETATM   41  C   UNL     1      -7.499   4.362  73.604  1.00  0.00    -0.077 C  
HETATM   42  C   UNL     1      -6.669   1.685  72.601  1.00  0.00    -0.018 C  
HETATM   43  C   UNL     1      -6.796   3.328  74.488  1.00  0.00    -0.044 C  
HETATM   44  C   UNL     1      -7.108   1.904  74.042  1.00  0.00    -0.024 C  
HETATM   45  C   UNL     1      -7.315   2.678  71.640  1.00  0.00    -0.040 C  
HETATM   46  C   UNL     1      -7.237   4.134  72.111  1.00  0.00    -0.057 C  
ENDBRANCH  40  41
ENDBRANCH  38  40
ENDBRANCH  37  38
ENDBRANCH  35  37
ENDBRANCH  34  35
ENDBRANCH  32  34
ENDBRANCH   8  32
ENDBRANCH   3   4
ENDBRANCH   2   3
TORSDOF 13
ENDMDL
MODEL      214
REMARK 921   NORMALIZED FREE ENERGY PREDICTED BY IDOCK:   -4.77 KCAL/MOL
REMARK 922        TOTAL FREE ENERGY PREDICTED BY IDOCK:  -10.85 KCAL/MOL
REMARK 923 INTER-LIGAND FREE ENERGY PREDICTED BY IDOCK:   -9.80 KCAL/MOL
REMARK 924 INTRA-LIGAND FREE ENERGY PREDICTED BY IDOCK:   -1.06 KCAL/MOL
REMARK 927      BINDING AFFINITY PREDICTED BY RF-SCORE:    0.00 PKD
ROOT
HETATM    1  C   UNL     1     -13.939  14.475  72.474  1.00  0.00    -0.510 C  
HETATM    2  C   UNL     1     -13.902  12.969  72.281  1.00  0.00    -0.434 C  
ENDROOT
BRANCH   2   3
HETATM    3  O   UNL     1     -12.560  12.605  71.939  1.00  0.00    -0.108 OA 
BRANCH   3   4
HETATM    4  C   UNL     1     -12.203  12.899  70.691  1.00  0.00    -0.302 A  
HETATM    5  N   UNL     1     -12.150  14.115  70.198  1.00  0.00    -0.325 NA 
HETATM    6  C   UNL     1     -11.749  13.951  68.904  1.00  0.00    -0.337 A  
HETATM    7  C   UNL     1     -11.476  12.603  68.598  1.00  0.00    -0.308 A  
HETATM    8  C   UNL     1     -10.933  12.268  67.333  1.00  0.00    -0.298 A  
HETATM    9  N   UNL     1     -11.892  11.943  69.748  1.00  0.00    -0.330 NA 
HETATM   10  C   UNL     1     -11.136  14.628  66.671  1.00  0.00    -0.334 A  
HETATM   11  C   UNL     1     -11.611  14.958  67.934  1.00  0.00    -0.364 A  
HETATM   12  C   UNL     1     -10.777  13.314  66.395  1.00  0.00    -0.291 A  
BRANCH   9  13
HETATM   13  C   UNL     1     -12.182  10.526  69.967  1.00  0.00    -0.250 C  
BRANCH  13  14
HETATM   14  C   UNL     1     -11.026   9.770  70.571  1.00  0.00    -0.384 A  
HETATM   15  C   UNL     1     -10.142   7.947  71.894  1.00  0.00    -0.250 A  
HETATM   16  C   UNL     1      -8.954   7.949  71.142  1.00  0.00    -0.153 A  
HETATM   17  C   UNL     1      -9.738   9.996  70.081  1.00  0.00    -0.177 A  
HETATM   18  C   UNL     1     -11.196   8.810  71.567  1.00  0.00    -0.377 A  
HETATM   19  C   UNL     1      -8.719   9.082  70.347  1.00  0.00    -0.224 A  
BRANCH  16  20
HETATM   20  C   UNL     1      -8.057   6.759  71.054  1.00  0.00    -0.115 A  
HETATM   21  C   UNL     1      -6.949   6.792  70.173  1.00  0.00    -0.066 A  
HETATM   22  C   UNL     1      -8.305   5.527  71.733  1.00  0.00    -0.120 A  
HETATM   23  C   UNL     1      -6.114   5.687  69.976  1.00  0.00    -0.026 A  
HETATM   24  C   UNL     1      -7.409   4.447  71.565  1.00  0.00    -0.056 A  
HETATM   25  C   UNL     1      -6.331   4.520  70.689  1.00  0.00    -0.026 A  
BRANCH  22  26
HETATM   26  C   UNL     1      -9.471   5.235  72.578  1.00  0.00    -0.145 A  
HETATM   27  N   UNL     1     -10.655   4.807  72.175  1.00  0.00    -0.174 NA 
HETATM   28  H   UNL     1     -10.934   4.604  71.215  1.00  0.00     0.000 HD 
HETATM   29  N   UNL     1     -11.436   4.686  73.297  1.00  0.00    -0.308 NA 
HETATM   30  N   UNL     1     -10.768   5.053  74.380  1.00  0.00    -0.346 NA 
HETATM   31  N   UNL     1      -9.566   5.438  73.930  1.00  0.00    -0.138 NA 
ENDBRANCH  22  26
ENDBRANCH  16  20
ENDBRANCH  13  14
ENDBRANCH   9  13
BRANCH   8  32
HETATM   32  C   UNL     1     -10.657  10.889  66.864  1.00  0.00    -0.261 C  
HETATM   33  O   UNL     1     -11.364   9.935  67.142  1.00  0.00    -0.028 OA 
BRANCH  32  34
HETATM   34  O   UNL     1      -9.678  10.875  65.924  1.00  0.00    -0.205 OA 
BRANCH  34  35
HETATM   35  C   UNL     1      -9.717   9.694  65.108  1.00  0.00    -0.217 C  
HETATM   36  C   UNL     1      -9.645  10.189  63.663  1.00  0.00    -0.268 C  
BRANCH  35  37
HETATM   37  O   UNL     1      -8.565   8.866  65.273  1.00  0.00    -0.164 OA 
BRANCH  37  38
HETATM   38  C   UNL     1      -8.622   7.964  66.277  1.00  0.00    -0.149 C  
HETATM   39  O   UNL     1      -8.266   8.140  67.429  1.00  0.00    -0.119 OA 
BRANCH  38  40
HETATM   40  O   UNL     1      -9.172   6.848  65.762  1.00  0.00    -0.032 OA 
BRANCH  40  41
HETATM   41  C   UNL     1     -10.395   6.245  66.243  1.00  0.00     0.112 C  
HETATM   42  C   UNL     1     -10.368   5.371  69.088  1.00  0.00    -0.300 C  
HETATM   43  C   UNL     1     -10.046   4.816  66.667  1.00  0.00    -0.276 C  
HETATM   44  C   UNL     1      -9.418   4.780  68.057  1.00  0.00    -0.182 C  
HETATM   45  C   UNL     1     -10.780   6.800  68.747  1.00  0.00    -0.280 C  
HETATM   46  C   UNL     1     -11.231   6.982  67.295  1.00  0.00    -0.155 C  
ENDBRANCH  40  41
ENDBRANCH  38  40
ENDBRANCH  37  38
ENDBRANCH  35  37
ENDBRANCH  34  35
ENDBRANCH  32  34
ENDBRANCH   8  32
ENDBRANCH   3   4
ENDBRANCH   2   3
TORSDOF 13
ENDMDL
MODEL      215
REMARK 921   NORMALIZED FREE ENERGY PREDICTED BY IDOCK:   -4.74 KCAL/MOL
REMARK 922        TOTAL FREE ENERGY PREDICTED BY IDOCK:  -10.80 KCAL/MOL
REMARK 923 INTER-LIGAND FREE ENERGY PREDICTED BY IDOCK:   -7.84 KCAL/MOL
REMARK 924 INTRA-LIGAND FREE ENERGY PREDICTED BY IDOCK:   -2.97 KCAL/MOL
REMARK 927      BINDING AFFINITY PREDICTED BY RF-SCORE:    0.00 PKD
ROOT
HETATM    1  C   UNL     1     -12.469  12.945  64.755  1.00  0.00    -0.517 C  
HETATM    2  C   UNL     1     -12.093  13.082  66.219  1.00  0.00    -0.386 C  
ENDROOT
BRANCH   2   3
HETATM    3  O   UNL     1     -11.755  11.779  66.708  1.00  0.00    -0.555 OA 
BRANCH   3   4
HETATM    4  C   UNL     1     -10.545  11.685  67.254  1.00  0.00    -0.228 A  
HETATM    5  N   UNL     1      -9.573  12.546  67.065  1.00  0.00    -0.211 NA 
HETATM    6  C   UNL     1      -8.529  12.063  67.798  1.00  0.00    -0.157 A  
HETATM    7  C   UNL     1      -8.877  10.905  68.521  1.00  0.00    -0.153 A  
HETATM    8  C   UNL     1      -7.947  10.339  69.428  1.00  0.00    -0.162 A  
HETATM    9  N   UNL     1     -10.155  10.630  68.051  1.00  0.00    -0.154 NA 
HETATM   10  C   UNL     1      -6.294  12.012  68.707  1.00  0.00    -0.071 A  
HETATM   11  C   UNL     1      -7.231  12.597  67.865  1.00  0.00    -0.116 A  
HETATM   12  C   UNL     1      -6.662  10.926  69.492  1.00  0.00    -0.117 A  
BRANCH   9  13
HETATM   13  C   UNL     1     -10.950   9.405  68.147  1.00  0.00    -0.045 C  
BRANCH  13  14
HETATM   14  C   UNL     1     -10.489   8.322  67.205  1.00  0.00    -0.386 A  
HETATM   15  C   UNL     1      -8.859   7.392  65.677  1.00  0.00    -0.056 A  
HETATM   16  C   UNL     1      -9.268   6.087  66.002  1.00  0.00    -0.129 A  
HETATM   17  C   UNL     1     -11.113   7.074  67.248  1.00  0.00    -0.302 A  
HETATM   18  C   UNL     1      -9.423   8.499  66.323  1.00  0.00    -0.299 A  
HETATM   19  C   UNL     1     -10.496   5.965  66.670  1.00  0.00    -0.310 A  
BRANCH  16  20
HETATM   20  C   UNL     1      -8.390   4.896  65.800  1.00  0.00    -0.115 A  
HETATM   21  C   UNL     1      -8.836   3.842  64.966  1.00  0.00    -0.126 A  
HETATM   22  C   UNL     1      -7.154   4.698  66.486  1.00  0.00    -0.075 A  
HETATM   23  C   UNL     1      -8.106   2.661  64.796  1.00  0.00    -0.086 A  
HETATM   24  C   UNL     1      -6.405   3.523  66.246  1.00  0.00    -0.032 A  
HETATM   25  C   UNL     1      -6.879   2.510  65.420  1.00  0.00    -0.044 A  
BRANCH  22  26
HETATM   26  C   UNL     1      -6.582   5.596  67.498  1.00  0.00    -0.053 A  
HETATM   27  N   UNL     1      -6.660   5.464  68.812  1.00  0.00    -0.049 NA 
HETATM   28  H   UNL     1      -7.121   4.709  69.321  1.00  0.00     0.000 HD 
HETATM   29  N   UNL     1      -6.000   6.537  69.358  1.00  0.00    -0.021 NA 
HETATM   30  N   UNL     1      -5.539   7.340  68.412  1.00  0.00    -0.021 NA 
HETATM   31  N   UNL     1      -5.939   6.783  67.261  1.00  0.00    -0.017 NA 
ENDBRANCH  22  26
ENDBRANCH  16  20
ENDBRANCH  13  14
ENDBRANCH   9  13
BRANCH   8  32
HETATM   32  C   UNL     1      -8.163   9.093  70.202  1.00  0.00    -0.155 C  
HETATM   33  O   UNL     1      -8.489   8.036  69.689  1.00  0.00    -0.128 OA 
BRANCH  32  34
HETATM   34  O   UNL     1      -7.737   9.229  71.484  1.00  0.00    -0.340 OA 
BRANCH  34  35
HETATM   35  C   UNL     1      -7.705   7.978  72.186  1.00  0.00    -0.106 C  
HETATM   36  C   UNL     1      -6.345   7.934  72.886  1.00  0.00    -0.070 C  
BRANCH  35  37
HETATM   37  O   UNL     1      -8.665   7.907  73.241  1.00  0.00    -0.184 OA 
BRANCH  37  38
HETATM   38  C   UNL     1      -9.820   7.270  72.949  1.00  0.00    -0.196 C  
HETATM   39  O   UNL     1     -10.947   7.697  73.128  1.00  0.00    -0.392 OA 
BRANCH  38  40
HETATM   40  O   UNL     1      -9.481   6.089  72.400  1.00  0.00    -0.147 OA 
BRANCH  40  41
HETATM   41  C   UNL     1      -8.877   4.996  73.129  1.00  0.00    -0.111 C  
HETATM   42  C   UNL     1     -10.259   2.370  72.897  1.00  0.00    -0.225 C  
HETATM   43  C   UNL     1      -9.915   4.514  74.145  1.00  0.00    -0.205 C  
HETATM   44  C   UNL     1     -10.942   3.588  73.503  1.00  0.00    -0.330 C  
HETATM   45  C   UNL     1      -9.197   2.751  71.870  1.00  0.00    -0.164 C  
HETATM   46  C   UNL     1      -8.235   3.840  72.353  1.00  0.00    -0.088 C  
ENDBRANCH  40  41
ENDBRANCH  38  40
ENDBRANCH  37  38
ENDBRANCH  35  37
ENDBRANCH  34  35
ENDBRANCH  32  34
ENDBRANCH   8  32
ENDBRANCH   3   4
ENDBRANCH   2   3
TORSDOF 13
ENDMDL
MODEL      216
REMARK 921   NORMALIZED FREE ENERGY PREDICTED BY IDOCK:   -4.74 KCAL/MOL
REMARK 922        TOTAL FREE ENERGY PREDICTED BY IDOCK:  -10.79 KCAL/MOL
REMARK 923 INTER-LIGAND FREE ENERGY PREDICTED BY IDOCK:   -8.60 KCAL/MOL
REMARK 924 INTRA-LIGAND FREE ENERGY PREDICTED BY IDOCK:   -2.20 KCAL/MOL
REMARK 927      BINDING AFFINITY PREDICTED BY RF-SCORE:    0.00 PKD
ROOT
HETATM    1  C   UNL     1     -13.998   8.606  71.709  1.00  0.00    -0.492 C  
HETATM    2  C   UNL     1     -12.589   8.167  72.066  1.00  0.00    -0.330 C  
ENDROOT
BRANCH   2   3
HETATM    3  O   UNL     1     -11.678   9.109  71.489  1.00  0.00    -0.310 OA 
BRANCH   3   4
HETATM    4  C   UNL     1     -10.403   8.729  71.496  1.00  0.00    -0.303 A  
HETATM    5  N   UNL     1      -9.622   8.763  72.550  1.00  0.00    -0.253 NA 
HETATM    6  C   UNL     1      -8.417   8.297  72.109  1.00  0.00    -0.179 A  
HETATM    7  C   UNL     1      -8.464   7.895  70.760  1.00  0.00    -0.124 A  
HETATM    8  C   UNL     1      -7.333   7.274  70.174  1.00  0.00    -0.079 A  
HETATM    9  N   UNL     1      -9.736   8.298  70.370  1.00  0.00    -0.167 NA 
HETATM   10  C   UNL     1      -6.096   7.657  72.265  1.00  0.00    -0.040 A  
HETATM   11  C   UNL     1      -7.228   8.209  72.852  1.00  0.00    -0.141 A  
HETATM   12  C   UNL     1      -6.165   7.173  70.964  1.00  0.00    -0.036 A  
BRANCH   9  13
HETATM   13  C   UNL     1     -10.299   8.471  69.031  1.00  0.00    -0.216 C  
BRANCH  13  14
HETATM   14  C   UNL     1     -10.192   9.885  68.519  1.00  0.00    -0.199 A  
HETATM   15  C   UNL     1     -11.201  11.937  67.728  1.00  0.00    -0.330 A  
HETATM   16  C   UNL     1     -10.122  12.686  68.228  1.00  0.00    -0.233 A  
HETATM   17  C   UNL     1      -8.991  10.578  68.686  1.00  0.00    -0.162 A  
HETATM   18  C   UNL     1     -11.264  10.552  67.929  1.00  0.00    -0.358 A  
HETATM   19  C   UNL     1      -8.963  11.966  68.563  1.00  0.00    -0.115 A  
BRANCH  16  20
HETATM   20  C   UNL     1     -10.231  14.141  68.544  1.00  0.00    -0.247 A  
HETATM   21  C   UNL     1     -11.513  14.740  68.604  1.00  0.00    -0.325 A  
HETATM   22  C   UNL     1      -9.107  15.008  68.689  1.00  0.00    -0.191 A  
HETATM   23  C   UNL     1     -11.691  16.111  68.812  1.00  0.00    -0.231 A  
HETATM   24  C   UNL     1      -9.315  16.379  68.962  1.00  0.00    -0.248 A  
HETATM   25  C   UNL     1     -10.591  16.929  69.013  1.00  0.00    -0.338 A  
BRANCH  22  26
HETATM   26  C   UNL     1      -7.699  14.620  68.521  1.00  0.00    -0.126 A  
HETATM   27  N   UNL     1      -6.816  14.406  69.481  1.00  0.00    -0.170 NA 
HETATM   28  H   UNL     1      -6.981  14.468  70.485  1.00  0.00     0.000 HD 
HETATM   29  N   UNL     1      -5.632  14.084  68.865  1.00  0.00    -0.080 NA 
HETATM   30  N   UNL     1      -5.760  14.118  67.547  1.00  0.00    -0.354 NA 
HETATM   31  N   UNL     1      -7.027  14.495  67.333  1.00  0.00    -0.225 NA 
ENDBRANCH  22  26
ENDBRANCH  16  20
ENDBRANCH  13  14
ENDBRANCH   9  13
BRANCH   8  32
HETATM   32  C   UNL     1      -7.230   6.860  68.755  1.00  0.00    -0.091 C  
HETATM   33  O   UNL     1      -7.463   7.609  67.821  1.00  0.00    -0.102 OA 
BRANCH  32  34
HETATM   34  O   UNL     1      -6.636   5.645  68.637  1.00  0.00    -0.044 OA 
BRANCH  34  35
HETATM   35  C   UNL     1      -7.586   4.569  68.618  1.00  0.00    -0.064 C  
HETATM   36  C   UNL     1      -7.072   3.547  69.632  1.00  0.00    -0.042 C  
BRANCH  35  37
HETATM   37  O   UNL     1      -8.873   4.955  69.103  1.00  0.00    -0.090 OA 
BRANCH  37  38
HETATM   38  C   UNL     1      -9.575   3.997  69.748  1.00  0.00    -0.210 C  
HETATM   39  O   UNL     1      -9.683   2.830  69.414  1.00  0.00    -0.055 OA 
BRANCH  38  40
HETATM   40  O   UNL     1     -10.105   4.578  70.840  1.00  0.00    -0.207 OA 
BRANCH  40  41
HETATM   41  C   UNL     1     -10.282   3.913  72.112  1.00  0.00    -0.126 C  
HETATM   42  C   UNL     1      -9.023   5.251  74.453  1.00  0.00    -0.117 C  
HETATM   43  C   UNL     1      -8.885   3.550  72.620  1.00  0.00    -0.099 C  
HETATM   44  C   UNL     1      -8.199   4.742  73.279  1.00  0.00    -0.100 C  
HETATM   45  C   UNL     1     -10.442   5.635  74.045  1.00  0.00    -0.297 C  
HETATM   46  C   UNL     1     -11.146   4.575  73.191  1.00  0.00    -0.350 C  
ENDBRANCH  40  41
ENDBRANCH  38  40
ENDBRANCH  37  38
ENDBRANCH  35  37
ENDBRANCH  34  35
ENDBRANCH  32  34
ENDBRANCH   8  32
ENDBRANCH   3   4
ENDBRANCH   2   3
TORSDOF 13
ENDMDL
MODEL      217
REMARK 921   NORMALIZED FREE ENERGY PREDICTED BY IDOCK:   -4.72 KCAL/MOL
REMARK 922        TOTAL FREE ENERGY PREDICTED BY IDOCK:  -10.76 KCAL/MOL
REMARK 923 INTER-LIGAND FREE ENERGY PREDICTED BY IDOCK:   -7.34 KCAL/MOL
REMARK 924 INTRA-LIGAND FREE ENERGY PREDICTED BY IDOCK:   -3.42 KCAL/MOL
REMARK 927      BINDING AFFINITY PREDICTED BY RF-SCORE:    0.00 PKD
ROOT
HETATM    1  C   UNL     1     -11.955  13.316  67.992  1.00  0.00    -0.351 C  
HETATM    2  C   UNL     1     -11.778  12.009  68.743  1.00  0.00    -0.321 C  
ENDROOT
BRANCH   2   3
HETATM    3  O   UNL     1     -10.902  11.178  67.974  1.00  0.00    -0.194 OA 
BRANCH   3   4
HETATM    4  C   UNL     1      -9.605  11.418  68.153  1.00  0.00    -0.190 A  
HETATM    5  N   UNL     1      -8.963  12.449  67.656  1.00  0.00    -0.174 NA 
HETATM    6  C   UNL     1      -7.674  12.296  68.077  1.00  0.00    -0.132 A  
HETATM    7  C   UNL     1      -7.519  11.176  68.917  1.00  0.00    -0.125 A  
HETATM    8  C   UNL     1      -6.269  10.936  69.541  1.00  0.00    -0.073 A  
HETATM    9  N   UNL     1      -8.768  10.571  68.847  1.00  0.00    -0.147 NA 
HETATM   10  C   UNL     1      -5.337  12.848  68.306  1.00  0.00    -0.072 A  
HETATM   11  C   UNL     1      -6.580  13.112  67.745  1.00  0.00    -0.151 A  
HETATM   12  C   UNL     1      -5.200  11.800  69.208  1.00  0.00    -0.051 A  
BRANCH   9  13
HETATM   13  C   UNL     1      -9.180   9.217  69.218  1.00  0.00    -0.152 C  
BRANCH  13  14
HETATM   14  C   UNL     1      -9.173   8.255  68.058  1.00  0.00    -0.142 A  
HETATM   15  C   UNL     1      -8.017   6.749  66.557  1.00  0.00    -0.105 A  
HETATM   16  C   UNL     1      -9.183   5.981  66.396  1.00  0.00    -0.163 A  
HETATM   17  C   UNL     1     -10.382   7.711  67.620  1.00  0.00    -0.303 A  
HETATM   18  C   UNL     1      -7.997   7.842  67.433  1.00  0.00    -0.122 A  
HETATM   19  C   UNL     1     -10.385   6.573  66.815  1.00  0.00    -0.279 A  
BRANCH  16  20
HETATM   20  C   UNL     1      -9.150   4.555  65.955  1.00  0.00    -0.133 A  
HETATM   21  C   UNL     1      -9.578   4.227  64.645  1.00  0.00    -0.160 A  
HETATM   22  C   UNL     1      -8.810   3.467  66.814  1.00  0.00    -0.146 A  
HETATM   23  C   UNL     1      -9.654   2.906  64.190  1.00  0.00    -0.147 A  
HETATM   24  C   UNL     1      -8.833   2.147  66.309  1.00  0.00    -0.121 A  
HETATM   25  C   UNL     1      -9.261   1.866  65.015  1.00  0.00    -0.099 A  
BRANCH  22  26
HETATM   26  C   UNL     1      -8.478   3.574  68.241  1.00  0.00    -0.088 A  
HETATM   27  N   UNL     1      -9.329   3.687  69.247  1.00  0.00    -0.164 NA 
HETATM   28  H   UNL     1     -10.346   3.706  69.184  1.00  0.00     0.000 HD 
HETATM   29  N   UNL     1      -8.578   3.774  70.393  1.00  0.00    -0.067 NA 
HETATM   30  N   UNL     1      -7.284   3.741  70.115  1.00  0.00    -0.041 NA 
HETATM   31  N   UNL     1      -7.220   3.664  68.778  1.00  0.00    -0.050 NA 
ENDBRANCH  22  26
ENDBRANCH  16  20
ENDBRANCH  13  14
ENDBRANCH   9  13
BRANCH   8  32
HETATM   32  C   UNL     1      -5.955   9.767  70.396  1.00  0.00    -0.069 C  
HETATM   33  O   UNL     1      -5.364   8.781  69.988  1.00  0.00    -0.028 OA 
BRANCH  32  34
HETATM   34  O   UNL     1      -6.202  10.031  71.704  1.00  0.00    -0.306 OA 
BRANCH  34  35
HETATM   35  C   UNL     1      -5.970   8.893  72.547  1.00  0.00    -0.052 C  
HETATM   36  C   UNL     1      -5.133   9.412  73.718  1.00  0.00    -0.115 C  
BRANCH  35  37
HETATM   37  O   UNL     1      -7.166   8.390  73.143  1.00  0.00    -0.196 OA 
BRANCH  37  38
HETATM   38  C   UNL     1      -8.078   7.869  72.293  1.00  0.00    -0.127 C  
HETATM   39  O   UNL     1      -7.916   6.912  71.556  1.00  0.00    -0.103 OA 
BRANCH  38  40
HETATM   40  O   UNL     1      -9.202   8.594  72.443  1.00  0.00    -0.275 OA 
BRANCH  40  41
HETATM   41  C   UNL     1     -10.414   8.101  73.058  1.00  0.00    -0.166 C  
HETATM   42  C   UNL     1     -11.415   5.494  72.031  1.00  0.00    -0.128 C  
HETATM   43  C   UNL     1     -11.463   7.996  71.949  1.00  0.00    -0.341 C  
HETATM   44  C   UNL     1     -11.294   6.718  71.135  1.00  0.00    -0.342 C  
HETATM   45  C   UNL     1     -10.408   5.511  73.177  1.00  0.00    -0.231 C  
HETATM   46  C   UNL     1     -10.354   6.843  73.931  1.00  0.00    -0.398 C  
ENDBRANCH  40  41
ENDBRANCH  38  40
ENDBRANCH  37  38
ENDBRANCH  35  37
ENDBRANCH  34  35
ENDBRANCH  32  34
ENDBRANCH   8  32
ENDBRANCH   3   4
ENDBRANCH   2   3
TORSDOF 13
ENDMDL
MODEL      218
REMARK 921   NORMALIZED FREE ENERGY PREDICTED BY IDOCK:   -4.71 KCAL/MOL
REMARK 922        TOTAL FREE ENERGY PREDICTED BY IDOCK:  -10.75 KCAL/MOL
REMARK 923 INTER-LIGAND FREE ENERGY PREDICTED BY IDOCK:   -7.96 KCAL/MOL
REMARK 924 INTRA-LIGAND FREE ENERGY PREDICTED BY IDOCK:   -2.79 KCAL/MOL
REMARK 927      BINDING AFFINITY PREDICTED BY RF-SCORE:    0.00 PKD
ROOT
HETATM    1  C   UNL     1      -7.018   1.490  74.265  1.00  0.00    -0.022 C  
HETATM    2  C   UNL     1      -8.116   2.483  73.925  1.00  0.00    -0.059 C  
ENDROOT
BRANCH   2   3
HETATM    3  O   UNL     1      -7.593   3.397  72.956  1.00  0.00    -0.057 OA 
BRANCH   3   4
HETATM    4  C   UNL     1      -8.362   4.456  72.716  1.00  0.00    -0.105 A  
HETATM    5  N   UNL     1      -8.671   5.370  73.607  1.00  0.00    -0.117 NA 
HETATM    6  C   UNL     1      -9.471   6.252  72.941  1.00  0.00    -0.146 A  
HETATM    7  C   UNL     1      -9.611   5.921  71.579  1.00  0.00    -0.153 A  
HETATM    8  C   UNL     1     -10.310   6.797  70.713  1.00  0.00    -0.227 A  
HETATM    9  N   UNL     1      -8.972   4.690  71.502  1.00  0.00    -0.130 NA 
HETATM   10  C   UNL     1     -10.857   8.206  72.654  1.00  0.00    -0.429 A  
HETATM   11  C   UNL     1     -10.118   7.374  73.485  1.00  0.00    -0.390 A  
HETATM   12  C   UNL     1     -10.920   7.934  71.292  1.00  0.00    -0.266 A  
BRANCH   9  13
HETATM   13  C   UNL     1      -9.033   3.660  70.463  1.00  0.00    -0.094 C  
BRANCH  13  14
HETATM   14  C   UNL     1      -8.109   3.932  69.303  1.00  0.00    -0.062 A  
HETATM   15  C   UNL     1      -7.429   3.586  67.007  1.00  0.00    -0.075 A  
HETATM   16  C   UNL     1      -6.887   4.881  66.950  1.00  0.00    -0.056 A  
HETATM   17  C   UNL     1      -7.273   5.049  69.349  1.00  0.00    -0.056 A  
HETATM   18  C   UNL     1      -8.093   3.139  68.157  1.00  0.00    -0.080 A  
HETATM   19  C   UNL     1      -6.686   5.529  68.179  1.00  0.00    -0.054 A  
BRANCH  16  20
HETATM   20  C   UNL     1      -6.677   5.608  65.663  1.00  0.00    -0.044 A  
HETATM   21  C   UNL     1      -5.523   6.413  65.504  1.00  0.00    -0.017 A  
HETATM   22  C   UNL     1      -7.631   5.631  64.600  1.00  0.00    -0.085 A  
HETATM   23  C   UNL     1      -5.301   7.188  64.361  1.00  0.00    -0.029 A  
HETATM   24  C   UNL     1      -7.351   6.371  63.429  1.00  0.00    -0.066 A  
HETATM   25  C   UNL     1      -6.205   7.151  63.313  1.00  0.00    -0.045 A  
BRANCH  22  26
HETATM   26  C   UNL     1      -8.950   4.985  64.620  1.00  0.00    -0.073 A  
HETATM   27  N   UNL     1      -9.446   4.165  63.709  1.00  0.00    -0.154 NA 
HETATM   28  H   UNL     1      -8.981   3.848  62.859  1.00  0.00     0.000 HD 
HETATM   29  N   UNL     1     -10.707   3.821  64.130  1.00  0.00    -0.272 NA 
HETATM   30  N   UNL     1     -11.009   4.430  65.266  1.00  0.00    -0.136 NA 
HETATM   31  N   UNL     1      -9.940   5.187  65.547  1.00  0.00    -0.006 NA 
ENDBRANCH  22  26
ENDBRANCH  16  20
ENDBRANCH  13  14
ENDBRANCH   9  13
BRANCH   8  32
HETATM   32  C   UNL     1     -10.581   6.539  69.278  1.00  0.00    -0.247 C  
HETATM   33  O   UNL     1     -11.657   6.146  68.862  1.00  0.00    -0.172 OA 
BRANCH  32  34
HETATM   34  O   UNL     1      -9.576   7.007  68.495  1.00  0.00    -0.137 OA 
BRANCH  34  35
HETATM   35  C   UNL     1      -9.518   8.441  68.475  1.00  0.00    -0.146 C  
HETATM   36  C   UNL     1      -8.331   8.793  67.576  1.00  0.00    -0.109 C  
BRANCH  35  37
HETATM   37  O   UNL     1     -10.650   9.035  67.839  1.00  0.00    -0.234 OA 
BRANCH  37  38
HETATM   38  C   UNL     1     -10.967  10.286  68.239  1.00  0.00    -0.264 C  
HETATM   39  O   UNL     1     -10.671  10.802  69.302  1.00  0.00    -0.205 OA 
BRANCH  38  40
HETATM   40  O   UNL     1     -11.646  10.854  67.225  1.00  0.00    -0.475 OA 
BRANCH  40  41
HETATM   41  C   UNL     1     -11.212  12.036  66.515  1.00  0.00    -0.334 C  
HETATM   42  C   UNL     1     -10.679  11.672  63.609  1.00  0.00    -0.500 C  
HETATM   43  C   UNL     1      -9.818  11.732  65.960  1.00  0.00    -0.258 C  
HETATM   44  C   UNL     1      -9.891  10.919  64.672  1.00  0.00    -0.350 C  
HETATM   45  C   UNL     1     -12.088  12.027  64.074  1.00  0.00    -0.506 C  
HETATM   46  C   UNL     1     -12.136  12.664  65.466  1.00  0.00    -0.515 C  
ENDBRANCH  40  41
ENDBRANCH  38  40
ENDBRANCH  37  38
ENDBRANCH  35  37
ENDBRANCH  34  35
ENDBRANCH  32  34
ENDBRANCH   8  32
ENDBRANCH   3   4
ENDBRANCH   2   3
TORSDOF 13
ENDMDL
MODEL      219
REMARK 921   NORMALIZED FREE ENERGY PREDICTED BY IDOCK:   -4.70 KCAL/MOL
REMARK 922        TOTAL FREE ENERGY PREDICTED BY IDOCK:  -10.73 KCAL/MOL
REMARK 923 INTER-LIGAND FREE ENERGY PREDICTED BY IDOCK:   -7.34 KCAL/MOL
REMARK 924 INTRA-LIGAND FREE ENERGY PREDICTED BY IDOCK:   -3.40 KCAL/MOL
REMARK 927      BINDING AFFINITY PREDICTED BY RF-SCORE:    0.00 PKD
ROOT
HETATM    1  C   UNL     1     -14.093   8.089  71.520  1.00  0.00    -0.475 C  
HETATM    2  C   UNL     1     -13.271   8.973  72.442  1.00  0.00    -0.447 C  
ENDROOT
BRANCH   2   3
HETATM    3  O   UNL     1     -12.362   9.725  71.632  1.00  0.00    -0.364 OA 
BRANCH   3   4
HETATM    4  C   UNL     1     -11.268   9.065  71.261  1.00  0.00    -0.315 A  
HETATM    5  N   UNL     1     -10.293   8.724  72.071  1.00  0.00    -0.343 NA 
HETATM    6  C   UNL     1      -9.388   8.080  71.279  1.00  0.00    -0.150 A  
HETATM    7  C   UNL     1      -9.839   7.952  69.951  1.00  0.00    -0.182 A  
HETATM    8  C   UNL     1      -9.076   7.204  69.021  1.00  0.00    -0.132 A  
HETATM    9  N   UNL     1     -11.008   8.703  69.957  1.00  0.00    -0.234 NA 
HETATM   10  C   UNL     1      -7.351   6.901  70.748  1.00  0.00    -0.077 A  
HETATM   11  C   UNL     1      -8.132   7.584  71.670  1.00  0.00    -0.105 A  
HETATM   12  C   UNL     1      -7.833   6.692  69.461  1.00  0.00    -0.106 A  
BRANCH   9  13
HETATM   13  C   UNL     1     -11.785   9.244  68.841  1.00  0.00     0.941 C  
BRANCH  13  14
HETATM   14  C   UNL     1     -11.296  10.591  68.373  1.00  0.00    -0.328 A  
HETATM   15  C   UNL     1     -10.047  11.978  66.833  1.00  0.00    -0.224 A  
HETATM   16  C   UNL     1     -10.920  13.056  67.063  1.00  0.00    -0.289 A  
HETATM   17  C   UNL     1     -11.922  11.744  68.853  1.00  0.00    -0.332 A  
HETATM   18  C   UNL     1     -10.274  10.734  67.437  1.00  0.00    -0.241 A  
HETATM   19  C   UNL     1     -11.751  12.958  68.190  1.00  0.00    -0.395 A  
BRANCH  16  20
HETATM   20  C   UNL     1     -11.084  14.177  66.090  1.00  0.00    -0.312 A  
HETATM   21  C   UNL     1     -12.007  14.037  65.025  1.00  0.00    -0.409 A  
HETATM   22  C   UNL     1     -10.285  15.360  66.102  1.00  0.00    -0.324 A  
HETATM   23  C   UNL     1     -12.154  15.009  64.030  1.00  0.00    -0.119 A  
HETATM   24  C   UNL     1     -10.500  16.355  65.121  1.00  0.00    -0.218 A  
HETATM   25  C   UNL     1     -11.416  16.179  64.089  1.00  0.00     0.062 A  
BRANCH  22  26
HETATM   26  C   UNL     1      -9.180  15.637  67.029  1.00  0.00    -0.222 A  
HETATM   27  N   UNL     1      -9.126  16.601  67.933  1.00  0.00    -0.216 NA 
HETATM   28  H   UNL     1      -9.850  17.291  68.130  1.00  0.00     0.000 HD 
HETATM   29  N   UNL     1      -7.907  16.492  68.556  1.00  0.00    -0.198 NA 
HETATM   30  N   UNL     1      -7.200  15.499  68.040  1.00  0.00    -0.113 NA 
HETATM   31  N   UNL     1      -7.968  14.999  67.063  1.00  0.00    -0.202 NA 
ENDBRANCH  22  26
ENDBRANCH  16  20
ENDBRANCH  13  14
ENDBRANCH   9  13
BRANCH   8  32
HETATM   32  C   UNL     1      -9.405   7.043  67.584  1.00  0.00    -0.122 C  
HETATM   33  O   UNL     1     -10.280   6.297  67.178  1.00  0.00    -0.153 OA 
BRANCH  32  34
HETATM   34  O   UNL     1      -8.779   7.980  66.827  1.00  0.00    -0.125 OA 
BRANCH  34  35
HETATM   35  C   UNL     1      -8.228   7.433  65.620  1.00  0.00    -0.137 C  
HETATM   36  C   UNL     1      -8.240   8.577  64.606  1.00  0.00    -0.162 C  
BRANCH  35  37
HETATM   37  O   UNL     1      -6.853   7.070  65.750  1.00  0.00    -0.054 OA 
BRANCH  37  38
HETATM   38  C   UNL     1      -6.510   5.858  65.261  1.00  0.00    -0.042 C  
HETATM   39  O   UNL     1      -6.317   5.578  64.091  1.00  0.00    -0.022 OA 
BRANCH  38  40
HETATM   40  O   UNL     1      -6.400   5.033  66.320  1.00  0.00    -0.034 OA 
BRANCH  40  41
HETATM   41  C   UNL     1      -6.889   3.673  66.347  1.00  0.00    -0.054 C  
HETATM   42  C   UNL     1      -7.863   2.705  68.988  1.00  0.00    -0.052 C  
HETATM   43  C   UNL     1      -6.000   2.902  67.325  1.00  0.00    -0.024 C  
HETATM   44  C   UNL     1      -6.420   3.138  68.772  1.00  0.00    -0.030 C  
HETATM   45  C   UNL     1      -8.830   3.419  68.048  1.00  0.00    -0.155 C  
HETATM   46  C   UNL     1      -8.382   3.417  66.583  1.00  0.00    -0.101 C  
ENDBRANCH  40  41
ENDBRANCH  38  40
ENDBRANCH  37  38
ENDBRANCH  35  37
ENDBRANCH  34  35
ENDBRANCH  32  34
ENDBRANCH   8  32
ENDBRANCH   3   4
ENDBRANCH   2   3
TORSDOF 13
ENDMDL
MODEL      220
REMARK 921   NORMALIZED FREE ENERGY PREDICTED BY IDOCK:   -4.70 KCAL/MOL
REMARK 922        TOTAL FREE ENERGY PREDICTED BY IDOCK:  -10.73 KCAL/MOL
REMARK 923 INTER-LIGAND FREE ENERGY PREDICTED BY IDOCK:   -9.78 KCAL/MOL
REMARK 924 INTRA-LIGAND FREE ENERGY PREDICTED BY IDOCK:   -0.95 KCAL/MOL
REMARK 927      BINDING AFFINITY PREDICTED BY RF-SCORE:    0.00 PKD
ROOT
HETATM    1  C   UNL     1     -13.622   8.877  71.215  1.00  0.00    -0.215 C  
HETATM    2  C   UNL     1     -12.905   9.893  72.087  1.00  0.00    -0.345 C  
ENDROOT
BRANCH   2   3
HETATM    3  O   UNL     1     -11.728  10.314  71.389  1.00  0.00    -0.341 OA 
BRANCH   3   4
HETATM    4  C   UNL     1     -10.854   9.344  71.132  1.00  0.00    -0.357 A  
HETATM    5  N   UNL     1     -10.027   8.833  72.014  1.00  0.00    -0.329 NA 
HETATM    6  C   UNL     1      -9.323   7.887  71.328  1.00  0.00    -0.146 A  
HETATM    7  C   UNL     1      -9.768   7.752  69.998  1.00  0.00    -0.176 A  
HETATM    8  C   UNL     1      -9.228   6.731  69.178  1.00  0.00    -0.137 A  
HETATM    9  N   UNL     1     -10.682   8.793  69.880  1.00  0.00    -0.225 NA 
HETATM   10  C   UNL     1      -7.686   6.145  71.003  1.00  0.00    -0.102 A  
HETATM   11  C   UNL     1      -8.262   7.108  71.820  1.00  0.00    -0.105 A  
HETATM   12  C   UNL     1      -8.185   5.946  69.721  1.00  0.00    -0.113 A  
BRANCH   9  13
HETATM   13  C   UNL     1     -11.259   9.408  68.684  1.00  0.00     0.172 C  
BRANCH  13  14
HETATM   14  C   UNL     1     -10.647  10.745  68.351  1.00  0.00    -0.228 A  
HETATM   15  C   UNL     1      -9.376  12.190  66.884  1.00  0.00    -0.203 A  
HETATM   16  C   UNL     1     -10.082  13.315  67.345  1.00  0.00    -0.233 A  
HETATM   17  C   UNL     1     -11.078  11.879  69.042  1.00  0.00    -0.300 A  
HETATM   18  C   UNL     1      -9.703  10.906  67.339  1.00  0.00    -0.190 A  
HETATM   19  C   UNL     1     -10.815  13.149  68.531  1.00  0.00    -0.285 A  
BRANCH  16  20
HETATM   20  C   UNL     1     -10.189  14.575  66.553  1.00  0.00    -0.282 A  
HETATM   21  C   UNL     1      -9.666  15.776  67.091  1.00  0.00    -0.227 A  
HETATM   22  C   UNL     1     -10.890  14.675  65.313  1.00  0.00    -0.387 A  
HETATM   23  C   UNL     1      -9.803  17.009  66.446  1.00  0.00    -0.312 A  
HETATM   24  C   UNL     1     -10.959  15.922  64.651  1.00  0.00    -0.323 A  
HETATM   25  C   UNL     1     -10.431  17.080  65.213  1.00  0.00    -0.056 A  
BRANCH  22  26
HETATM   26  C   UNL     1     -11.625  13.587  64.655  1.00  0.00    -0.368 A  
HETATM   27  N   UNL     1     -11.175  12.787  63.704  1.00  0.00    -0.520 NA 
HETATM   28  H   UNL     1     -10.243  12.799  63.289  1.00  0.00     0.000 HD 
HETATM   29  N   UNL     1     -12.204  11.937  63.380  1.00  0.00    -0.518 NA 
HETATM   30  N   UNL     1     -13.285  12.211  64.094  1.00  0.00    -0.732 NA 
HETATM   31  N   UNL     1     -12.943  13.262  64.851  1.00  0.00    -0.740 NA 
ENDBRANCH  22  26
ENDBRANCH  16  20
ENDBRANCH  13  14
ENDBRANCH   9  13
BRANCH   8  32
HETATM   32  C   UNL     1      -9.563   6.520  67.750  1.00  0.00    -0.122 C  
HETATM   33  O   UNL     1     -10.392   5.710  67.371  1.00  0.00    -0.187 OA 
BRANCH  32  34
HETATM   34  O   UNL     1      -9.009   7.480  66.966  1.00  0.00    -0.123 OA 
BRANCH  34  35
HETATM   35  C   UNL     1      -8.117   6.938  65.982  1.00  0.00    -0.119 C  
HETATM   36  C   UNL     1      -6.757   6.829  66.674  1.00  0.00    -0.053 C  
BRANCH  35  37
HETATM   37  O   UNL     1      -8.448   5.601  65.607  1.00  0.00    -0.135 OA 
BRANCH  37  38
HETATM   38  C   UNL     1      -7.415   4.733  65.529  1.00  0.00    -0.081 C  
HETATM   39  O   UNL     1      -6.661   4.589  64.582  1.00  0.00    -0.042 OA 
BRANCH  38  40
HETATM   40  O   UNL     1      -7.368   4.084  66.707  1.00  0.00    -0.070 OA 
BRANCH  40  41
HETATM   41  C   UNL     1      -7.953   2.783  66.944  1.00  0.00    -0.076 C  
HETATM   42  C   UNL     1      -7.412   1.593  69.618  1.00  0.00    -0.042 C  
HETATM   43  C   UNL     1      -6.793   1.817  67.201  1.00  0.00    -0.039 C  
HETATM   44  C   UNL     1      -6.291   1.912  68.638  1.00  0.00    -0.025 C  
HETATM   45  C   UNL     1      -8.621   2.505  69.434  1.00  0.00    -0.114 C  
HETATM   46  C   UNL     1      -9.075   2.641  67.978  1.00  0.00    -0.229 C  
ENDBRANCH  40  41
ENDBRANCH  38  40
ENDBRANCH  37  38
ENDBRANCH  35  37
ENDBRANCH  34  35
ENDBRANCH  32  34
ENDBRANCH   8  32
ENDBRANCH   3   4
ENDBRANCH   2   3
TORSDOF 13
ENDMDL
MODEL      221
REMARK 921   NORMALIZED FREE ENERGY PREDICTED BY IDOCK:   -4.68 KCAL/MOL
REMARK 922        TOTAL FREE ENERGY PREDICTED BY IDOCK:  -10.68 KCAL/MOL
REMARK 923 INTER-LIGAND FREE ENERGY PREDICTED BY IDOCK:   -9.07 KCAL/MOL
REMARK 924 INTRA-LIGAND FREE ENERGY PREDICTED BY IDOCK:   -1.61 KCAL/MOL
REMARK 927      BINDING AFFINITY PREDICTED BY RF-SCORE:    0.00 PKD
ROOT
HETATM    1  C   UNL     1     -12.067  12.964  63.503  1.00  0.00    -0.633 C  
HETATM    2  C   UNL     1     -11.377  11.614  63.597  1.00  0.00    -0.394 C  
ENDROOT
BRANCH   2   3
HETATM    3  O   UNL     1      -9.966  11.848  63.657  1.00  0.00    -0.356 OA 
BRANCH   3   4
HETATM    4  C   UNL     1      -9.246  10.809  64.072  1.00  0.00    -0.227 A  
HETATM    5  N   UNL     1      -9.254   9.624  63.507  1.00  0.00    -0.191 NA 
HETATM    6  C   UNL     1      -8.389   8.875  64.251  1.00  0.00    -0.169 A  
HETATM    7  C   UNL     1      -7.769   9.630  65.267  1.00  0.00    -0.115 A  
HETATM    8  C   UNL     1      -6.752   9.040  66.057  1.00  0.00    -0.076 A  
HETATM    9  N   UNL     1      -8.438  10.845  65.188  1.00  0.00    -0.099 NA 
HETATM   10  C   UNL     1      -7.153   6.907  64.899  1.00  0.00    -0.060 A  
HETATM   11  C   UNL     1      -8.105   7.509  64.087  1.00  0.00    -0.055 A  
HETATM   12  C   UNL     1      -6.472   7.671  65.840  1.00  0.00    -0.042 A  
BRANCH   9  13
HETATM   13  C   UNL     1      -8.509  11.945  66.151  1.00  0.00     0.112 C  
BRANCH  13  14
HETATM   14  C   UNL     1      -9.591  11.760  67.185  1.00  0.00    -0.189 A  
HETATM   15  C   UNL     1     -10.303  11.389  69.468  1.00  0.00     0.121 A  
HETATM   16  C   UNL     1     -11.498  12.090  69.231  1.00  0.00    -0.361 A  
HETATM   17  C   UNL     1     -10.900  12.130  66.871  1.00  0.00    -0.291 A  
HETATM   18  C   UNL     1      -9.328  11.280  68.467  1.00  0.00    -0.182 A  
HETATM   19  C   UNL     1     -11.836  12.314  67.887  1.00  0.00    -0.358 A  
BRANCH  16  20
HETATM   20  C   UNL     1     -12.296  12.711  70.330  1.00  0.00    -0.315 A  
HETATM   21  C   UNL     1     -12.300  14.120  70.470  1.00  0.00    -0.434 A  
HETATM   22  C   UNL     1     -12.984  11.961  71.331  1.00  0.00    -0.385 A  
HETATM   23  C   UNL     1     -12.956  14.766  71.523  1.00  0.00    -0.410 A  
HETATM   24  C   UNL     1     -13.692  12.641  72.348  1.00  0.00    -0.377 A  
HETATM   25  C   UNL     1     -13.671  14.028  72.451  1.00  0.00    -0.669 A  
BRANCH  22  26
HETATM   26  C   UNL     1     -12.987  10.497  71.453  1.00  0.00    -0.440 A  
HETATM   27  N   UNL     1     -14.007   9.684  71.238  1.00  0.00    -0.224 NA 
HETATM   28  H   UNL     1     -14.946   9.952  70.944  1.00  0.00     0.000 HD 
HETATM   29  N   UNL     1     -13.560   8.410  71.486  1.00  0.00    -0.324 NA 
HETATM   30  N   UNL     1     -12.294   8.421  71.873  1.00  0.00    -0.326 NA 
HETATM   31  N   UNL     1     -11.951   9.717  71.898  1.00  0.00    -0.338 NA 
ENDBRANCH  22  26
ENDBRANCH  16  20
ENDBRANCH  13  14
ENDBRANCH   9  13
BRANCH   8  32
HETATM   32  C   UNL     1      -6.066   9.700  67.193  1.00  0.00    -0.063 C  
HETATM   33  O   UNL     1      -5.129  10.468  67.052  1.00  0.00    -0.039 OA 
BRANCH  32  34
HETATM   34  O   UNL     1      -6.748   9.521  68.353  1.00  0.00    -0.057 OA 
BRANCH  34  35
HETATM   35  C   UNL     1      -6.779   8.147  68.765  1.00  0.00    -0.058 C  
HETATM   36  C   UNL     1      -5.854   8.060  69.979  1.00  0.00    -0.022 C  
BRANCH  35  37
HETATM   37  O   UNL     1      -8.060   7.739  69.247  1.00  0.00    -0.122 OA 
BRANCH  37  38
HETATM   38  C   UNL     1      -8.967   7.396  68.305  1.00  0.00    -0.130 C  
HETATM   39  O   UNL     1      -9.648   8.160  67.644  1.00  0.00    -0.145 OA 
BRANCH  38  40
HETATM   40  O   UNL     1      -8.948   6.052  68.224  1.00  0.00    -0.115 OA 
BRANCH  40  41
HETATM   41  C   UNL     1      -7.768   5.241  68.422  1.00  0.00    -0.080 C  
HETATM   42  C   UNL     1      -7.873   2.505  67.255  1.00  0.00    -0.069 C  
HETATM   43  C   UNL     1      -8.204   4.014  69.226  1.00  0.00    -0.071 C  
HETATM   44  C   UNL     1      -8.846   2.957  68.335  1.00  0.00    -0.168 C  
HETATM   45  C   UNL     1      -7.375   3.665  66.400  1.00  0.00    -0.072 C  
HETATM   46  C   UNL     1      -6.899   4.872  67.214  1.00  0.00    -0.056 C  
ENDBRANCH  40  41
ENDBRANCH  38  40
ENDBRANCH  37  38
ENDBRANCH  35  37
ENDBRANCH  34  35
ENDBRANCH  32  34
ENDBRANCH   8  32
ENDBRANCH   3   4
ENDBRANCH   2   3
TORSDOF 13
ENDMDL
MODEL      222
REMARK 921   NORMALIZED FREE ENERGY PREDICTED BY IDOCK:   -4.68 KCAL/MOL
REMARK 922        TOTAL FREE ENERGY PREDICTED BY IDOCK:  -10.68 KCAL/MOL
REMARK 923 INTER-LIGAND FREE ENERGY PREDICTED BY IDOCK:   -8.00 KCAL/MOL
REMARK 924 INTRA-LIGAND FREE ENERGY PREDICTED BY IDOCK:   -2.68 KCAL/MOL
REMARK 927      BINDING AFFINITY PREDICTED BY RF-SCORE:    0.00 PKD
ROOT
HETATM    1  C   UNL     1      -6.949   9.617  64.028  1.00  0.00    -0.113 C  
HETATM    2  C   UNL     1      -7.846   8.444  63.673  1.00  0.00    -0.152 C  
ENDROOT
BRANCH   2   3
HETATM    3  O   UNL     1      -8.764   8.253  64.755  1.00  0.00    -0.080 OA 
BRANCH   3   4
HETATM    4  C   UNL     1      -8.226   7.743  65.860  1.00  0.00    -0.128 A  
HETATM    5  N   UNL     1      -7.314   6.800  65.877  1.00  0.00    -0.074 NA 
HETATM    6  C   UNL     1      -7.059   6.582  67.200  1.00  0.00    -0.076 A  
HETATM    7  C   UNL     1      -7.781   7.461  68.032  1.00  0.00    -0.116 A  
HETATM    8  C   UNL     1      -7.546   7.454  69.429  1.00  0.00    -0.096 A  
HETATM    9  N   UNL     1      -8.609   8.117  67.130  1.00  0.00    -0.123 NA 
HETATM   10  C   UNL     1      -6.011   5.558  69.116  1.00  0.00    -0.024 A  
HETATM   11  C   UNL     1      -6.201   5.611  67.742  1.00  0.00    -0.033 A  
HETATM   12  C   UNL     1      -6.649   6.484  69.933  1.00  0.00    -0.048 A  
BRANCH   9  13
HETATM   13  C   UNL     1      -9.815   8.912  67.365  1.00  0.00    -0.193 C  
BRANCH  13  14
HETATM   14  C   UNL     1      -9.635  10.374  67.044  1.00  0.00    -0.197 A  
HETATM   15  C   UNL     1     -10.452  12.464  66.139  1.00  0.00    -0.274 A  
HETATM   16  C   UNL     1      -9.652  13.191  67.037  1.00  0.00    -0.241 A  
HETATM   17  C   UNL     1      -8.606  11.083  67.667  1.00  0.00    -0.125 A  
HETATM   18  C   UNL     1     -10.490  11.064  66.187  1.00  0.00    -0.301 A  
HETATM   19  C   UNL     1      -8.628  12.477  67.680  1.00  0.00    -0.178 A  
BRANCH  16  20
HETATM   20  C   UNL     1      -9.954  14.601  67.421  1.00  0.00    -0.231 A  
HETATM   21  C   UNL     1      -9.349  15.659  66.699  1.00  0.00    -0.291 A  
HETATM   22  C   UNL     1     -10.743  14.963  68.554  1.00  0.00    -0.245 A  
HETATM   23  C   UNL     1      -9.519  17.001  67.053  1.00  0.00    -0.256 A  
HETATM   24  C   UNL     1     -10.951  16.329  68.851  1.00  0.00    -0.334 A  
HETATM   25  C   UNL     1     -10.338  17.339  68.117  1.00  0.00    -0.357 A  
BRANCH  22  26
HETATM   26  C   UNL     1     -11.340  14.025  69.516  1.00  0.00    -0.245 A  
HETATM   27  N   UNL     1     -11.829  12.825  69.254  1.00  0.00    -0.310 NA 
HETATM   28  H   UNL     1     -11.856  12.364  68.345  1.00  0.00     0.000 HD 
HETATM   29  N   UNL     1     -12.294  12.319  70.443  1.00  0.00    -0.274 NA 
HETATM   30  N   UNL     1     -12.124  13.190  71.426  1.00  0.00     0.149 NA 
HETATM   31  N   UNL     1     -11.576  14.265  70.844  1.00  0.00    -0.173 NA 
ENDBRANCH  22  26
ENDBRANCH  16  20
ENDBRANCH  13  14
ENDBRANCH   9  13
BRANCH   8  32
HETATM   32  C   UNL     1      -8.277   8.281  70.419  1.00  0.00    -0.114 C  
HETATM   33  O   UNL     1      -8.054   9.467  70.594  1.00  0.00    -0.167 OA 
BRANCH  32  34
HETATM   34  O   UNL     1      -9.348   7.616  70.921  1.00  0.00    -0.156 OA 
BRANCH  34  35
HETATM   35  C   UNL     1     -10.047   8.375  71.919  1.00  0.00    -0.267 C  
HETATM   36  C   UNL     1     -11.347   8.830  71.254  1.00  0.00    -0.357 C  
BRANCH  35  37
HETATM   37  O   UNL     1     -10.461   7.583  73.033  1.00  0.00    -0.274 OA 
BRANCH  37  38
HETATM   38  C   UNL     1      -9.470   7.069  73.795  1.00  0.00    -0.222 C  
HETATM   39  O   UNL     1      -8.306   7.429  73.808  1.00  0.00    -0.130 OA 
BRANCH  38  40
HETATM   40  O   UNL     1     -10.028   6.105  74.552  1.00  0.00    -0.266 OA 
BRANCH  40  41
HETATM   41  C   UNL     1      -9.880   4.688  74.306  1.00  0.00    -0.162 C  
HETATM   42  C   UNL     1      -9.673   3.890  71.446  1.00  0.00    -0.246 C  
HETATM   43  C   UNL     1     -11.091   4.253  73.478  1.00  0.00    -0.377 C  
HETATM   44  C   UNL     1     -10.910   4.583  72.000  1.00  0.00     0.075 C  
HETATM   45  C   UNL     1      -8.407   4.258  72.214  1.00  0.00    -0.104 C  
HETATM   46  C   UNL     1      -8.559   4.159  73.735  1.00  0.00    -0.091 C  
ENDBRANCH  40  41
ENDBRANCH  38  40
ENDBRANCH  37  38
ENDBRANCH  35  37
ENDBRANCH  34  35
ENDBRANCH  32  34
ENDBRANCH   8  32
ENDBRANCH   3   4
ENDBRANCH   2   3
TORSDOF 13
ENDMDL
MODEL      223
REMARK 921   NORMALIZED FREE ENERGY PREDICTED BY IDOCK:   -4.66 KCAL/MOL
REMARK 922        TOTAL FREE ENERGY PREDICTED BY IDOCK:  -10.66 KCAL/MOL
REMARK 923 INTER-LIGAND FREE ENERGY PREDICTED BY IDOCK:   -9.07 KCAL/MOL
REMARK 924 INTRA-LIGAND FREE ENERGY PREDICTED BY IDOCK:   -1.58 KCAL/MOL
REMARK 927      BINDING AFFINITY PREDICTED BY RF-SCORE:    0.00 PKD
ROOT
HETATM    1  C   UNL     1      -5.188  10.103  64.972  1.00  0.00    -0.078 C  
HETATM    2  C   UNL     1      -6.242  10.608  65.941  1.00  0.00    -0.134 C  
ENDROOT
BRANCH   2   3
HETATM    3  O   UNL     1      -7.354   9.709  65.887  1.00  0.00    -0.095 OA 
BRANCH   3   4
HETATM    4  C   UNL     1      -8.097   9.672  66.989  1.00  0.00    -0.113 A  
HETATM    5  N   UNL     1      -7.826   8.943  68.047  1.00  0.00    -0.101 NA 
HETATM    6  C   UNL     1      -8.839   9.204  68.922  1.00  0.00    -0.139 A  
HETATM    7  C   UNL     1      -9.732  10.176  68.429  1.00  0.00    -0.147 A  
HETATM    8  C   UNL     1     -10.776  10.654  69.259  1.00  0.00    -0.275 A  
HETATM    9  N   UNL     1      -9.279  10.368  67.129  1.00  0.00    -0.142 NA 
HETATM   10  C   UNL     1     -10.096   9.028  70.974  1.00  0.00    -0.352 A  
HETATM   11  C   UNL     1      -9.039   8.607  70.179  1.00  0.00    -0.163 A  
HETATM   12  C   UNL     1     -10.923  10.053  70.530  1.00  0.00    -0.392 A  
BRANCH   9  13
HETATM   13  C   UNL     1      -9.942  10.993  65.984  1.00  0.00    -0.237 C  
BRANCH  13  14
HETATM   14  C   UNL     1      -9.583  12.447  65.811  1.00  0.00    -0.164 A  
HETATM   15  C   UNL     1     -10.081  14.674  65.007  1.00  0.00    -0.318 A  
HETATM   16  C   UNL     1      -9.322  15.242  66.044  1.00  0.00    -0.346 A  
HETATM   17  C   UNL     1      -8.568  12.993  66.598  1.00  0.00     0.027 A  
HETATM   18  C   UNL     1     -10.262  13.287  64.930  1.00  0.00    -0.313 A  
HETATM   19  C   UNL     1      -8.454  14.377  66.730  1.00  0.00    -0.076 A  
BRANCH  16  20
HETATM   20  C   UNL     1      -9.526  16.644  66.515  1.00  0.00    -0.288 A  
HETATM   21  C   UNL     1     -10.367  17.506  65.770  1.00  0.00    -0.217 A  
HETATM   22  C   UNL     1      -8.837  17.216  67.626  1.00  0.00    -0.218 A  
HETATM   23  C   UNL     1     -10.541  18.854  66.101  1.00  0.00    -0.476 A  
HETATM   24  C   UNL     1      -9.080  18.563  67.978  1.00  0.00    -0.319 A  
HETATM   25  C   UNL     1      -9.914  19.379  67.219  1.00  0.00    -0.470 A  
BRANCH  22  26
HETATM   26  C   UNL     1      -7.819  16.541  68.442  1.00  0.00    -0.187 A  
HETATM   27  N   UNL     1      -8.026  15.800  69.517  1.00  0.00    -0.207 NA 
HETATM   28  H   UNL     1      -8.928  15.577  69.937  1.00  0.00     0.000 HD 
HETATM   29  N   UNL     1      -6.793  15.388  69.959  1.00  0.00    -0.106 NA 
HETATM   30  N   UNL     1      -5.829  15.878  69.195  1.00  0.00    -0.115 NA 
HETATM   31  N   UNL     1      -6.460  16.630  68.282  1.00  0.00    -0.130 NA 
ENDBRANCH  22  26
ENDBRANCH  16  20
ENDBRANCH  13  14
ENDBRANCH   9  13
BRANCH   8  32
HETATM   32  C   UNL     1     -11.815  11.626  68.844  1.00  0.00    -0.329 C  
HETATM   33  O   UNL     1     -12.628  11.400  67.963  1.00  0.00     0.210 OA 
BRANCH  32  34
HETATM   34  O   UNL     1     -11.884  12.673  69.706  1.00  0.00    -0.315 OA 
BRANCH  34  35
HETATM   35  C   UNL     1     -11.074  13.782  69.288  1.00  0.00    -0.208 C  
HETATM   36  C   UNL     1     -11.944  14.587  68.322  1.00  0.00    -0.303 C  
BRANCH  35  37
HETATM   37  O   UNL     1     -10.774  14.684  70.354  1.00  0.00    -0.010 OA 
BRANCH  37  38
HETATM   38  C   UNL     1     -11.561  15.780  70.442  1.00  0.00    -0.360 C  
HETATM   39  O   UNL     1     -11.186  16.938  70.488  1.00  0.00    -0.014 OA 
BRANCH  38  40
HETATM   40  O   UNL     1     -12.834  15.341  70.442  1.00  0.00    -0.370 OA 
BRANCH  40  41
HETATM   41  C   UNL     1     -13.691  15.330  71.606  1.00  0.00    -0.505 C  
HETATM   42  C   UNL     1     -12.341  14.768  74.198  1.00  0.00    -0.244 C  
HETATM   43  C   UNL     1     -13.604  13.925  72.207  1.00  0.00    -0.642 C  
HETATM   44  C   UNL     1     -12.353  13.755  73.062  1.00  0.00     0.511 C  
HETATM   45  C   UNL     1     -12.431  16.205  73.697  1.00  0.00    -0.684 C  
HETATM   46  C   UNL     1     -13.538  16.430  72.662  1.00  0.00     0.481 C  
ENDBRANCH  40  41
ENDBRANCH  38  40
ENDBRANCH  37  38
ENDBRANCH  35  37
ENDBRANCH  34  35
ENDBRANCH  32  34
ENDBRANCH   8  32
ENDBRANCH   3   4
ENDBRANCH   2   3
TORSDOF 13
ENDMDL
MODEL      224
REMARK 921   NORMALIZED FREE ENERGY PREDICTED BY IDOCK:   -4.64 KCAL/MOL
REMARK 922        TOTAL FREE ENERGY PREDICTED BY IDOCK:  -10.63 KCAL/MOL
REMARK 923 INTER-LIGAND FREE ENERGY PREDICTED BY IDOCK:   -8.71 KCAL/MOL
REMARK 924 INTRA-LIGAND FREE ENERGY PREDICTED BY IDOCK:   -1.92 KCAL/MOL
REMARK 927      BINDING AFFINITY PREDICTED BY RF-SCORE:    0.00 PKD
ROOT
HETATM    1  C   UNL     1     -11.834  14.430  70.901  1.00  0.00    -0.346 C  
HETATM    2  C   UNL     1     -11.879  14.162  69.407  1.00  0.00    -0.330 C  
ENDROOT
BRANCH   2   3
HETATM    3  O   UNL     1     -11.591  12.775  69.202  1.00  0.00    -0.282 OA 
BRANCH   3   4
HETATM    4  C   UNL     1     -11.401  12.426  67.933  1.00  0.00    -0.289 A  
HETATM    5  N   UNL     1     -12.232  12.698  66.953  1.00  0.00    -0.454 NA 
HETATM    6  C   UNL     1     -11.653  12.156  65.842  1.00  0.00    -0.364 A  
HETATM    7  C   UNL     1     -10.392  11.592  66.121  1.00  0.00    -0.245 A  
HETATM    8  C   UNL     1      -9.598  11.092  65.059  1.00  0.00    -0.291 A  
HETATM    9  N   UNL     1     -10.320  11.686  67.505  1.00  0.00    -0.194 NA 
HETATM   10  C   UNL     1     -11.446  11.578  63.509  1.00  0.00    -0.334 A  
HETATM   11  C   UNL     1     -12.193  12.121  64.546  1.00  0.00    -0.404 A  
HETATM   12  C   UNL     1     -10.164  11.105  63.763  1.00  0.00    -0.434 A  
BRANCH   9  13
HETATM   13  C   UNL     1      -9.434  11.005  68.450  1.00  0.00    -0.182 C  
BRANCH  13  14
HETATM   14  C   UNL     1      -9.359   9.516  68.226  1.00  0.00    -0.139 A  
HETATM   15  C   UNL     1      -8.185   7.405  68.374  1.00  0.00    -0.125 A  
HETATM   16  C   UNL     1      -9.403   6.711  68.478  1.00  0.00    -0.125 A  
HETATM   17  C   UNL     1     -10.535   8.808  67.974  1.00  0.00    -0.260 A  
HETATM   18  C   UNL     1      -8.163   8.804  68.313  1.00  0.00    -0.118 A  
HETATM   19  C   UNL     1     -10.560   7.421  68.121  1.00  0.00    -0.216 A  
BRANCH  16  20
HETATM   20  C   UNL     1      -9.503   5.350  69.083  1.00  0.00    -0.177 A  
HETATM   21  C   UNL     1      -9.783   5.227  70.466  1.00  0.00    -0.254 A  
HETATM   22  C   UNL     1      -9.226   4.143  68.371  1.00  0.00    -0.198 A  
HETATM   23  C   UNL     1      -9.808   3.990  71.119  1.00  0.00    -0.236 A  
HETATM   24  C   UNL     1      -9.323   2.902  69.040  1.00  0.00    -0.215 A  
HETATM   25  C   UNL     1      -9.600   2.824  70.401  1.00  0.00    -0.137 A  
BRANCH  22  26
HETATM   26  C   UNL     1      -8.780   4.057  66.974  1.00  0.00    -0.112 A  
HETATM   27  N   UNL     1      -7.539   4.164  66.530  1.00  0.00    -0.088 NA 
HETATM   28  H   UNL     1      -6.702   4.312  67.093  1.00  0.00     0.000 HD 
HETATM   29  N   UNL     1      -7.595   4.036  65.164  1.00  0.00    -0.080 NA 
HETATM   30  N   UNL     1      -8.844   3.878  64.755  1.00  0.00    -0.119 NA 
HETATM   31  N   UNL     1      -9.584   3.937  65.870  1.00  0.00    -0.184 NA 
ENDBRANCH  22  26
ENDBRANCH  16  20
ENDBRANCH  13  14
ENDBRANCH   9  13
BRANCH   8  32
HETATM   32  C   UNL     1      -8.287  10.421  65.220  1.00  0.00    -0.166 C  
HETATM   33  O   UNL     1      -8.133   9.217  65.099  1.00  0.00    -0.114 OA 
BRANCH  32  34
HETATM   34  O   UNL     1      -7.276  11.324  65.289  1.00  0.00     0.401 OA 
BRANCH  34  35
HETATM   35  C   UNL     1      -6.650  11.351  66.580  1.00  0.00    -0.114 C  
HETATM   36  C   UNL     1      -5.146  11.279  66.311  1.00  0.00    -0.121 C  
BRANCH  35  37
HETATM   37  O   UNL     1      -6.844  12.588  67.266  1.00  0.00    -0.151 OA 
BRANCH  37  38
HETATM   38  C   UNL     1      -5.802  13.024  68.009  1.00  0.00    -0.112 C  
HETATM   39  O   UNL     1      -5.130  12.355  68.775  1.00  0.00    -0.055 OA 
BRANCH  38  40
HETATM   40  O   UNL     1      -5.639  14.328  67.717  1.00  0.00    -0.249 OA 
BRANCH  40  41
HETATM   41  C   UNL     1      -6.062  15.413  68.573  1.00  0.00    -0.093 C  
HETATM   42  C   UNL     1      -8.439  16.942  67.639  1.00  0.00    -0.206 C  
HETATM   43  C   UNL     1      -5.949  16.698  67.748  1.00  0.00    -0.154 C  
HETATM   44  C   UNL     1      -7.152  16.884  66.829  1.00  0.00    -0.273 C  
HETATM   45  C   UNL     1      -8.639  15.701  68.504  1.00  0.00    -0.180 C  
HETATM   46  C   UNL     1      -7.399  15.308  69.314  1.00  0.00    -0.191 C  
ENDBRANCH  40  41
ENDBRANCH  38  40
ENDBRANCH  37  38
ENDBRANCH  35  37
ENDBRANCH  34  35
ENDBRANCH  32  34
ENDBRANCH   8  32
ENDBRANCH   3   4
ENDBRANCH   2   3
TORSDOF 13
ENDMDL
MODEL      225
REMARK 921   NORMALIZED FREE ENERGY PREDICTED BY IDOCK:   -4.63 KCAL/MOL
REMARK 922        TOTAL FREE ENERGY PREDICTED BY IDOCK:  -10.59 KCAL/MOL
REMARK 923 INTER-LIGAND FREE ENERGY PREDICTED BY IDOCK:   -8.34 KCAL/MOL
REMARK 924 INTRA-LIGAND FREE ENERGY PREDICTED BY IDOCK:   -2.25 KCAL/MOL
REMARK 927      BINDING AFFINITY PREDICTED BY RF-SCORE:    0.00 PKD
ROOT
HETATM    1  C   UNL     1      -9.332   3.781  62.611  1.00  0.00    -0.106 C  
HETATM    2  C   UNL     1     -10.148   4.045  63.865  1.00  0.00    -0.144 C  
ENDROOT
BRANCH   2   3
HETATM    3  O   UNL     1      -9.262   3.972  64.986  1.00  0.00    -0.134 OA 
BRANCH   3   4
HETATM    4  C   UNL     1      -8.712   5.130  65.340  1.00  0.00    -0.149 A  
HETATM    5  N   UNL     1      -7.471   5.473  65.087  1.00  0.00    -0.072 NA 
HETATM    6  C   UNL     1      -7.334   6.719  65.627  1.00  0.00    -0.079 A  
HETATM    7  C   UNL     1      -8.542   7.198  66.172  1.00  0.00    -0.146 A  
HETATM    8  C   UNL     1      -8.610   8.524  66.667  1.00  0.00    -0.122 A  
HETATM    9  N   UNL     1      -9.378   6.093  66.068  1.00  0.00    -0.109 NA 
HETATM   10  C   UNL     1      -6.205   8.768  66.217  1.00  0.00    -0.060 A  
HETATM   11  C   UNL     1      -6.160   7.489  65.678  1.00  0.00    -0.038 A  
HETATM   12  C   UNL     1      -7.415   9.279  66.670  1.00  0.00    -0.093 A  
BRANCH   9  13
HETATM   13  C   UNL     1     -10.652   5.811  66.730  1.00  0.00    -0.306 C  
BRANCH  13  14
HETATM   14  C   UNL     1     -10.523   5.657  68.225  1.00  0.00    -0.257 A  
HETATM   15  C   UNL     1      -9.411   4.760  70.177  1.00  0.00    -0.222 A  
HETATM   16  C   UNL     1      -9.807   5.871  70.940  1.00  0.00    -0.224 A  
HETATM   17  C   UNL     1     -11.197   6.551  69.059  1.00  0.00    -0.354 A  
HETATM   18  C   UNL     1      -9.713   4.686  68.811  1.00  0.00    -0.230 A  
HETATM   19  C   UNL     1     -10.826   6.671  70.398  1.00  0.00    -0.316 A  
BRANCH  16  20
HETATM   20  C   UNL     1      -9.093   6.289  72.183  1.00  0.00    -0.141 A  
HETATM   21  C   UNL     1      -9.824   6.909  73.225  1.00  0.00    -0.228 A  
HETATM   22  C   UNL     1      -7.678   6.198  72.352  1.00  0.00    -0.100 A  
HETATM   23  C   UNL     1      -9.210   7.401  74.381  1.00  0.00    -0.107 A  
HETATM   24  C   UNL     1      -7.091   6.645  73.558  1.00  0.00    -0.076 A  
HETATM   25  C   UNL     1      -7.845   7.250  74.559  1.00  0.00    -0.180 A  
BRANCH  22  26
HETATM   26  C   UNL     1      -6.723   5.722  71.342  1.00  0.00    -0.061 A  
HETATM   27  N   UNL     1      -6.152   4.531  71.289  1.00  0.00    -0.017 NA 
HETATM   28  H   UNL     1      -6.296   3.758  71.939  1.00  0.00     0.000 HD 
HETATM   29  N   UNL     1      -5.327   4.535  70.192  1.00  0.00    -0.007 NA 
HETATM   30  N   UNL     1      -5.358   5.710  69.582  1.00  0.00    -0.004 NA 
HETATM   31  N   UNL     1      -6.187   6.461  70.319  1.00  0.00    -0.034 NA 
ENDBRANCH  22  26
ENDBRANCH  16  20
ENDBRANCH  13  14
ENDBRANCH   9  13
BRANCH   8  32
HETATM   32  C   UNL     1      -9.796   9.129  67.318  1.00  0.00    -0.189 C  
HETATM   33  O   UNL     1      -9.830   9.427  68.500  1.00  0.00    -0.150 OA 
BRANCH  32  34
HETATM   34  O   UNL     1     -10.724   9.507  66.401  1.00  0.00    -0.067 OA 
BRANCH  34  35
HETATM   35  C   UNL     1     -10.640  10.903  66.080  1.00  0.00    -0.189 C  
HETATM   36  C   UNL     1     -10.607  10.973  64.552  1.00  0.00    -0.383 C  
BRANCH  35  37
HETATM   37  O   UNL     1     -11.809  11.632  66.457  1.00  0.00    -0.500 OA 
BRANCH  37  38
HETATM   38  C   UNL     1     -11.814  12.947  66.146  1.00  0.00    -0.429 C  
HETATM   39  O   UNL     1     -12.630  13.522  65.446  1.00  0.00    -0.470 OA 
BRANCH  38  40
HETATM   40  O   UNL     1     -10.762  13.497  66.780  1.00  0.00    -0.276 OA 
BRANCH  40  41
HETATM   41  C   UNL     1     -10.500  14.918  66.843  1.00  0.00    -0.280 C  
HETATM   42  C   UNL     1      -8.755  15.810  69.083  1.00  0.00    -0.253 C  
HETATM   43  C   UNL     1     -11.057  15.411  68.180  1.00  0.00    -0.309 C  
HETATM   44  C   UNL     1     -10.094  15.129  69.329  1.00  0.00    -0.246 C  
HETATM   45  C   UNL     1      -8.121  15.384  67.762  1.00  0.00    -0.152 C  
HETATM   46  C   UNL     1      -9.083  15.433  66.571  1.00  0.00    -0.334 C  
ENDBRANCH  40  41
ENDBRANCH  38  40
ENDBRANCH  37  38
ENDBRANCH  35  37
ENDBRANCH  34  35
ENDBRANCH  32  34
ENDBRANCH   8  32
ENDBRANCH   3   4
ENDBRANCH   2   3
TORSDOF 13
ENDMDL
MODEL      226
REMARK 921   NORMALIZED FREE ENERGY PREDICTED BY IDOCK:   -4.62 KCAL/MOL
REMARK 922        TOTAL FREE ENERGY PREDICTED BY IDOCK:  -10.58 KCAL/MOL
REMARK 923 INTER-LIGAND FREE ENERGY PREDICTED BY IDOCK:   -8.84 KCAL/MOL
REMARK 924 INTRA-LIGAND FREE ENERGY PREDICTED BY IDOCK:   -1.75 KCAL/MOL
REMARK 927      BINDING AFFINITY PREDICTED BY RF-SCORE:    0.00 PKD
ROOT
HETATM    1  C   UNL     1     -11.958   7.767  71.873  1.00  0.00    -0.340 C  
HETATM    2  C   UNL     1     -12.960   8.871  72.163  1.00  0.00    -0.416 C  
ENDROOT
BRANCH   2   3
HETATM    3  O   UNL     1     -13.071   9.681  70.988  1.00  0.00    -0.319 OA 
BRANCH   3   4
HETATM    4  C   UNL     1     -12.962  10.989  71.200  1.00  0.00    -0.324 A  
HETATM    5  N   UNL     1     -13.520  11.631  72.199  1.00  0.00    -0.320 NA 
HETATM    6  C   UNL     1     -13.157  12.935  72.026  1.00  0.00    -0.379 A  
HETATM    7  C   UNL     1     -12.291  13.104  70.927  1.00  0.00    -0.307 A  
HETATM    8  C   UNL     1     -11.720  14.376  70.675  1.00  0.00    -0.315 A  
HETATM    9  N   UNL     1     -12.283  11.839  70.353  1.00  0.00    -0.348 NA 
HETATM   10  C   UNL     1     -13.057  15.294  72.524  1.00  0.00    -0.503 A  
HETATM   11  C   UNL     1     -13.566  14.032  72.803  1.00  0.00    -0.515 A  
HETATM   12  C   UNL     1     -12.130  15.448  71.501  1.00  0.00    -0.437 A  
BRANCH   9  13
HETATM   13  C   UNL     1     -11.851  11.412  69.022  1.00  0.00    -0.348 C  
BRANCH  13  14
HETATM   14  C   UNL     1     -10.938  10.212  69.050  1.00  0.00    -0.265 A  
HETATM   15  C   UNL     1     -10.057   8.193  68.049  1.00  0.00    -0.241 A  
HETATM   16  C   UNL     1      -8.830   8.376  68.709  1.00  0.00    -0.140 A  
HETATM   17  C   UNL     1      -9.875  10.190  69.954  1.00  0.00    -0.223 A  
HETATM   18  C   UNL     1     -11.082   9.141  68.170  1.00  0.00     0.106 A  
HETATM   19  C   UNL     1      -8.822   9.295  69.771  1.00  0.00    -0.174 A  
BRANCH  16  20
HETATM   20  C   UNL     1      -7.558   7.761  68.225  1.00  0.00    -0.109 A  
HETATM   21  C   UNL     1      -7.375   6.363  68.353  1.00  0.00    -0.087 A  
HETATM   22  C   UNL     1      -6.452   8.514  67.729  1.00  0.00    -0.061 A  
HETATM   23  C   UNL     1      -6.180   5.728  68.000  1.00  0.00    -0.039 A  
HETATM   24  C   UNL     1      -5.279   7.840  67.318  1.00  0.00    -0.027 A  
HETATM   25  C   UNL     1      -5.138   6.464  67.461  1.00  0.00    -0.004 A  
BRANCH  22  26
HETATM   26  C   UNL     1      -6.380   9.979  67.649  1.00  0.00    -0.059 A  
HETATM   27  N   UNL     1      -6.354  10.829  68.662  1.00  0.00    -0.049 NA 
HETATM   28  H   UNL     1      -6.368  10.593  69.654  1.00  0.00     0.000 HD 
HETATM   29  N   UNL     1      -6.302  12.090  68.121  1.00  0.00    -0.051 NA 
HETATM   30  N   UNL     1      -6.322  12.037  66.798  1.00  0.00    -0.113 NA 
HETATM   31  N   UNL     1      -6.417  10.733  66.505  1.00  0.00    -0.108 NA 
ENDBRANCH  22  26
ENDBRANCH  16  20
ENDBRANCH  13  14
ENDBRANCH   9  13
BRANCH   8  32
HETATM   32  C   UNL     1     -10.846  14.703  69.523  1.00  0.00    -0.217 C  
HETATM   33  O   UNL     1     -10.046  13.915  69.046  1.00  0.00    -0.152 OA 
BRANCH  32  34
HETATM   34  O   UNL     1     -11.209  15.876  68.945  1.00  0.00    -0.297 OA 
BRANCH  34  35
HETATM   35  C   UNL     1     -10.619  16.056  67.650  1.00  0.00    -0.309 C  
HETATM   36  C   UNL     1     -11.757  16.516  66.738  1.00  0.00     1.168 C  
BRANCH  35  37
HETATM   37  O   UNL     1      -9.666  17.120  67.615  1.00  0.00    -0.254 OA 
BRANCH  37  38
HETATM   38  C   UNL     1      -8.504  16.855  66.979  1.00  0.00    -0.203 C  
HETATM   39  O   UNL     1      -8.371  16.206  65.956  1.00  0.00    -0.281 OA 
BRANCH  38  40
HETATM   40  O   UNL     1      -7.532  17.469  67.680  1.00  0.00    -0.181 OA 
BRANCH  40  41
HETATM   41  C   UNL     1      -7.691  18.740  68.350  1.00  0.00    -0.315 C  
HETATM   42  C   UNL     1      -5.308  20.523  68.313  1.00  0.00    -0.273 C  
HETATM   43  C   UNL     1      -6.664  18.774  69.484  1.00  0.00    -0.194 C  
HETATM   44  C   UNL     1      -5.277  19.154  68.976  1.00  0.00    -0.199 C  
HETATM   45  C   UNL     1      -6.313  20.591  67.166  1.00  0.00    -0.280 C  
HETATM   46  C   UNL     1      -7.693  20.030  67.522  1.00  0.00    -0.333 C  
ENDBRANCH  40  41
ENDBRANCH  38  40
ENDBRANCH  37  38
ENDBRANCH  35  37
ENDBRANCH  34  35
ENDBRANCH  32  34
ENDBRANCH   8  32
ENDBRANCH   3   4
ENDBRANCH   2   3
TORSDOF 13
ENDMDL
MODEL      227
REMARK 921   NORMALIZED FREE ENERGY PREDICTED BY IDOCK:   -4.59 KCAL/MOL
REMARK 922        TOTAL FREE ENERGY PREDICTED BY IDOCK:  -10.54 KCAL/MOL
REMARK 923 INTER-LIGAND FREE ENERGY PREDICTED BY IDOCK:   -8.72 KCAL/MOL
REMARK 924 INTRA-LIGAND FREE ENERGY PREDICTED BY IDOCK:   -1.81 KCAL/MOL
REMARK 927      BINDING AFFINITY PREDICTED BY RF-SCORE:    0.00 PKD
ROOT
HETATM    1  C   UNL     1     -11.952   7.768  71.872  1.00  0.00    -0.340 C  
HETATM    2  C   UNL     1     -12.941   8.894  72.117  1.00  0.00    -0.416 C  
ENDROOT
BRANCH   2   3
HETATM    3  O   UNL     1     -12.996   9.693  70.931  1.00  0.00    -0.277 OA 
BRANCH   3   4
HETATM    4  C   UNL     1     -12.869  11.002  71.134  1.00  0.00    -0.392 A  
HETATM    5  N   UNL     1     -13.403  11.655  72.139  1.00  0.00    -0.394 NA 
HETATM    6  C   UNL     1     -13.029  12.954  71.952  1.00  0.00    -0.301 A  
HETATM    7  C   UNL     1     -12.179  13.107  70.838  1.00  0.00    -0.241 A  
HETATM    8  C   UNL     1     -11.598  14.371  70.569  1.00  0.00    -0.270 A  
HETATM    9  N   UNL     1     -12.195  11.839  70.271  1.00  0.00    -0.320 NA 
HETATM   10  C   UNL     1     -12.894  15.314  72.435  1.00  0.00    -0.452 A  
HETATM   11  C   UNL     1     -13.412  14.059  72.730  1.00  0.00    -0.576 A  
HETATM   12  C   UNL     1     -11.983  15.453  71.395  1.00  0.00    -0.440 A  
BRANCH   9  13
HETATM   13  C   UNL     1     -11.789  11.400  68.935  1.00  0.00    -0.347 C  
BRANCH  13  14
HETATM   14  C   UNL     1     -10.890  10.190  68.955  1.00  0.00    -0.257 A  
HETATM   15  C   UNL     1     -10.043   8.159  67.949  1.00  0.00    -0.246 A  
HETATM   16  C   UNL     1      -8.806   8.330  68.593  1.00  0.00    -0.133 A  
HETATM   17  C   UNL     1      -9.816  10.158  69.847  1.00  0.00    -0.223 A  
HETATM   18  C   UNL     1     -11.056   9.118  68.080  1.00  0.00     0.110 A  
HETATM   19  C   UNL     1      -8.775   9.251  69.653  1.00  0.00    -0.155 A  
BRANCH  16  20
HETATM   20  C   UNL     1      -7.547   7.700  68.095  1.00  0.00    -0.114 A  
HETATM   21  C   UNL     1      -7.174   7.878  66.741  1.00  0.00    -0.088 A  
HETATM   22  C   UNL     1      -6.733   6.828  68.880  1.00  0.00    -0.053 A  
HETATM   23  C   UNL     1      -6.055   7.251  66.183  1.00  0.00    -0.037 A  
HETATM   24  C   UNL     1      -5.572   6.259  68.309  1.00  0.00    -0.008 A  
HETATM   25  C   UNL     1      -5.240   6.458  66.973  1.00  0.00    -0.008 A  
BRANCH  22  26
HETATM   26  C   UNL     1      -7.018   6.398  70.255  1.00  0.00    -0.063 A  
HETATM   27  N   UNL     1      -8.018   5.632  70.656  1.00  0.00    -0.102 NA 
HETATM   28  H   UNL     1      -8.738   5.214  70.067  1.00  0.00     0.000 HD 
HETATM   29  N   UNL     1      -7.899   5.506  72.019  1.00  0.00    -0.105 NA 
HETATM   30  N   UNL     1      -6.864   6.197  72.469  1.00  0.00    -0.069 NA 
HETATM   31  N   UNL     1      -6.344   6.787  71.384  1.00  0.00    -0.041 NA 
ENDBRANCH  22  26
ENDBRANCH  16  20
ENDBRANCH  13  14
ENDBRANCH   9  13
BRANCH   8  32
HETATM   32  C   UNL     1     -10.740  14.682  69.401  1.00  0.00    -0.222 C  
HETATM   33  O   UNL     1      -9.952  13.885  68.920  1.00  0.00    -0.182 OA 
BRANCH  32  34
HETATM   34  O   UNL     1     -11.105  15.852  68.818  1.00  0.00    -0.286 OA 
BRANCH  34  35
HETATM   35  C   UNL     1     -10.527  16.019  67.514  1.00  0.00    -0.297 C  
HETATM   36  C   UNL     1     -11.676  16.466  66.609  1.00  0.00     1.110 C  
BRANCH  35  37
HETATM   37  O   UNL     1      -9.578  17.085  67.459  1.00  0.00    -0.244 OA 
BRANCH  37  38
HETATM   38  C   UNL     1      -8.422  16.816  66.814  1.00  0.00    -0.234 C  
HETATM   39  O   UNL     1      -8.296  16.153  65.799  1.00  0.00    -0.094 OA 
BRANCH  38  40
HETATM   40  O   UNL     1      -7.446  17.444  67.496  1.00  0.00    -0.177 OA 
BRANCH  40  41
HETATM   41  C   UNL     1      -7.653  18.610  68.326  1.00  0.00    -0.284 C  
HETATM   42  C   UNL     1      -5.460  20.622  68.294  1.00  0.00    -0.309 C  
HETATM   43  C   UNL     1      -6.525  18.622  69.361  1.00  0.00    -0.269 C  
HETATM   44  C   UNL     1      -5.237  19.197  68.782  1.00  0.00    -0.196 C  
HETATM   45  C   UNL     1      -6.576  20.713  67.258  1.00  0.00    -0.340 C  
HETATM   46  C   UNL     1      -7.856  19.976  67.663  1.00  0.00    -0.341 C  
ENDBRANCH  40  41
ENDBRANCH  38  40
ENDBRANCH  37  38
ENDBRANCH  35  37
ENDBRANCH  34  35
ENDBRANCH  32  34
ENDBRANCH   8  32
ENDBRANCH   3   4
ENDBRANCH   2   3
TORSDOF 13
ENDMDL
MODEL      228
REMARK 921   NORMALIZED FREE ENERGY PREDICTED BY IDOCK:   -4.59 KCAL/MOL
REMARK 922        TOTAL FREE ENERGY PREDICTED BY IDOCK:  -10.52 KCAL/MOL
REMARK 923 INTER-LIGAND FREE ENERGY PREDICTED BY IDOCK:   -9.45 KCAL/MOL
REMARK 924 INTRA-LIGAND FREE ENERGY PREDICTED BY IDOCK:   -1.07 KCAL/MOL
REMARK 927      BINDING AFFINITY PREDICTED BY RF-SCORE:    0.00 PKD
ROOT
HETATM    1  C   UNL     1     -10.309   5.837  66.667  1.00  0.00    -0.300 C  
HETATM    2  C   UNL     1     -10.687   7.271  66.994  1.00  0.00    -0.336 C  
ENDROOT
BRANCH   2   3
HETATM    3  O   UNL     1      -9.911   7.680  68.126  1.00  0.00    -0.163 OA 
BRANCH   3   4
HETATM    4  C   UNL     1      -9.508   8.947  68.097  1.00  0.00    -0.143 A  
HETATM    5  N   UNL     1      -8.336   9.346  67.661  1.00  0.00    -0.118 NA 
HETATM    6  C   UNL     1      -8.346  10.702  67.818  1.00  0.00    -0.115 A  
HETATM    7  C   UNL     1      -9.583  11.172  68.301  1.00  0.00    -0.185 A  
HETATM    8  C   UNL     1      -9.808  12.567  68.409  1.00  0.00    -0.202 A  
HETATM    9  N   UNL     1     -10.266   9.994  68.576  1.00  0.00    -0.168 NA 
HETATM   10  C   UNL     1      -7.478  12.951  67.720  1.00  0.00    -0.136 A  
HETATM   11  C   UNL     1      -7.284  11.585  67.559  1.00  0.00    -0.111 A  
HETATM   12  C   UNL     1      -8.726  13.426  68.106  1.00  0.00    -0.179 A  
BRANCH   9  13
HETATM   13  C   UNL     1     -11.461   9.767  69.389  1.00  0.00     0.034 C  
BRANCH  13  14
HETATM   14  C   UNL     1     -11.230   8.808  70.530  1.00  0.00    -0.278 A  
HETATM   15  C   UNL     1     -11.568   6.665  71.601  1.00  0.00    -0.350 A  
HETATM   16  C   UNL     1     -10.316   6.759  72.232  1.00  0.00    -0.219 A  
HETATM   17  C   UNL     1     -10.180   9.050  71.417  1.00  0.00    -0.399 A  
HETATM   18  C   UNL     1     -11.993   7.655  70.706  1.00  0.00    -0.192 A  
HETATM   19  C   UNL     1      -9.715   8.028  72.243  1.00  0.00    -0.294 A  
BRANCH  16  20
HETATM   20  C   UNL     1      -9.575   5.561  72.727  1.00  0.00    -0.163 A  
HETATM   21  C   UNL     1      -9.943   4.985  73.967  1.00  0.00    -0.205 A  
HETATM   22  C   UNL     1      -8.430   5.011  72.075  1.00  0.00    -0.125 A  
HETATM   23  C   UNL     1      -9.243   3.915  74.534  1.00  0.00    -0.115 A  
HETATM   24  C   UNL     1      -7.780   3.889  72.637  1.00  0.00    -0.073 A  
HETATM   25  C   UNL     1      -8.173   3.352  73.859  1.00  0.00    -0.074 A  
BRANCH  22  26
HETATM   26  C   UNL     1      -7.799   5.544  70.860  1.00  0.00    -0.104 A  
HETATM   27  N   UNL     1      -8.175   5.330  69.611  1.00  0.00    -0.093 NA 
HETATM   28  H   UNL     1      -8.969   4.770  69.302  1.00  0.00     0.000 HD 
HETATM   29  N   UNL     1      -7.291   6.009  68.809  1.00  0.00    -0.083 NA 
HETATM   30  N   UNL     1      -6.364   6.615  69.534  1.00  0.00    -0.041 NA 
HETATM   31  N   UNL     1      -6.650   6.290  70.803  1.00  0.00    -0.051 NA 
ENDBRANCH  22  26
ENDBRANCH  16  20
ENDBRANCH  13  14
ENDBRANCH   9  13
BRANCH   8  32
HETATM   32  C   UNL     1     -11.036  13.191  68.956  1.00  0.00    -0.234 C  
HETATM   33  O   UNL     1     -11.653  12.733  69.904  1.00  0.00    -0.260 OA 
BRANCH  32  34
HETATM   34  O   UNL     1     -11.242  14.423  68.426  1.00  0.00    -0.252 OA 
BRANCH  34  35
HETATM   35  C   UNL     1     -11.747  15.359  69.390  1.00  0.00    -0.351 C  
HETATM   36  C   UNL     1     -10.703  15.402  70.507  1.00  0.00    -0.290 C  
BRANCH  35  37
HETATM   37  O   UNL     1     -11.808  16.695  68.890  1.00  0.00     0.006 OA 
BRANCH  37  38
HETATM   38  C   UNL     1     -10.828  17.052  68.031  1.00  0.00    -0.330 C  
HETATM   39  O   UNL     1     -10.874  16.990  66.815  1.00  0.00    -0.157 OA 
BRANCH  38  40
HETATM   40  O   UNL     1      -9.807  17.511  68.779  1.00  0.00    -0.309 OA 
BRANCH  40  41
HETATM   41  C   UNL     1      -9.345  18.881  68.773  1.00  0.00    -0.336 C  
HETATM   42  C   UNL     1      -7.843  19.726  66.346  1.00  0.00    -0.328 C  
HETATM   43  C   UNL     1      -7.818  18.833  68.686  1.00  0.00    -0.361 C  
HETATM   44  C   UNL     1      -7.343  18.611  67.254  1.00  0.00    -0.224 C  
HETATM   45  C   UNL     1      -9.363  19.856  66.370  1.00  0.00    -0.493 C  
HETATM   46  C   UNL     1      -9.958  19.876  67.781  1.00  0.00    -0.552 C  
ENDBRANCH  40  41
ENDBRANCH  38  40
ENDBRANCH  37  38
ENDBRANCH  35  37
ENDBRANCH  34  35
ENDBRANCH  32  34
ENDBRANCH   8  32
ENDBRANCH   3   4
ENDBRANCH   2   3
TORSDOF 13
ENDMDL
MODEL      229
REMARK 921   NORMALIZED FREE ENERGY PREDICTED BY IDOCK:   -4.55 KCAL/MOL
REMARK 922        TOTAL FREE ENERGY PREDICTED BY IDOCK:  -10.46 KCAL/MOL
REMARK 923 INTER-LIGAND FREE ENERGY PREDICTED BY IDOCK:   -9.10 KCAL/MOL
REMARK 924 INTRA-LIGAND FREE ENERGY PREDICTED BY IDOCK:   -1.36 KCAL/MOL
REMARK 927      BINDING AFFINITY PREDICTED BY RF-SCORE:    0.00 PKD
ROOT
HETATM    1  C   UNL     1     -13.219  14.587  71.246  1.00  0.00    -0.422 C  
HETATM    2  C   UNL     1     -12.193  14.534  70.129  1.00  0.00    -0.342 C  
ENDROOT
BRANCH   2   3
HETATM    3  O   UNL     1     -12.580  13.490  69.229  1.00  0.00    -0.044 OA 
BRANCH   3   4
HETATM    4  C   UNL     1     -12.037  12.303  69.484  1.00  0.00    -0.198 A  
HETATM    5  N   UNL     1     -12.084  11.696  70.647  1.00  0.00    -0.370 NA 
HETATM    6  C   UNL     1     -11.404  10.528  70.462  1.00  0.00    -0.314 A  
HETATM    7  C   UNL     1     -10.978  10.366  69.128  1.00  0.00    -0.241 A  
HETATM    8  C   UNL     1     -10.362   9.153  68.732  1.00  0.00    -0.235 A  
HETATM    9  N   UNL     1     -11.308  11.589  68.557  1.00  0.00    -0.250 NA 
HETATM   10  C   UNL     1     -10.458   8.393  71.069  1.00  0.00    -0.251 A  
HETATM   11  C   UNL     1     -11.116   9.559  71.438  1.00  0.00    -0.438 A  
HETATM   12  C   UNL     1     -10.119   8.189  69.737  1.00  0.00    -0.197 A  
BRANCH   9  13
HETATM   13  C   UNL     1     -10.855  12.195  67.304  1.00  0.00    -0.244 C  
BRANCH  13  14
HETATM   14  C   UNL     1     -10.227  13.553  67.495  1.00  0.00    -0.234 A  
HETATM   15  C   UNL     1      -8.484  14.978  68.382  1.00  0.00    -0.153 A  
HETATM   16  C   UNL     1      -8.654  15.883  67.320  1.00  0.00    -0.205 A  
HETATM   17  C   UNL     1     -10.623  14.606  66.669  1.00  0.00    -0.289 A  
HETATM   18  C   UNL     1      -9.223  13.789  68.433  1.00  0.00    -0.182 A  
HETATM   19  C   UNL     1      -9.832  15.749  66.567  1.00  0.00    -0.286 A  
BRANCH  16  20
HETATM   20  C   UNL     1      -7.585  16.835  66.897  1.00  0.00    -0.252 A  
HETATM   21  C   UNL     1      -6.274  16.349  66.677  1.00  0.00     0.187 A  
HETATM   22  C   UNL     1      -7.775  18.247  66.799  1.00  0.00    -0.247 A  
HETATM   23  C   UNL     1      -5.204  17.193  66.361  1.00  0.00    -0.128 A  
HETATM   24  C   UNL     1      -6.692  19.070  66.415  1.00  0.00    -0.223 A  
HETATM   25  C   UNL     1      -5.417  18.553  66.209  1.00  0.00    -0.179 A  
BRANCH  22  26
HETATM   26  C   UNL     1      -9.013  18.969  67.123  1.00  0.00    -0.287 A  
HETATM   27  N   UNL     1     -10.069  19.122  66.343  1.00  0.00    -0.389 NA 
HETATM   28  H   UNL     1     -10.188  18.752  65.400  1.00  0.00     0.000 HD 
HETATM   29  N   UNL     1     -10.976  19.876  67.047  1.00  0.00    -0.270 NA 
HETATM   30  N   UNL     1     -10.492  20.211  68.233  1.00  0.00    -0.318 NA 
HETATM   31  N   UNL     1      -9.258  19.689  68.263  1.00  0.00    -0.346 NA 
ENDBRANCH  22  26
ENDBRANCH  16  20
ENDBRANCH  13  14
ENDBRANCH   9  13
BRANCH   8  32
HETATM   32  C   UNL     1      -9.815   8.878  67.382  1.00  0.00    -0.193 C  
HETATM   33  O   UNL     1     -10.445   9.067  66.355  1.00  0.00    -0.215 OA 
BRANCH  32  34
HETATM   34  O   UNL     1      -8.484   8.618  67.433  1.00  0.00    -0.121 OA 
BRANCH  34  35
HETATM   35  C   UNL     1      -7.990   8.044  66.213  1.00  0.00    -0.105 C  
HETATM   36  C   UNL     1      -6.936   9.023  65.694  1.00  0.00    -0.080 C  
BRANCH  35  37
HETATM   37  O   UNL     1      -7.285   6.819  66.420  1.00  0.00    -0.069 OA 
BRANCH  37  38
HETATM   38  C   UNL     1      -6.815   6.610  67.670  1.00  0.00    -0.080 C  
HETATM   39  O   UNL     1      -5.735   6.968  68.106  1.00  0.00    -0.019 OA 
BRANCH  38  40
HETATM   40  O   UNL     1      -7.781   5.954  68.340  1.00  0.00    -0.091 OA 
BRANCH  40  41
HETATM   41  C   UNL     1      -7.593   4.685  69.007  1.00  0.00    -0.060 C  
HETATM   42  C   UNL     1      -8.875   4.430  71.680  1.00  0.00    -0.147 C  
HETATM   43  C   UNL     1      -6.850   4.978  70.313  1.00  0.00    -0.044 C  
HETATM   44  C   UNL     1      -7.799   5.469  71.401  1.00  0.00    -0.110 C  
HETATM   45  C   UNL     1      -9.671   4.067  70.430  1.00  0.00    -0.263 C  
HETATM   46  C   UNL     1      -8.796   3.759  69.211  1.00  0.00    -0.153 C  
ENDBRANCH  40  41
ENDBRANCH  38  40
ENDBRANCH  37  38
ENDBRANCH  35  37
ENDBRANCH  34  35
ENDBRANCH  32  34
ENDBRANCH   8  32
ENDBRANCH   3   4
ENDBRANCH   2   3
TORSDOF 13
ENDMDL
MODEL      230
REMARK 921   NORMALIZED FREE ENERGY PREDICTED BY IDOCK:   -4.54 KCAL/MOL
REMARK 922        TOTAL FREE ENERGY PREDICTED BY IDOCK:  -10.45 KCAL/MOL
REMARK 923 INTER-LIGAND FREE ENERGY PREDICTED BY IDOCK:   -7.72 KCAL/MOL
REMARK 924 INTRA-LIGAND FREE ENERGY PREDICTED BY IDOCK:   -2.73 KCAL/MOL
REMARK 927      BINDING AFFINITY PREDICTED BY RF-SCORE:    0.00 PKD
ROOT
HETATM    1  C   UNL     1     -10.452   4.605  74.087  1.00  0.00    -0.333 C  
HETATM    2  C   UNL     1      -9.842   4.939  72.737  1.00  0.00    -0.157 C  
ENDROOT
BRANCH   2   3
HETATM    3  O   UNL     1     -10.319   6.231  72.349  1.00  0.00    -0.186 OA 
BRANCH   3   4
HETATM    4  C   UNL     1      -9.402   7.024  71.801  1.00  0.00    -0.144 A  
HETATM    5  N   UNL     1      -8.371   7.523  72.443  1.00  0.00    -0.104 NA 
HETATM    6  C   UNL     1      -7.708   8.271  71.513  1.00  0.00    -0.098 A  
HETATM    7  C   UNL     1      -8.301   8.182  70.238  1.00  0.00    -0.124 A  
HETATM    8  C   UNL     1      -7.672   8.800  69.129  1.00  0.00    -0.093 A  
HETATM    9  N   UNL     1      -9.459   7.458  70.494  1.00  0.00    -0.162 NA 
HETATM   10  C   UNL     1      -5.983   9.725  70.659  1.00  0.00    -0.078 A  
HETATM   11  C   UNL     1      -6.571   9.066  71.731  1.00  0.00    -0.017 A  
HETATM   12  C   UNL     1      -6.510   9.564  69.383  1.00  0.00    -0.044 A  
BRANCH   9  13
HETATM   13  C   UNL     1     -10.665   7.293  69.683  1.00  0.00    -0.236 C  
BRANCH  13  14
HETATM   14  C   UNL     1     -10.542   6.201  68.650  1.00  0.00    -0.324 A  
HETATM   15  C   UNL     1     -10.450   5.458  66.350  1.00  0.00    -0.324 A  
HETATM   16  C   UNL     1      -9.647   4.363  66.713  1.00  0.00    -0.216 A  
HETATM   17  C   UNL     1     -10.062   4.950  69.040  1.00  0.00    -0.210 A  
HETATM   18  C   UNL     1     -10.840   6.406  67.304  1.00  0.00    -0.463 A  
HETATM   19  C   UNL     1      -9.599   4.050  68.081  1.00  0.00    -0.189 A  
BRANCH  16  20
HETATM   20  C   UNL     1      -8.762   3.657  65.740  1.00  0.00    -0.118 A  
HETATM   21  C   UNL     1      -9.347   2.847  64.736  1.00  0.00    -0.147 A  
HETATM   22  C   UNL     1      -7.337   3.659  65.818  1.00  0.00    -0.076 A  
HETATM   23  C   UNL     1      -8.581   2.091  63.843  1.00  0.00    -0.082 A  
HETATM   24  C   UNL     1      -6.586   2.938  64.863  1.00  0.00    -0.039 A  
HETATM   25  C   UNL     1      -7.199   2.153  63.891  1.00  0.00    -0.052 A  
BRANCH  22  26
HETATM   26  C   UNL     1      -6.538   4.314  66.863  1.00  0.00    -0.046 A  
HETATM   27  N   UNL     1      -6.184   5.587  66.910  1.00  0.00    -0.033 NA 
HETATM   28  H   UNL     1      -6.422   6.310  66.232  1.00  0.00     0.000 HD 
HETATM   29  N   UNL     1      -5.434   5.748  68.050  1.00  0.00    -0.008 NA 
HETATM   30  N   UNL     1      -5.298   4.598  68.692  1.00  0.00    -0.010 NA 
HETATM   31  N   UNL     1      -5.942   3.700  67.934  1.00  0.00    -0.027 NA 
ENDBRANCH  22  26
ENDBRANCH  16  20
ENDBRANCH  13  14
ENDBRANCH   9  13
BRANCH   8  32
HETATM   32  C   UNL     1      -8.218   8.834  67.751  1.00  0.00    -0.111 C  
HETATM   33  O   UNL     1      -7.746   8.191  66.829  1.00  0.00    -0.092 OA 
BRANCH  32  34
HETATM   34  O   UNL     1      -9.415   9.473  67.711  1.00  0.00    -0.131 OA 
BRANCH  34  35
HETATM   35  C   UNL     1      -9.477  10.457  66.668  1.00  0.00    -0.165 C  
HETATM   36  C   UNL     1      -9.858   9.691  65.401  1.00  0.00    -0.322 C  
BRANCH  35  37
HETATM   37  O   UNL     1     -10.529  11.404  66.858  1.00  0.00    -0.221 OA 
BRANCH  37  38
HETATM   38  C   UNL     1     -10.364  12.603  66.258  1.00  0.00    -0.252 C  
HETATM   39  O   UNL     1     -10.521  12.848  65.075  1.00  0.00    -0.298 OA 
BRANCH  38  40
HETATM   40  O   UNL     1     -10.019  13.473  67.225  1.00  0.00    -0.230 OA 
BRANCH  40  41
HETATM   41  C   UNL     1     -10.483  14.841  67.293  1.00  0.00    -0.264 C  
HETATM   42  C   UNL     1     -10.957  15.908  70.031  1.00  0.00    -0.361 C  
HETATM   43  C   UNL     1     -11.857  14.810  67.967  1.00  0.00    -0.324 C  
HETATM   44  C   UNL     1     -11.736  14.720  69.485  1.00  0.00    -0.358 C  
HETATM   45  C   UNL     1      -9.569  16.027  69.411  1.00  0.00    -0.236 C  
HETATM   46  C   UNL     1      -9.564  15.917  67.883  1.00  0.00    -0.215 C  
ENDBRANCH  40  41
ENDBRANCH  38  40
ENDBRANCH  37  38
ENDBRANCH  35  37
ENDBRANCH  34  35
ENDBRANCH  32  34
ENDBRANCH   8  32
ENDBRANCH   3   4
ENDBRANCH   2   3
TORSDOF 13
ENDMDL
MODEL      231
REMARK 921   NORMALIZED FREE ENERGY PREDICTED BY IDOCK:   -4.47 KCAL/MOL
REMARK 922        TOTAL FREE ENERGY PREDICTED BY IDOCK:  -10.31 KCAL/MOL
REMARK 923 INTER-LIGAND FREE ENERGY PREDICTED BY IDOCK:   -9.01 KCAL/MOL
REMARK 924 INTRA-LIGAND FREE ENERGY PREDICTED BY IDOCK:   -1.30 KCAL/MOL
REMARK 927      BINDING AFFINITY PREDICTED BY RF-SCORE:    0.00 PKD
ROOT
HETATM    1  C   UNL     1      -5.455   7.154  66.411  1.00  0.00    -0.023 C  
HETATM    2  C   UNL     1      -6.270   7.868  67.475  1.00  0.00    -0.051 C  
ENDROOT
BRANCH   2   3
HETATM    3  O   UNL     1      -7.423   7.067  67.753  1.00  0.00    -0.094 OA 
BRANCH   3   4
HETATM    4  C   UNL     1      -8.199   7.527  68.731  1.00  0.00    -0.129 A  
HETATM    5  N   UNL     1      -8.054   7.227  70.001  1.00  0.00    -0.127 NA 
HETATM    6  C   UNL     1      -9.053   7.903  70.638  1.00  0.00    -0.153 A  
HETATM    7  C   UNL     1      -9.803   8.703  69.753  1.00  0.00    -0.183 A  
HETATM    8  C   UNL     1     -10.805   9.564  70.264  1.00  0.00    -0.319 A  
HETATM    9  N   UNL     1      -9.290   8.341  68.513  1.00  0.00    -0.139 NA 
HETATM   10  C   UNL     1     -10.385   8.647  72.508  1.00  0.00    -0.229 A  
HETATM   11  C   UNL     1      -9.364   7.850  72.007  1.00  0.00    -0.217 A  
HETATM   12  C   UNL     1     -11.065   9.506  71.653  1.00  0.00    -0.336 A  
BRANCH   9  13
HETATM   13  C   UNL     1      -9.835   8.552  67.171  1.00  0.00    -0.206 C  
BRANCH  13  14
HETATM   14  C   UNL     1      -9.485   9.900  66.593  1.00  0.00    -0.220 A  
HETATM   15  C   UNL     1      -9.820  11.665  64.972  1.00  0.00    -0.280 A  
HETATM   16  C   UNL     1      -9.376  12.626  65.895  1.00  0.00    -0.014 A  
HETATM   17  C   UNL     1      -8.727  10.789  67.357  1.00  0.00    -0.126 A  
HETATM   18  C   UNL     1      -9.934  10.318  65.342  1.00  0.00    -0.371 A  
HETATM   19  C   UNL     1      -8.692  12.142  67.022  1.00  0.00    -0.190 A  
BRANCH  16  20
HETATM   20  C   UNL     1      -9.736  14.071  65.787  1.00  0.00    -0.222 A  
HETATM   21  C   UNL     1     -10.699  14.472  64.829  1.00  0.00    -0.414 A  
HETATM   22  C   UNL     1      -9.088  15.108  66.524  1.00  0.00    -0.328 A  
HETATM   23  C   UNL     1     -11.027  15.815  64.613  1.00  0.00    -0.333 A  
HETATM   24  C   UNL     1      -9.484  16.451  66.332  1.00  0.00    -0.320 A  
HETATM   25  C   UNL     1     -10.435  16.804  65.379  1.00  0.00    -0.212 A  
BRANCH  22  26
HETATM   26  C   UNL     1      -7.970  14.923  67.458  1.00  0.00    -0.178 A  
HETATM   27  N   UNL     1      -8.020  14.984  68.778  1.00  0.00    -0.152 NA 
HETATM   28  H   UNL     1      -8.847  15.159  69.348  1.00  0.00     0.000 HD 
HETATM   29  N   UNL     1      -6.743  14.766  69.234  1.00  0.00    -0.126 NA 
HETATM   30  N   UNL     1      -5.903  14.597  68.224  1.00  0.00    -0.107 NA 
HETATM   31  N   UNL     1      -6.653  14.740  67.123  1.00  0.00    -0.167 NA 
ENDBRANCH  22  26
ENDBRANCH  16  20
ENDBRANCH  13  14
ENDBRANCH   9  13
BRANCH   8  32
HETATM   32  C   UNL     1     -11.703  10.409  69.441  1.00  0.00    -0.160 C  
HETATM   33  O   UNL     1     -12.315   9.988  68.474  1.00  0.00     0.646 OA 
BRANCH  32  34
HETATM   34  O   UNL     1     -11.923  11.613  70.028  1.00  0.00    -0.317 OA 
BRANCH  34  35
HETATM   35  C   UNL     1     -11.193  12.674  69.394  1.00  0.00    -0.139 C  
HETATM   36  C   UNL     1     -11.949  12.978  68.100  1.00  0.00    -0.322 C  
BRANCH  35  37
HETATM   37  O   UNL     1     -11.228  13.894  70.137  1.00  0.00    -0.079 OA 
BRANCH  37  38
HETATM   38  C   UNL     1     -11.737  14.966  69.491  1.00  0.00    -0.320 C  
HETATM   39  O   UNL     1     -11.142  15.693  68.715  1.00  0.00    -0.269 OA 
BRANCH  38  40
HETATM   40  O   UNL     1     -13.031  15.055  69.852  1.00  0.00    -0.085 OA 
BRANCH  40  41
HETATM   41  C   UNL     1     -13.489  15.581  71.119  1.00  0.00    -0.439 C  
HETATM   42  C   UNL     1     -12.625  14.069  73.532  1.00  0.00     0.578 C  
HETATM   43  C   UNL     1     -14.349  14.493  71.765  1.00  0.00    -0.609 C  
HETATM   44  C   UNL     1     -13.493  13.435  72.454  1.00  0.00    -0.685 C  
HETATM   45  C   UNL     1     -11.731  15.176  72.983  1.00  0.00    -0.394 C  
HETATM   46  C   UNL     1     -12.471  16.181  72.094  1.00  0.00    -0.457 C  
ENDBRANCH  40  41
ENDBRANCH  38  40
ENDBRANCH  37  38
ENDBRANCH  35  37
ENDBRANCH  34  35
ENDBRANCH  32  34
ENDBRANCH   8  32
ENDBRANCH   3   4
ENDBRANCH   2   3
TORSDOF 13
ENDMDL
MODEL      232
REMARK 921   NORMALIZED FREE ENERGY PREDICTED BY IDOCK:   -4.29 KCAL/MOL
REMARK 922        TOTAL FREE ENERGY PREDICTED BY IDOCK:  -10.01 KCAL/MOL
REMARK 923 INTER-LIGAND FREE ENERGY PREDICTED BY IDOCK:   -8.60 KCAL/MOL
REMARK 924 INTRA-LIGAND FREE ENERGY PREDICTED BY IDOCK:   -1.41 KCAL/MOL
REMARK 927      BINDING AFFINITY PREDICTED BY RF-SCORE:    0.00 PKD
ROOT
HETATM    1  C   UNL     1      -5.130  11.636  71.754  1.00  0.00     0.064 C  
HETATM    2  C   UNL     1      -5.650  10.895  70.535  1.00  0.00    -0.116 C  
ENDROOT
BRANCH   2   3
HETATM    3  O   UNL     1      -5.554   9.492  70.802  1.00  0.00    -0.045 OA 
BRANCH   3   4
HETATM    4  C   UNL     1      -6.569   8.986  71.497  1.00  0.00    -0.064 A  
HETATM    5  N   UNL     1      -6.471   8.501  72.713  1.00  0.00    -0.127 NA 
HETATM    6  C   UNL     1      -7.733   8.091  73.030  1.00  0.00    -0.144 A  
HETATM    7  C   UNL     1      -8.661   8.391  72.014  1.00  0.00    -0.202 A  
HETATM    8  C   UNL     1     -10.040   8.144  72.228  1.00  0.00    -0.338 A  
HETATM    9  N   UNL     1      -7.846   8.865  70.993  1.00  0.00    -0.126 NA 
HETATM   10  C   UNL     1      -9.475   7.135  74.399  1.00  0.00    -0.167 A  
HETATM   11  C   UNL     1      -8.133   7.436  74.207  1.00  0.00    -0.204 A  
HETATM   12  C   UNL     1     -10.406   7.512  73.439  1.00  0.00    -0.405 A  
BRANCH   9  13
HETATM   13  C   UNL     1      -8.129   9.042  69.568  1.00  0.00    -0.105 C  
BRANCH  13  14
HETATM   14  C   UNL     1      -7.907   7.790  68.758  1.00  0.00    -0.123 A  
HETATM   15  C   UNL     1      -8.688   5.693  67.838  1.00  0.00    -0.107 A  
HETATM   16  C   UNL     1      -7.809   5.820  66.748  1.00  0.00    -0.101 A  
HETATM   17  C   UNL     1      -6.817   7.729  67.889  1.00  0.00    -0.068 A  
HETATM   18  C   UNL     1      -8.780   6.704  68.802  1.00  0.00    -0.128 A  
HETATM   19  C   UNL     1      -6.781   6.766  66.880  1.00  0.00    -0.056 A  
BRANCH  16  20
HETATM   20  C   UNL     1      -8.032   5.114  65.451  1.00  0.00    -0.110 A  
HETATM   21  C   UNL     1      -8.073   5.868  64.253  1.00  0.00    -0.119 A  
HETATM   22  C   UNL     1      -8.314   3.719  65.345  1.00  0.00    -0.105 A  
HETATM   23  C   UNL     1      -8.359   5.289  63.012  1.00  0.00    -0.111 A  
HETATM   24  C   UNL     1      -8.536   3.148  64.072  1.00  0.00    -0.089 A  
HETATM   25  C   UNL     1      -8.570   3.924  62.918  1.00  0.00    -0.089 A  
BRANCH  22  26
HETATM   26  C   UNL     1      -8.460   2.788  66.472  1.00  0.00    -0.103 A  
HETATM   27  N   UNL     1      -9.590   2.316  66.970  1.00  0.00    -0.385 NA 
HETATM   28  H   UNL     1     -10.533   2.520  66.639  1.00  0.00     0.000 HD 
HETATM   29  N   UNL     1      -9.250   1.497  68.019  1.00  0.00    -0.152 NA 
HETATM   30  N   UNL     1      -7.938   1.473  68.193  1.00  0.00    -0.056 NA 
HETATM   31  N   UNL     1      -7.450   2.308  67.266  1.00  0.00    -0.060 NA 
ENDBRANCH  22  26
ENDBRANCH  16  20
ENDBRANCH  13  14
ENDBRANCH   9  13
BRANCH   8  32
HETATM   32  C   UNL     1     -11.109   8.355  71.223  1.00  0.00    -0.255 C  
HETATM   33  O   UNL     1     -11.456   7.499  70.427  1.00  0.00    -0.269 OA 
BRANCH  32  34
HETATM   34  O   UNL     1     -11.783   9.510  71.456  1.00  0.00    -0.355 OA 
BRANCH  34  35
HETATM   35  C   UNL     1     -12.147  10.187  70.244  1.00  0.00    -0.204 C  
HETATM   36  C   UNL     1     -12.387  11.644  70.642  1.00  0.00    -0.437 C  
BRANCH  35  37
HETATM   37  O   UNL     1     -11.082  10.235  69.293  1.00  0.00    -0.227 OA 
BRANCH  37  38
HETATM   38  C   UNL     1     -11.310  10.977  68.186  1.00  0.00    -0.307 C  
HETATM   39  O   UNL     1     -12.220  11.770  68.020  1.00  0.00    -0.518 OA 
BRANCH  38  40
HETATM   40  O   UNL     1     -10.321  10.687  67.319  1.00  0.00    -0.198 OA 
BRANCH  40  41
HETATM   41  C   UNL     1      -9.759  11.631  66.379  1.00  0.00    -0.214 C  
HETATM   42  C   UNL     1     -10.152  10.978  63.502  1.00  0.00    -0.428 C  
HETATM   43  C   UNL     1      -8.719  10.869  65.554  1.00  0.00    -0.178 C  
HETATM   44  C   UNL     1      -9.371  10.063  64.435  1.00  0.00    -0.348 C  
HETATM   45  C   UNL     1     -11.214  11.789  64.238  1.00  0.00    -0.414 C  
HETATM   46  C   UNL     1     -10.698  12.473  65.508  1.00  0.00    -0.303 C  
ENDBRANCH  40  41
ENDBRANCH  38  40
ENDBRANCH  37  38
ENDBRANCH  35  37
ENDBRANCH  34  35
ENDBRANCH  32  34
ENDBRANCH   8  32
ENDBRANCH   3   4
ENDBRANCH   2   3
TORSDOF 13
ENDMDL
MODEL      233
REMARK 921   NORMALIZED FREE ENERGY PREDICTED BY IDOCK:   -4.28 KCAL/MOL
REMARK 922        TOTAL FREE ENERGY PREDICTED BY IDOCK:   -9.99 KCAL/MOL
REMARK 923 INTER-LIGAND FREE ENERGY PREDICTED BY IDOCK:   -7.96 KCAL/MOL
REMARK 924 INTRA-LIGAND FREE ENERGY PREDICTED BY IDOCK:   -2.03 KCAL/MOL
REMARK 927      BINDING AFFINITY PREDICTED BY RF-SCORE:    0.00 PKD
ROOT
HETATM    1  C   UNL     1      -5.128  12.291  71.641  1.00  0.00    -0.041 C  
HETATM    2  C   UNL     1      -5.729  11.572  70.446  1.00  0.00    -0.155 C  
ENDROOT
BRANCH   2   3
HETATM    3  O   UNL     1      -5.532  10.167  70.636  1.00  0.00    -0.056 OA 
BRANCH   3   4
HETATM    4  C   UNL     1      -6.488   9.559  71.334  1.00  0.00     0.053 A  
HETATM    5  N   UNL     1      -6.308   8.986  72.501  1.00  0.00    -0.280 NA 
HETATM    6  C   UNL     1      -7.534   8.491  72.841  1.00  0.00     0.007 A  
HETATM    7  C   UNL     1      -8.523   8.824  71.894  1.00  0.00    -0.081 A  
HETATM    8  C   UNL     1      -9.877   8.493  72.150  1.00  0.00    -0.388 A  
HETATM    9  N   UNL     1      -7.782   9.416  70.879  1.00  0.00    -0.285 NA 
HETATM   10  C   UNL     1      -9.161   7.346  74.205  1.00  0.00    -0.250 A  
HETATM   11  C   UNL     1      -7.845   7.726  73.978  1.00  0.00    -0.220 A  
HETATM   12  C   UNL     1     -10.155   7.751  73.322  1.00  0.00    -0.374 A  
BRANCH   9  13
HETATM   13  C   UNL     1      -8.141   9.690  69.488  1.00  0.00    -0.129 C  
BRANCH  13  14
HETATM   14  C   UNL     1      -7.908   8.516  68.571  1.00  0.00    -0.108 A  
HETATM   15  C   UNL     1      -8.669   6.502  67.466  1.00  0.00    -0.114 A  
HETATM   16  C   UNL     1      -7.788   6.732  66.395  1.00  0.00    -0.104 A  
HETATM   17  C   UNL     1      -6.814   8.540  67.703  1.00  0.00    -0.071 A  
HETATM   18  C   UNL     1      -8.772   7.424  68.516  1.00  0.00    -0.127 A  
HETATM   19  C   UNL     1      -6.768   7.671  66.614  1.00  0.00    -0.062 A  
BRANCH  16  20
HETATM   20  C   UNL     1      -8.002   6.142  65.040  1.00  0.00    -0.123 A  
HETATM   21  C   UNL     1      -7.955   6.987  63.904  1.00  0.00    -0.069 A  
HETATM   22  C   UNL     1      -8.359   4.778  64.816  1.00  0.00    -0.132 A  
HETATM   23  C   UNL     1      -8.226   6.522  62.613  1.00  0.00    -0.022 A  
HETATM   24  C   UNL     1      -8.565   4.321  63.495  1.00  0.00    -0.110 A  
HETATM   25  C   UNL     1      -8.511   5.183  62.405  1.00  0.00    -0.114 A  
BRANCH  22  26
HETATM   26  C   UNL     1      -8.600   3.774  65.861  1.00  0.00    -0.113 A  
HETATM   27  N   UNL     1      -9.741   3.537  66.486  1.00  0.00    -0.404 NA 
HETATM   28  H   UNL     1     -10.630   4.011  66.328  1.00  0.00     0.000 HD 
HETATM   29  N   UNL     1      -9.498   2.530  67.387  1.00  0.00    -0.103 NA 
HETATM   30  N   UNL     1      -8.228   2.158  67.349  1.00  0.00    -0.066 NA 
HETATM   31  N   UNL     1      -7.660   2.959  66.437  1.00  0.00    -0.075 NA 
ENDBRANCH  22  26
ENDBRANCH  16  20
ENDBRANCH  13  14
ENDBRANCH   9  13
BRANCH   8  32
HETATM   32  C   UNL     1     -11.002   8.730  71.215  1.00  0.00    -0.275 C  
HETATM   33  O   UNL     1     -11.228   8.022  70.248  1.00  0.00    -0.258 OA 
BRANCH  32  34
HETATM   34  O   UNL     1     -11.855   9.670  71.697  1.00  0.00    -0.379 OA 
BRANCH  34  35
HETATM   35  C   UNL     1     -12.366  10.528  70.666  1.00  0.00    -0.356 C  
HETATM   36  C   UNL     1     -13.051  11.685  71.395  1.00  0.00    -0.342 C  
BRANCH  35  37
HETATM   37  O   UNL     1     -11.335  11.140  69.890  1.00  0.00    -0.273 OA 
BRANCH  37  38
HETATM   38  C   UNL     1     -11.730  11.734  68.743  1.00  0.00    -0.329 C  
HETATM   39  O   UNL     1     -12.160  11.175  67.749  1.00  0.00    -0.606 OA 
BRANCH  38  40
HETATM   40  O   UNL     1     -11.580  13.060  68.924  1.00  0.00    -0.269 OA 
BRANCH  40  41
HETATM   41  C   UNL     1     -10.342  13.692  69.323  1.00  0.00     0.170 C  
HETATM   42  C   UNL     1      -9.949  16.481  68.360  1.00  0.00    -0.250 C  
HETATM   43  C   UNL     1      -9.580  14.025  68.038  1.00  0.00    -0.217 C  
HETATM   44  C   UNL     1     -10.093  15.310  67.398  1.00  0.00    -0.232 C  
HETATM   45  C   UNL     1     -10.674  16.239  69.681  1.00  0.00    -0.338 C  
HETATM   46  C   UNL     1     -10.383  14.870  70.303  1.00  0.00     0.108 C  
ENDBRANCH  40  41
ENDBRANCH  38  40
ENDBRANCH  37  38
ENDBRANCH  35  37
ENDBRANCH  34  35
ENDBRANCH  32  34
ENDBRANCH   8  32
ENDBRANCH   3   4
ENDBRANCH   2   3
TORSDOF 13
ENDMDL
MODEL      234
REMARK 921   NORMALIZED FREE ENERGY PREDICTED BY IDOCK:   -4.22 KCAL/MOL
REMARK 922        TOTAL FREE ENERGY PREDICTED BY IDOCK:   -9.87 KCAL/MOL
REMARK 923 INTER-LIGAND FREE ENERGY PREDICTED BY IDOCK:   -8.81 KCAL/MOL
REMARK 924 INTRA-LIGAND FREE ENERGY PREDICTED BY IDOCK:   -1.06 KCAL/MOL
REMARK 927      BINDING AFFINITY PREDICTED BY RF-SCORE:    0.00 PKD
ROOT
HETATM    1  C   UNL     1     -12.054  13.262  63.193  1.00  0.00    -0.224 C  
HETATM    2  C   UNL     1     -11.294  11.981  63.487  1.00  0.00    -0.442 C  
ENDROOT
BRANCH   2   3
HETATM    3  O   UNL     1     -10.344  12.264  64.520  1.00  0.00    -0.286 OA 
BRANCH   3   4
HETATM    4  C   UNL     1      -9.950  11.204  65.221  1.00  0.00    -0.260 A  
HETATM    5  N   UNL     1      -9.081  10.314  64.802  1.00  0.00    -0.199 NA 
HETATM    6  C   UNL     1      -8.981   9.414  65.822  1.00  0.00    -0.186 A  
HETATM    7  C   UNL     1      -9.755   9.786  66.939  1.00  0.00    -0.192 A  
HETATM    8  C   UNL     1      -9.674   9.027  68.132  1.00  0.00    -0.172 A  
HETATM    9  N   UNL     1     -10.454  10.890  66.465  1.00  0.00    -0.251 NA 
HETATM   10  C   UNL     1      -8.187   7.447  66.973  1.00  0.00    -0.121 A  
HETATM   11  C   UNL     1      -8.224   8.230  65.826  1.00  0.00    -0.123 A  
HETATM   12  C   UNL     1      -8.875   7.861  68.108  1.00  0.00    -0.125 A  
BRANCH   9  13
HETATM   13  C   UNL     1     -11.648  11.548  66.998  1.00  0.00    -0.122 C  
BRANCH  13  14
HETATM   14  C   UNL     1     -11.401  12.975  67.419  1.00  0.00    -0.347 A  
HETATM   15  C   UNL     1     -10.023  14.675  68.450  1.00  0.00    -0.227 A  
HETATM   16  C   UNL     1     -10.575  15.660  67.613  1.00  0.00    -0.294 A  
HETATM   17  C   UNL     1     -12.180  13.990  66.860  1.00  0.00    -0.415 A  
HETATM   18  C   UNL     1     -10.389  13.330  68.308  1.00  0.00    -0.252 A  
HETATM   19  C   UNL     1     -11.757  15.317  66.939  1.00  0.00     0.010 A  
BRANCH  16  20
HETATM   20  C   UNL     1      -9.878  16.947  67.320  1.00  0.00    -0.265 A  
HETATM   21  C   UNL     1     -10.568  17.960  66.610  1.00  0.00    -0.243 A  
HETATM   22  C   UNL     1      -8.503  17.191  67.620  1.00  0.00    -0.204 A  
HETATM   23  C   UNL     1      -9.954  19.157  66.226  1.00  0.00    -0.462 A  
HETATM   24  C   UNL     1      -7.926  18.435  67.278  1.00  0.00    -0.239 A  
HETATM   25  C   UNL     1      -8.638  19.405  66.579  1.00  0.00    -0.363 A  
BRANCH  22  26
HETATM   26  C   UNL     1      -7.574  16.225  68.220  1.00  0.00    -0.153 A  
HETATM   27  N   UNL     1      -7.162  16.195  69.476  1.00  0.00    -0.195 NA 
HETATM   28  H   UNL     1      -7.437  16.835  70.222  1.00  0.00     0.000 HD 
HETATM   29  N   UNL     1      -6.293  15.137  69.584  1.00  0.00    -0.135 NA 
HETATM   30  N   UNL     1      -6.142  14.530  68.418  1.00  0.00    -0.093 NA 
HETATM   31  N   UNL     1      -6.898  15.230  67.562  1.00  0.00    -0.184 NA 
ENDBRANCH  22  26
ENDBRANCH  16  20
ENDBRANCH  13  14
ENDBRANCH   9  13
BRANCH   8  32
HETATM   32  C   UNL     1     -10.477   9.274  69.354  1.00  0.00    -0.219 C  
HETATM   33  O   UNL     1     -11.449  10.010  69.377  1.00  0.00    -0.185 OA 
BRANCH  32  34
HETATM   34  O   UNL     1     -10.134   8.418  70.350  1.00  0.00    -0.184 OA 
BRANCH  34  35
HETATM   35  C   UNL     1     -11.275   7.936  71.076  1.00  0.00    -0.269 C  
HETATM   36  C   UNL     1     -11.906   6.863  70.188  1.00  0.00    -0.266 C  
BRANCH  35  37
HETATM   37  O   UNL     1     -10.920   7.257  72.281  1.00  0.00    -0.229 OA 
BRANCH  37  38
HETATM   38  C   UNL     1      -9.729   7.593  72.824  1.00  0.00    -0.205 C  
HETATM   39  O   UNL     1      -9.499   8.567  73.518  1.00  0.00     0.012 OA 
BRANCH  38  40
HETATM   40  O   UNL     1      -8.859   6.629  72.469  1.00  0.00    -0.129 OA 
BRANCH  40  41
HETATM   41  C   UNL     1      -7.595   6.390  73.129  1.00  0.00    -0.094 C  
HETATM   42  C   UNL     1      -5.180   7.354  71.681  1.00  0.00    -0.035 C  
HETATM   43  C   UNL     1      -6.773   5.492  72.201  1.00  0.00    -0.066 C  
HETATM   44  C   UNL     1      -6.102   6.296  71.092  1.00  0.00    -0.032 C  
HETATM   45  C   UNL     1      -5.911   8.298  72.630  1.00  0.00    -0.065 C  
HETATM   46  C   UNL     1      -6.788   7.580  73.660  1.00  0.00    -0.084 C  
ENDBRANCH  40  41
ENDBRANCH  38  40
ENDBRANCH  37  38
ENDBRANCH  35  37
ENDBRANCH  34  35
ENDBRANCH  32  34
ENDBRANCH   8  32
ENDBRANCH   3   4
ENDBRANCH   2   3
TORSDOF 13
ENDMDL
MODEL      235
REMARK 921   NORMALIZED FREE ENERGY PREDICTED BY IDOCK:   -4.21 KCAL/MOL
REMARK 922        TOTAL FREE ENERGY PREDICTED BY IDOCK:   -9.85 KCAL/MOL
REMARK 923 INTER-LIGAND FREE ENERGY PREDICTED BY IDOCK:   -7.82 KCAL/MOL
REMARK 924 INTRA-LIGAND FREE ENERGY PREDICTED BY IDOCK:   -2.03 KCAL/MOL
REMARK 927      BINDING AFFINITY PREDICTED BY RF-SCORE:    0.00 PKD
ROOT
HETATM    1  C   UNL     1      -7.719   8.278  72.992  1.00  0.00    -0.180 C  
HETATM    2  C   UNL     1      -8.374   7.067  73.632  1.00  0.00    -0.123 C  
ENDROOT
BRANCH   2   3
HETATM    3  O   UNL     1      -8.448   6.035  72.643  1.00  0.00    -0.119 OA 
BRANCH   3   4
HETATM    4  C   UNL     1      -7.895   6.343  71.473  1.00  0.00    -0.101 A  
HETATM    5  N   UNL     1      -6.603   6.365  71.242  1.00  0.00    -0.050 NA 
HETATM    6  C   UNL     1      -6.487   6.733  69.933  1.00  0.00    -0.043 A  
HETATM    7  C   UNL     1      -7.741   6.879  69.308  1.00  0.00    -0.105 A  
HETATM    8  C   UNL     1      -7.805   7.141  67.917  1.00  0.00    -0.114 A  
HETATM    9  N   UNL     1      -8.625   6.730  70.369  1.00  0.00    -0.145 NA 
HETATM   10  C   UNL     1      -5.349   7.283  67.878  1.00  0.00    -0.024 A  
HETATM   11  C   UNL     1      -5.294   6.966  69.229  1.00  0.00    -0.014 A  
HETATM   12  C   UNL     1      -6.581   7.336  67.236  1.00  0.00    -0.063 A  
BRANCH   9  13
HETATM   13  C   UNL     1     -10.042   7.082  70.471  1.00  0.00    -0.191 C  
BRANCH  13  14
HETATM   14  C   UNL     1     -10.298   8.561  70.327  1.00  0.00    -0.218 A  
HETATM   15  C   UNL     1      -9.641  10.765  69.574  1.00  0.00     0.023 A  
HETATM   16  C   UNL     1     -10.987  11.138  69.422  1.00  0.00    -0.298 A  
HETATM   17  C   UNL     1     -11.594   9.046  70.513  1.00  0.00    -0.209 A  
HETATM   18  C   UNL     1      -9.299   9.463  69.963  1.00  0.00    -0.253 A  
HETATM   19  C   UNL     1     -11.938  10.314  70.044  1.00  0.00    -0.273 A  
BRANCH  16  20
HETATM   20  C   UNL     1     -11.416  12.250  68.523  1.00  0.00    -0.349 A  
HETATM   21  C   UNL     1     -11.374  12.060  67.120  1.00  0.00    -0.396 A  
HETATM   22  C   UNL     1     -11.773  13.552  68.988  1.00  0.00    -0.370 A  
HETATM   23  C   UNL     1     -11.680  13.082  66.216  1.00  0.00    -0.440 A  
HETATM   24  C   UNL     1     -12.140  14.548  68.054  1.00  0.00    -0.233 A  
HETATM   25  C   UNL     1     -12.085  14.322  66.683  1.00  0.00    -0.448 A  
BRANCH  22  26
HETATM   26  C   UNL     1     -11.743  14.000  70.387  1.00  0.00    -0.222 A  
HETATM   27  N   UNL     1     -12.359  13.438  71.413  1.00  0.00    -0.294 NA 
HETATM   28  H   UNL     1     -12.942  12.601  71.389  1.00  0.00     0.000 HD 
HETATM   29  N   UNL     1     -12.064  14.199  72.517  1.00  0.00     0.134 NA 
HETATM   30  N   UNL     1     -11.301  15.230  72.191  1.00  0.00    -0.413 NA 
HETATM   31  N   UNL     1     -11.139  15.134  70.864  1.00  0.00    -0.283 NA 
ENDBRANCH  22  26
ENDBRANCH  16  20
ENDBRANCH  13  14
ENDBRANCH   9  13
BRANCH   8  32
HETATM   32  C   UNL     1      -9.052   7.375  67.151  1.00  0.00    -0.130 C  
HETATM   33  O   UNL     1      -9.832   6.486  66.856  1.00  0.00    -0.149 OA 
BRANCH  32  34
HETATM   34  O   UNL     1      -9.314   8.702  67.030  1.00  0.00    -0.146 OA 
BRANCH  34  35
HETATM   35  C   UNL     1      -8.529   9.324  66.002  1.00  0.00    -0.136 C  
HETATM   36  C   UNL     1      -9.378   9.248  64.732  1.00  0.00    -0.080 C  
BRANCH  35  37
HETATM   37  O   UNL     1      -8.325  10.720  66.226  1.00  0.00    -0.149 OA 
BRANCH  37  38
HETATM   38  C   UNL     1      -7.370  11.043  67.126  1.00  0.00    -0.116 C  
HETATM   39  O   UNL     1      -6.390  10.378  67.411  1.00  0.00    -0.057 OA 
BRANCH  38  40
HETATM   40  O   UNL     1      -7.700  12.250  67.621  1.00  0.00    -0.123 OA 
BRANCH  40  41
HETATM   41  C   UNL     1      -6.881  13.435  67.492  1.00  0.00    -0.144 C  
HETATM   42  C   UNL     1      -7.465  15.623  69.423  1.00  0.00    -0.221 C  
HETATM   43  C   UNL     1      -7.827  14.594  67.168  1.00  0.00    -0.155 C  
HETATM   44  C   UNL     1      -8.504  15.134  68.424  1.00  0.00    -0.157 C  
HETATM   45  C   UNL     1      -6.467  14.534  69.804  1.00  0.00    -0.154 C  
HETATM   46  C   UNL     1      -5.885  13.784  68.602  1.00  0.00    -0.087 C  
ENDBRANCH  40  41
ENDBRANCH  38  40
ENDBRANCH  37  38
ENDBRANCH  35  37
ENDBRANCH  34  35
ENDBRANCH  32  34
ENDBRANCH   8  32
ENDBRANCH   3   4
ENDBRANCH   2   3
TORSDOF 13
ENDMDL
MODEL      236
REMARK 921   NORMALIZED FREE ENERGY PREDICTED BY IDOCK:   -4.20 KCAL/MOL
REMARK 922        TOTAL FREE ENERGY PREDICTED BY IDOCK:   -9.84 KCAL/MOL
REMARK 923 INTER-LIGAND FREE ENERGY PREDICTED BY IDOCK:   -6.72 KCAL/MOL
REMARK 924 INTRA-LIGAND FREE ENERGY PREDICTED BY IDOCK:   -3.12 KCAL/MOL
REMARK 927      BINDING AFFINITY PREDICTED BY RF-SCORE:    0.00 PKD
ROOT
HETATM    1  C   UNL     1     -12.022  13.202  66.456  1.00  0.00    -0.459 C  
HETATM    2  C   UNL     1     -11.642  11.934  67.199  1.00  0.00    -0.290 C  
ENDROOT
BRANCH   2   3
HETATM    3  O   UNL     1     -10.416  11.451  66.641  1.00  0.00    -0.225 OA 
BRANCH   3   4
HETATM    4  C   UNL     1      -9.335  11.686  67.379  1.00  0.00    -0.168 A  
HETATM    5  N   UNL     1      -8.729  12.847  67.465  1.00  0.00    -0.179 NA 
HETATM    6  C   UNL     1      -7.681  12.634  68.313  1.00  0.00    -0.135 A  
HETATM    7  C   UNL     1      -7.670  11.322  68.827  1.00  0.00    -0.138 A  
HETATM    8  C   UNL     1      -6.720  10.965  69.816  1.00  0.00    -0.144 A  
HETATM    9  N   UNL     1      -8.690  10.710  68.109  1.00  0.00    -0.126 NA 
HETATM   10  C   UNL     1      -5.716  13.199  69.594  1.00  0.00    -0.105 A  
HETATM   11  C   UNL     1      -6.687  13.561  68.670  1.00  0.00    -0.094 A  
HETATM   12  C   UNL     1      -5.757  11.937  70.173  1.00  0.00    -0.147 A  
BRANCH   9  13
HETATM   13  C   UNL     1      -8.988   9.289  67.923  1.00  0.00    -0.127 C  
BRANCH  13  14
HETATM   14  C   UNL     1      -8.089   8.621  66.913  1.00  0.00    -0.098 A  
HETATM   15  C   UNL     1      -6.253   7.146  66.355  1.00  0.00    -0.040 A  
HETATM   16  C   UNL     1      -6.847   6.840  65.119  1.00  0.00    -0.051 A  
HETATM   17  C   UNL     1      -8.478   8.591  65.573  1.00  0.00    -0.183 A  
HETATM   18  C   UNL     1      -6.903   7.982  67.273  1.00  0.00    -0.074 A  
HETATM   19  C   UNL     1      -7.876   7.694  64.692  1.00  0.00    -0.126 A  
BRANCH  16  20
HETATM   20  C   UNL     1      -6.527   5.594  64.361  1.00  0.00    -0.037 A  
HETATM   21  C   UNL     1      -5.769   5.686  63.168  1.00  0.00    -0.014 A  
HETATM   22  C   UNL     1      -7.032   4.304  64.708  1.00  0.00    -0.050 A  
HETATM   23  C   UNL     1      -5.502   4.575  62.363  1.00  0.00    -0.009 A  
HETATM   24  C   UNL     1      -6.693   3.187  63.911  1.00  0.00    -0.035 A  
HETATM   25  C   UNL     1      -5.946   3.320  62.745  1.00  0.00    -0.013 A  
BRANCH  22  26
HETATM   26  C   UNL     1      -7.949   4.014  65.818  1.00  0.00    -0.097 A  
HETATM   27  N   UNL     1      -7.653   3.402  66.952  1.00  0.00    -0.075 NA 
HETATM   28  H   UNL     1      -6.738   3.048  67.231  1.00  0.00     0.000 HD 
HETATM   29  N   UNL     1      -8.814   3.335  67.681  1.00  0.00    -0.119 NA 
HETATM   30  N   UNL     1      -9.824   3.869  67.012  1.00  0.00    -0.147 NA 
HETATM   31  N   UNL     1      -9.299   4.249  65.839  1.00  0.00    -0.151 NA 
ENDBRANCH  22  26
ENDBRANCH  16  20
ENDBRANCH  13  14
ENDBRANCH   9  13
BRANCH   8  32
HETATM   32  C   UNL     1      -6.562   9.609  70.393  1.00  0.00    -0.096 C  
HETATM   33  O   UNL     1      -5.536   8.958  70.298  1.00  0.00    -0.027 OA 
BRANCH  32  34
HETATM   34  O   UNL     1      -7.599   9.298  71.212  1.00  0.00    -0.306 OA 
BRANCH  34  35
HETATM   35  C   UNL     1      -7.392   8.064  71.915  1.00  0.00    -0.082 C  
HETATM   36  C   UNL     1      -7.279   8.444  73.392  1.00  0.00    -0.116 C  
BRANCH  35  37
HETATM   37  O   UNL     1      -8.518   7.188  71.845  1.00  0.00    -0.109 OA 
BRANCH  37  38
HETATM   38  C   UNL     1      -9.032   6.980  70.613  1.00  0.00    -0.154 C  
HETATM   39  O   UNL     1      -8.572   6.251  69.751  1.00  0.00    -0.133 OA 
BRANCH  38  40
HETATM   40  O   UNL     1     -10.160   7.710  70.537  1.00  0.00    -0.188 OA 
BRANCH  40  41
HETATM   41  C   UNL     1     -10.622   8.605  71.575  1.00  0.00    -0.282 C  
HETATM   42  C   UNL     1     -13.332   9.764  71.167  1.00  0.00    -0.360 C  
HETATM   43  C   UNL     1     -10.848   9.968  70.916  1.00  0.00    -0.276 C  
HETATM   44  C   UNL     1     -12.191  10.026  70.194  1.00  0.00    -0.116 C  
HETATM   45  C   UNL     1     -13.190   8.424  71.881  1.00  0.00    -0.381 C  
HETATM   46  C   UNL     1     -11.795   8.181  72.465  1.00  0.00    -0.438 C  
ENDBRANCH  40  41
ENDBRANCH  38  40
ENDBRANCH  37  38
ENDBRANCH  35  37
ENDBRANCH  34  35
ENDBRANCH  32  34
ENDBRANCH   8  32
ENDBRANCH   3   4
ENDBRANCH   2   3
TORSDOF 13
ENDMDL
MODEL      237
REMARK 921   NORMALIZED FREE ENERGY PREDICTED BY IDOCK:   -4.18 KCAL/MOL
REMARK 922        TOTAL FREE ENERGY PREDICTED BY IDOCK:   -9.82 KCAL/MOL
REMARK 923 INTER-LIGAND FREE ENERGY PREDICTED BY IDOCK:   -8.18 KCAL/MOL
REMARK 924 INTRA-LIGAND FREE ENERGY PREDICTED BY IDOCK:   -1.64 KCAL/MOL
REMARK 927      BINDING AFFINITY PREDICTED BY RF-SCORE:    0.00 PKD
ROOT
HETATM    1  C   UNL     1      -5.332  12.796  69.917  1.00  0.00    -0.094 C  
HETATM    2  C   UNL     1      -6.643  12.033  69.978  1.00  0.00     0.137 C  
ENDROOT
BRANCH   2   3
HETATM    3  O   UNL     1      -6.566  10.955  69.040  1.00  0.00    -0.051 OA 
BRANCH   3   4
HETATM    4  C   UNL     1      -6.636   9.741  69.579  1.00  0.00    -0.051 A  
HETATM    5  N   UNL     1      -6.609   9.495  70.868  1.00  0.00    -0.143 NA 
HETATM    6  C   UNL     1      -6.698   8.137  70.969  1.00  0.00    -0.042 A  
HETATM    7  C   UNL     1      -6.856   7.520  69.712  1.00  0.00    -0.047 A  
HETATM    8  C   UNL     1      -7.085   6.123  69.641  1.00  0.00    -0.073 A  
HETATM    9  N   UNL     1      -6.695   8.583  68.832  1.00  0.00    -0.053 NA 
HETATM   10  C   UNL     1      -6.802   5.999  72.081  1.00  0.00    -0.073 A  
HETATM   11  C   UNL     1      -6.639   7.376  72.148  1.00  0.00    -0.051 A  
HETATM   12  C   UNL     1      -7.051   5.397  70.853  1.00  0.00    -0.064 A  
BRANCH   9  13
HETATM   13  C   UNL     1      -6.423   8.583  67.394  1.00  0.00    -0.058 C  
BRANCH  13  14
HETATM   14  C   UNL     1      -7.599   9.038  66.567  1.00  0.00    -0.089 A  
HETATM   15  C   UNL     1      -9.938   9.617  66.343  1.00  0.00    -0.323 A  
HETATM   16  C   UNL     1      -9.639  10.507  65.297  1.00  0.00    -0.303 A  
HETATM   17  C   UNL     1      -7.365   9.634  65.327  1.00  0.00    -0.113 A  
HETATM   18  C   UNL     1      -8.915   8.935  67.015  1.00  0.00    -0.145 A  
HETATM   19  C   UNL     1      -8.370  10.379  64.710  1.00  0.00    -0.157 A  
BRANCH  16  20
HETATM   20  C   UNL     1     -10.541  11.636  64.922  1.00  0.00    -0.349 A  
HETATM   21  C   UNL     1     -11.583  11.408  63.991  1.00  0.00    -0.135 A  
HETATM   22  C   UNL     1     -10.356  12.980  65.366  1.00  0.00    -0.313 A  
HETATM   23  C   UNL     1     -12.414  12.434  63.529  1.00  0.00    -0.605 A  
HETATM   24  C   UNL     1     -11.249  13.986  64.934  1.00  0.00    -0.362 A  
HETATM   25  C   UNL     1     -12.261  13.721  64.017  1.00  0.00    -0.429 A  
BRANCH  22  26
HETATM   26  C   UNL     1      -9.256  13.457  66.216  1.00  0.00    -0.050 A  
HETATM   27  N   UNL     1      -8.444  12.718  66.952  1.00  0.00    -0.363 NA 
HETATM   28  H   UNL     1      -8.453  11.702  67.033  1.00  0.00     0.000 HD 
HETATM   29  N   UNL     1      -7.586  13.583  67.586  1.00  0.00    -0.162 NA 
HETATM   30  N   UNL     1      -7.867  14.839  67.277  1.00  0.00    -0.199 NA 
HETATM   31  N   UNL     1      -8.930  14.765  66.464  1.00  0.00    -0.259 NA 
ENDBRANCH  22  26
ENDBRANCH  16  20
ENDBRANCH  13  14
ENDBRANCH   9  13
BRANCH   8  32
HETATM   32  C   UNL     1      -7.206   5.344  68.386  1.00  0.00    -0.071 C  
HETATM   33  O   UNL     1      -6.429   4.458  68.072  1.00  0.00    -0.036 OA 
BRANCH  32  34
HETATM   34  O   UNL     1      -8.391   5.584  67.769  1.00  0.00    -0.101 OA 
BRANCH  34  35
HETATM   35  C   UNL     1      -9.383   4.594  68.080  1.00  0.00    -0.135 C  
HETATM   36  C   UNL     1      -8.612   3.287  68.277  1.00  0.00    -0.119 C  
BRANCH  35  37
HETATM   37  O   UNL     1     -10.032   4.830  69.329  1.00  0.00    -0.200 OA 
BRANCH  37  38
HETATM   38  C   UNL     1     -10.750   5.972  69.418  1.00  0.00    -0.334 C  
HETATM   39  O   UNL     1     -11.644   6.324  68.668  1.00  0.00    -0.125 OA 
BRANCH  38  40
HETATM   40  O   UNL     1     -10.304   6.624  70.507  1.00  0.00    -0.194 OA 
BRANCH  40  41
HETATM   41  C   UNL     1     -11.128   6.972  71.643  1.00  0.00    -0.235 C  
HETATM   42  C   UNL     1      -9.973   6.351  74.315  1.00  0.00    -0.346 C  
HETATM   43  C   UNL     1     -11.425   5.670  72.391  1.00  0.00    -0.309 C  
HETATM   44  C   UNL     1     -10.263   5.262  73.291  1.00  0.00    -0.216 C  
HETATM   45  C   UNL     1      -9.670   7.696  73.662  1.00  0.00    -0.314 C  
HETATM   46  C   UNL     1     -10.678   8.098  72.580  1.00  0.00    -0.421 C  
ENDBRANCH  40  41
ENDBRANCH  38  40
ENDBRANCH  37  38
ENDBRANCH  35  37
ENDBRANCH  34  35
ENDBRANCH  32  34
ENDBRANCH   8  32
ENDBRANCH   3   4
ENDBRANCH   2   3
TORSDOF 13
ENDMDL
MODEL      238
REMARK 921   NORMALIZED FREE ENERGY PREDICTED BY IDOCK:   -4.18 KCAL/MOL
REMARK 922        TOTAL FREE ENERGY PREDICTED BY IDOCK:   -9.80 KCAL/MOL
REMARK 923 INTER-LIGAND FREE ENERGY PREDICTED BY IDOCK:   -9.68 KCAL/MOL
REMARK 924 INTRA-LIGAND FREE ENERGY PREDICTED BY IDOCK:   -0.13 KCAL/MOL
REMARK 927      BINDING AFFINITY PREDICTED BY RF-SCORE:    0.00 PKD
ROOT
HETATM    1  C   UNL     1      -5.239  10.798  68.346  1.00  0.00    -0.036 C  
HETATM    2  C   UNL     1      -6.604  11.037  67.725  1.00  0.00    -0.063 C  
ENDROOT
BRANCH   2   3
HETATM    3  O   UNL     1      -7.505  11.403  68.776  1.00  0.00    -0.111 OA 
BRANCH   3   4
HETATM    4  C   UNL     1      -7.759  10.437  69.655  1.00  0.00    -0.144 A  
HETATM    5  N   UNL     1      -6.974  10.117  70.658  1.00  0.00    -0.329 NA 
HETATM    6  C   UNL     1      -7.610   9.086  71.286  1.00  0.00    -0.070 A  
HETATM    7  C   UNL     1      -8.860   8.797  70.703  1.00  0.00    -0.182 A  
HETATM    8  C   UNL     1      -9.708   7.834  71.303  1.00  0.00    -0.179 A  
HETATM    9  N   UNL     1      -8.865   9.618  69.581  1.00  0.00    -0.185 NA 
HETATM   10  C   UNL     1      -7.934   7.359  72.940  1.00  0.00    -0.120 A  
HETATM   11  C   UNL     1      -7.133   8.347  72.382  1.00  0.00    -0.112 A  
HETATM   12  C   UNL     1      -9.205   7.136  72.426  1.00  0.00    -0.154 A  
BRANCH   9  13
HETATM   13  C   UNL     1      -9.710   9.574  68.387  1.00  0.00    -0.154 C  
BRANCH  13  14
HETATM   14  C   UNL     1     -10.387  10.889  68.091  1.00  0.00    -0.202 A  
HETATM   15  C   UNL     1     -11.331  12.998  68.808  1.00  0.00    -0.332 A  
HETATM   16  C   UNL     1     -11.003  13.588  67.575  1.00  0.00    -0.283 A  
HETATM   17  C   UNL     1     -10.392  11.369  66.780  1.00  0.00    -0.271 A  
HETATM   18  C   UNL     1     -10.967  11.674  69.086  1.00  0.00    -0.270 A  
HETATM   19  C   UNL     1     -10.676  12.711  66.529  1.00  0.00    -0.273 A  
BRANCH  16  20
HETATM   20  C   UNL     1     -10.850  15.064  67.407  1.00  0.00    -0.305 A  
HETATM   21  C   UNL     1     -10.243  15.565  66.229  1.00  0.00    -0.308 A  
HETATM   22  C   UNL     1     -11.184  16.016  68.416  1.00  0.00    -0.364 A  
HETATM   23  C   UNL     1      -9.990  16.927  66.038  1.00  0.00    -0.313 A  
HETATM   24  C   UNL     1     -10.977  17.392  68.171  1.00  0.00    -0.160 A  
HETATM   25  C   UNL     1     -10.377  17.845  67.001  1.00  0.00    -0.366 A  
BRANCH  22  26
HETATM   26  C   UNL     1     -11.688  15.698  69.759  1.00  0.00    -0.357 A  
HETATM   27  N   UNL     1     -12.925  15.853  70.199  1.00  0.00    -0.660 NA 
HETATM   28  H   UNL     1     -13.720  16.208  69.667  1.00  0.00     0.000 HD 
HETATM   29  N   UNL     1     -12.934  15.444  71.510  1.00  0.00    -0.412 NA 
HETATM   30  N   UNL     1     -11.726  15.065  71.895  1.00  0.00    -0.391 NA 
HETATM   31  N   UNL     1     -10.943  15.265  70.825  1.00  0.00    -0.303 NA 
ENDBRANCH  22  26
ENDBRANCH  16  20
ENDBRANCH  13  14
ENDBRANCH   9  13
BRANCH   8  32
HETATM   32  C   UNL     1     -11.015   7.395  70.761  1.00  0.00    -0.255 C  
HETATM   33  O   UNL     1     -12.049   7.418  71.407  1.00  0.00    -0.297 OA 
BRANCH  32  34
HETATM   34  O   UNL     1     -10.949   7.191  69.420  1.00  0.00    -0.225 OA 
BRANCH  34  35
HETATM   35  C   UNL     1     -10.245   5.987  69.082  1.00  0.00    -0.204 C  
HETATM   36  C   UNL     1     -10.520   5.013  70.229  1.00  0.00    -0.243 C  
BRANCH  35  37
HETATM   37  O   UNL     1     -10.769   5.344  67.920  1.00  0.00    -0.147 OA 
BRANCH  37  38
HETATM   38  C   UNL     1      -9.858   4.918  67.017  1.00  0.00    -0.193 C  
HETATM   39  O   UNL     1      -9.714   3.776  66.618  1.00  0.00    -0.203 OA 
BRANCH  38  40
HETATM   40  O   UNL     1      -9.165   6.004  66.628  1.00  0.00    -0.134 OA 
BRANCH  40  41
HETATM   41  C   UNL     1      -8.517   6.140  65.342  1.00  0.00    -0.138 C  
HETATM   42  C   UNL     1      -5.935   7.620  65.348  1.00  0.00    -0.038 C  
HETATM   43  C   UNL     1      -8.421   7.639  65.050  1.00  0.00    -0.027 C  
HETATM   44  C   UNL     1      -7.240   8.278  65.772  1.00  0.00    -0.072 C  
HETATM   45  C   UNL     1      -5.936   6.114  65.596  1.00  0.00    -0.025 C  
HETATM   46  C   UNL     1      -7.195   5.406  65.087  1.00  0.00    -0.067 C  
ENDBRANCH  40  41
ENDBRANCH  38  40
ENDBRANCH  37  38
ENDBRANCH  35  37
ENDBRANCH  34  35
ENDBRANCH  32  34
ENDBRANCH   8  32
ENDBRANCH   3   4
ENDBRANCH   2   3
TORSDOF 13
ENDMDL
MODEL      239
REMARK 921   NORMALIZED FREE ENERGY PREDICTED BY IDOCK:   -4.18 KCAL/MOL
REMARK 922        TOTAL FREE ENERGY PREDICTED BY IDOCK:   -9.80 KCAL/MOL
REMARK 923 INTER-LIGAND FREE ENERGY PREDICTED BY IDOCK:   -7.60 KCAL/MOL
REMARK 924 INTRA-LIGAND FREE ENERGY PREDICTED BY IDOCK:   -2.20 KCAL/MOL
REMARK 927      BINDING AFFINITY PREDICTED BY RF-SCORE:    0.00 PKD
ROOT
HETATM    1  C   UNL     1     -14.254  15.248  70.951  1.00  0.00    -0.117 C  
HETATM    2  C   UNL     1     -13.307  14.755  72.030  1.00  0.00    -0.363 C  
ENDROOT
BRANCH   2   3
HETATM    3  O   UNL     1     -12.409  13.816  71.428  1.00  0.00    -0.333 OA 
BRANCH   3   4
HETATM    4  C   UNL     1     -11.466  14.358  70.663  1.00  0.00    -0.115 A  
HETATM    5  N   UNL     1     -10.691  15.353  71.028  1.00  0.00    -0.177 NA 
HETATM    6  C   UNL     1      -9.888  15.587  69.949  1.00  0.00    -0.198 A  
HETATM    7  C   UNL     1     -10.119  14.669  68.905  1.00  0.00    -0.234 A  
HETATM    8  C   UNL     1      -9.290  14.691  67.757  1.00  0.00    -0.197 A  
HETATM    9  N   UNL     1     -11.226  13.964  69.364  1.00  0.00    -0.247 NA 
HETATM   10  C   UNL     1      -8.155  16.673  68.670  1.00  0.00    -0.237 A  
HETATM   11  C   UNL     1      -8.931  16.607  69.820  1.00  0.00     0.753 A  
HETATM   12  C   UNL     1      -8.315  15.713  67.678  1.00  0.00    -0.168 A  
BRANCH   9  13
HETATM   13  C   UNL     1     -12.159  13.102  68.638  1.00  0.00    -0.187 C  
BRANCH  13  14
HETATM   14  C   UNL     1     -11.660  11.688  68.479  1.00  0.00    -0.379 A  
HETATM   15  C   UNL     1     -10.598   9.947  67.177  1.00  0.00    -0.295 A  
HETATM   16  C   UNL     1     -10.117   9.335  68.347  1.00  0.00    -0.215 A  
HETATM   17  C   UNL     1     -11.488  10.897  69.617  1.00  0.00    -0.377 A  
HETATM   18  C   UNL     1     -11.311  11.151  67.241  1.00  0.00    -0.302 A  
HETATM   19  C   UNL     1     -10.706   9.745  69.554  1.00  0.00    -0.255 A  
BRANCH  16  20
HETATM   20  C   UNL     1      -8.939   8.418  68.348  1.00  0.00    -0.136 A  
HETATM   21  C   UNL     1      -9.141   7.033  68.132  1.00  0.00    -0.128 A  
HETATM   22  C   UNL     1      -7.610   8.835  68.662  1.00  0.00    -0.097 A  
HETATM   23  C   UNL     1      -8.098   6.104  68.201  1.00  0.00    -0.111 A  
HETATM   24  C   UNL     1      -6.564   7.884  68.662  1.00  0.00    -0.057 A  
HETATM   25  C   UNL     1      -6.804   6.532  68.445  1.00  0.00    -0.071 A  
BRANCH  22  26
HETATM   26  C   UNL     1      -7.209  10.192  69.056  1.00  0.00    -0.076 A  
HETATM   27  N   UNL     1      -7.844  11.319  68.780  1.00  0.00    -0.141 NA 
HETATM   28  H   UNL     1      -8.715  11.414  68.259  1.00  0.00     0.000 HD 
HETATM   29  N   UNL     1      -7.103  12.336  69.330  1.00  0.00    -0.003 NA 
HETATM   30  N   UNL     1      -6.014  11.864  69.916  1.00  0.00    -0.134 NA 
HETATM   31  N   UNL     1      -6.054  10.541  69.708  1.00  0.00    -0.055 NA 
ENDBRANCH  22  26
ENDBRANCH  16  20
ENDBRANCH  13  14
ENDBRANCH   9  13
BRANCH   8  32
HETATM   32  C   UNL     1      -9.463  13.826  66.566  1.00  0.00    -0.269 C  
HETATM   33  O   UNL     1      -8.795  12.826  66.364  1.00  0.00    -0.106 OA 
BRANCH  32  34
HETATM   34  O   UNL     1     -10.583  14.157  65.874  1.00  0.00    -0.284 OA 
BRANCH  34  35
HETATM   35  C   UNL     1     -10.456  15.415  65.194  1.00  0.00    -0.411 C  
HETATM   36  C   UNL     1     -11.470  15.369  64.050  1.00  0.00     0.162 C  
BRANCH  35  37
HETATM   37  O   UNL     1     -10.857  16.525  65.998  1.00  0.00    -0.210 OA 
BRANCH  37  38
HETATM   38  C   UNL     1     -10.463  17.743  65.566  1.00  0.00    -0.017 C  
HETATM   39  O   UNL     1     -11.164  18.583  65.029  1.00  0.00    -0.365 OA 
BRANCH  38  40
HETATM   40  O   UNL     1      -9.156  17.855  65.869  1.00  0.00    -0.512 OA 
BRANCH  40  41
HETATM   41  C   UNL     1      -8.350  19.021  65.584  1.00  0.00     0.488 C  
HETATM   42  C   UNL     1      -6.665  20.006  67.831  1.00  0.00    -0.295 C  
HETATM   43  C   UNL     1      -8.810  20.122  66.543  1.00  0.00    -0.370 C  
HETATM   44  C   UNL     1      -8.184  19.961  67.925  1.00  0.00    -0.318 C  
HETATM   45  C   UNL     1      -6.110  18.943  66.888  1.00  0.00    -0.179 C  
HETATM   46  C   UNL     1      -6.824  18.886  65.534  1.00  0.00    -0.262 C  
ENDBRANCH  40  41
ENDBRANCH  38  40
ENDBRANCH  37  38
ENDBRANCH  35  37
ENDBRANCH  34  35
ENDBRANCH  32  34
ENDBRANCH   8  32
ENDBRANCH   3   4
ENDBRANCH   2   3
TORSDOF 13
ENDMDL
MODEL      240
REMARK 921   NORMALIZED FREE ENERGY PREDICTED BY IDOCK:   -4.17 KCAL/MOL
REMARK 922        TOTAL FREE ENERGY PREDICTED BY IDOCK:   -9.79 KCAL/MOL
REMARK 923 INTER-LIGAND FREE ENERGY PREDICTED BY IDOCK:   -7.68 KCAL/MOL
REMARK 924 INTRA-LIGAND FREE ENERGY PREDICTED BY IDOCK:   -2.11 KCAL/MOL
REMARK 927      BINDING AFFINITY PREDICTED BY RF-SCORE:    0.00 PKD
ROOT
HETATM    1  C   UNL     1     -13.499   9.829  72.160  1.00  0.00    -0.491 C  
HETATM    2  C   UNL     1     -12.880  10.965  71.365  1.00  0.00    -0.449 C  
ENDROOT
BRANCH   2   3
HETATM    3  O   UNL     1     -11.601  10.525  70.898  1.00  0.00    -0.338 OA 
BRANCH   3   4
HETATM    4  C   UNL     1     -11.292  10.916  69.664  1.00  0.00    -0.292 A  
HETATM    5  N   UNL     1     -12.160  11.356  68.783  1.00  0.00    -0.514 NA 
HETATM    6  C   UNL     1     -11.421  11.634  67.671  1.00  0.00    -0.303 A  
HETATM    7  C   UNL     1     -10.043  11.427  67.882  1.00  0.00    -0.183 A  
HETATM    8  C   UNL     1      -9.118  11.782  66.869  1.00  0.00    -0.192 A  
HETATM    9  N   UNL     1     -10.015  10.854  69.147  1.00  0.00    -0.195 NA 
HETATM   10  C   UNL     1     -11.009  12.360  65.407  1.00  0.00    -0.335 A  
HETATM   11  C   UNL     1     -11.906  12.068  66.426  1.00  0.00    -0.232 A  
HETATM   12  C   UNL     1      -9.644  12.247  65.642  1.00  0.00    -0.148 A  
BRANCH   9  13
HETATM   13  C   UNL     1      -8.950  10.112  69.822  1.00  0.00    -0.132 C  
BRANCH  13  14
HETATM   14  C   UNL     1      -8.838   8.681  69.362  1.00  0.00    -0.144 A  
HETATM   15  C   UNL     1      -7.757   6.948  68.065  1.00  0.00    -0.113 A  
HETATM   16  C   UNL     1      -8.147   5.974  69.001  1.00  0.00    -0.107 A  
HETATM   17  C   UNL     1      -9.509   7.685  70.074  1.00  0.00    -0.161 A  
HETATM   18  C   UNL     1      -8.046   8.302  68.279  1.00  0.00    -0.124 A  
HETATM   19  C   UNL     1      -9.150   6.348  69.909  1.00  0.00    -0.142 A  
BRANCH  16  20
HETATM   20  C   UNL     1      -7.440   4.667  69.143  1.00  0.00    -0.056 A  
HETATM   21  C   UNL     1      -7.666   3.652  68.181  1.00  0.00    -0.065 A  
HETATM   22  C   UNL     1      -6.618   4.328  70.259  1.00  0.00    -0.032 A  
HETATM   23  C   UNL     1      -7.105   2.376  68.294  1.00  0.00    -0.047 A  
HETATM   24  C   UNL     1      -6.011   3.053  70.315  1.00  0.00    -0.019 A  
HETATM   25  C   UNL     1      -6.259   2.082  69.350  1.00  0.00    -0.025 A  
BRANCH  22  26
HETATM   26  C   UNL     1      -6.371   5.179  71.431  1.00  0.00    -0.030 A  
HETATM   27  N   UNL     1      -5.659   6.293  71.466  1.00  0.00    -0.026 NA 
HETATM   28  H   UNL     1      -5.182   6.735  70.681  1.00  0.00     0.000 HD 
HETATM   29  N   UNL     1      -5.687   6.740  72.764  1.00  0.00    -0.038 NA 
HETATM   30  N   UNL     1      -6.378   5.914  73.534  1.00  0.00    -0.063 NA 
HETATM   31  N   UNL     1      -6.764   4.922  72.718  1.00  0.00    -0.062 NA 
ENDBRANCH  22  26
ENDBRANCH  16  20
ENDBRANCH  13  14
ENDBRANCH   9  13
BRANCH   8  32
HETATM   32  C   UNL     1      -7.654  11.561  66.939  1.00  0.00    -0.151 C  
HETATM   33  O   UNL     1      -7.134  10.469  66.781  1.00  0.00    -0.098 OA 
BRANCH  32  34
HETATM   34  O   UNL     1      -6.978  12.738  66.970  1.00  0.00    -0.052 OA 
BRANCH  34  35
HETATM   35  C   UNL     1      -7.094  13.404  68.236  1.00  0.00    -0.109 C  
HETATM   36  C   UNL     1      -6.138  12.669  69.177  1.00  0.00    -0.092 C  
BRANCH  35  37
HETATM   37  O   UNL     1      -6.616  14.749  68.203  1.00  0.00    -0.107 OA 
BRANCH  37  38
HETATM   38  C   UNL     1      -7.523  15.708  68.497  1.00  0.00    -0.123 C  
HETATM   39  O   UNL     1      -7.514  16.436  69.474  1.00  0.00    -0.189 OA 
BRANCH  38  40
HETATM   40  O   UNL     1      -8.415  15.716  67.490  1.00  0.00    -0.155 OA 
BRANCH  40  41
HETATM   41  C   UNL     1      -8.350  16.605  66.351  1.00  0.00    -0.318 C  
HETATM   42  C   UNL     1      -7.762  19.456  66.973  1.00  0.00    -0.268 C  
HETATM   43  C   UNL     1      -9.448  17.654  66.545  1.00  0.00    -0.294 C  
HETATM   44  C   UNL     1      -9.008  18.759  67.500  1.00  0.00    -0.291 C  
HETATM   45  C   UNL     1      -6.607  18.486  66.741  1.00  0.00    -0.208 C  
HETATM   46  C   UNL     1      -7.005  17.228  65.962  1.00  0.00    -0.166 C  
ENDBRANCH  40  41
ENDBRANCH  38  40
ENDBRANCH  37  38
ENDBRANCH  35  37
ENDBRANCH  34  35
ENDBRANCH  32  34
ENDBRANCH   8  32
ENDBRANCH   3   4
ENDBRANCH   2   3
TORSDOF 13
ENDMDL
MODEL      241
REMARK 921   NORMALIZED FREE ENERGY PREDICTED BY IDOCK:   -4.16 KCAL/MOL
REMARK 922        TOTAL FREE ENERGY PREDICTED BY IDOCK:   -9.77 KCAL/MOL
REMARK 923 INTER-LIGAND FREE ENERGY PREDICTED BY IDOCK:   -8.01 KCAL/MOL
REMARK 924 INTRA-LIGAND FREE ENERGY PREDICTED BY IDOCK:   -1.76 KCAL/MOL
REMARK 927      BINDING AFFINITY PREDICTED BY RF-SCORE:    0.00 PKD
ROOT
HETATM    1  C   UNL     1      -5.967  11.909  69.965  1.00  0.00    -0.159 C  
HETATM    2  C   UNL     1      -5.551  10.904  68.905  1.00  0.00    -0.040 C  
ENDROOT
BRANCH   2   3
HETATM    3  O   UNL     1      -5.276   9.663  69.564  1.00  0.00    -0.035 OA 
BRANCH   3   4
HETATM    4  C   UNL     1      -6.310   9.134  70.214  1.00  0.00    -0.047 A  
HETATM    5  N   UNL     1      -6.534   9.279  71.499  1.00  0.00    -0.232 NA 
HETATM    6  C   UNL     1      -7.679   8.576  71.736  1.00  0.00    -0.117 A  
HETATM    7  C   UNL     1      -8.225   8.034  70.555  1.00  0.00    -0.118 A  
HETATM    8  C   UNL     1      -9.479   7.375  70.601  1.00  0.00    -0.164 A  
HETATM    9  N   UNL     1      -7.247   8.322  69.612  1.00  0.00    -0.060 NA 
HETATM   10  C   UNL     1      -9.494   7.670  73.043  1.00  0.00    -0.282 A  
HETATM   11  C   UNL     1      -8.295   8.367  72.982  1.00  0.00    -0.199 A  
HETATM   12  C   UNL     1     -10.083   7.214  71.869  1.00  0.00    -0.197 A  
BRANCH   9  13
HETATM   13  C   UNL     1      -7.035   7.766  68.275  1.00  0.00    -0.079 C  
BRANCH  13  14
HETATM   14  C   UNL     1      -7.797   8.499  67.200  1.00  0.00    -0.097 A  
HETATM   15  C   UNL     1      -9.828   8.930  65.957  1.00  0.00    -0.277 A  
HETATM   16  C   UNL     1      -9.431  10.258  65.726  1.00  0.00    -0.255 A  
HETATM   17  C   UNL     1      -7.264   9.677  66.673  1.00  0.00    -0.086 A  
HETATM   18  C   UNL     1      -9.044   8.076  66.743  1.00  0.00    -0.189 A  
HETATM   19  C   UNL     1      -8.080  10.556  65.963  1.00  0.00    -0.148 A  
BRANCH  16  20
HETATM   20  C   UNL     1     -10.404  11.343  65.403  1.00  0.00    -0.331 A  
HETATM   21  C   UNL     1     -10.416  11.894  64.098  1.00  0.00    -0.393 A  
HETATM   22  C   UNL     1     -11.269  11.945  66.366  1.00  0.00    -0.387 A  
HETATM   23  C   UNL     1     -11.240  12.967  63.745  1.00  0.00    -0.452 A  
HETATM   24  C   UNL     1     -12.139  12.986  65.966  1.00  0.00    -0.493 A  
HETATM   25  C   UNL     1     -12.119  13.500  64.674  1.00  0.00    -0.450 A  
BRANCH  22  26
HETATM   26  C   UNL     1     -11.312  11.623  67.798  1.00  0.00    -0.288 A  
HETATM   27  N   UNL     1     -10.390  11.905  68.703  1.00  0.00    -0.248 NA 
HETATM   28  H   UNL     1      -9.512  12.399  68.543  1.00  0.00     0.000 HD 
HETATM   29  N   UNL     1     -10.842  11.404  69.899  1.00  0.00     0.025 NA 
HETATM   30  N   UNL     1     -12.009  10.799  69.747  1.00  0.00    -0.315 NA 
HETATM   31  N   UNL     1     -12.280  10.893  68.438  1.00  0.00    -0.452 NA 
ENDBRANCH  22  26
ENDBRANCH  16  20
ENDBRANCH  13  14
ENDBRANCH   9  13
BRANCH   8  32
HETATM   32  C   UNL     1     -10.133   6.711  69.449  1.00  0.00    -0.173 C  
HETATM   33  O   UNL     1     -11.129   7.151  68.900  1.00  0.00    -0.116 OA 
BRANCH  32  34
HETATM   34  O   UNL     1      -9.365   5.705  68.958  1.00  0.00    -0.120 OA 
BRANCH  34  35
HETATM   35  C   UNL     1     -10.146   4.596  68.489  1.00  0.00    -0.007 C  
HETATM   36  C   UNL     1     -10.236   4.767  66.972  1.00  0.00    -0.205 C  
BRANCH  35  37
HETATM   37  O   UNL     1      -9.497   3.338  68.680  1.00  0.00    -0.173 OA 
BRANCH  37  38
HETATM   38  C   UNL     1      -8.192   3.285  68.333  1.00  0.00    -0.072 C  
HETATM   39  O   UNL     1      -7.257   3.753  68.959  1.00  0.00    -0.049 OA 
BRANCH  38  40
HETATM   40  O   UNL     1      -8.128   2.595  67.180  1.00  0.00    -0.073 OA 
BRANCH  40  41
HETATM   41  C   UNL     1      -7.171   2.854  66.127  1.00  0.00    -0.066 C  
HETATM   42  C   UNL     1      -8.159   4.518  63.866  1.00  0.00    -0.098 C  
HETATM   43  C   UNL     1      -7.749   2.249  64.845  1.00  0.00    -0.073 C  
HETATM   44  C   UNL     1      -8.782   3.171  64.205  1.00  0.00    -0.094 C  
HETATM   45  C   UNL     1      -7.547   5.199  65.086  1.00  0.00    -0.082 C  
HETATM   46  C   UNL     1      -6.650   4.280  65.921  1.00  0.00    -0.041 C  
ENDBRANCH  40  41
ENDBRANCH  38  40
ENDBRANCH  37  38
ENDBRANCH  35  37
ENDBRANCH  34  35
ENDBRANCH  32  34
ENDBRANCH   8  32
ENDBRANCH   3   4
ENDBRANCH   2   3
TORSDOF 13
ENDMDL
MODEL      242
REMARK 921   NORMALIZED FREE ENERGY PREDICTED BY IDOCK:   -4.11 KCAL/MOL
REMARK 922        TOTAL FREE ENERGY PREDICTED BY IDOCK:   -9.68 KCAL/MOL
REMARK 923 INTER-LIGAND FREE ENERGY PREDICTED BY IDOCK:   -8.05 KCAL/MOL
REMARK 924 INTRA-LIGAND FREE ENERGY PREDICTED BY IDOCK:   -1.63 KCAL/MOL
REMARK 927      BINDING AFFINITY PREDICTED BY RF-SCORE:    0.00 PKD
ROOT
HETATM    1  C   UNL     1      -5.147  11.746  71.386  1.00  0.00    -0.072 C  
HETATM    2  C   UNL     1      -5.223  10.902  70.126  1.00  0.00    -0.055 C  
ENDROOT
BRANCH   2   3
HETATM    3  O   UNL     1      -5.404   9.539  70.524  1.00  0.00    -0.030 OA 
BRANCH   3   4
HETATM    4  C   UNL     1      -6.634   9.234  70.930  1.00  0.00    -0.089 A  
HETATM    5  N   UNL     1      -6.936   8.811  72.135  1.00  0.00    -0.273 NA 
HETATM    6  C   UNL     1      -8.287   8.618  72.111  1.00  0.00    -0.077 A  
HETATM    7  C   UNL     1      -8.856   8.997  70.878  1.00  0.00    -0.240 A  
HETATM    8  C   UNL     1     -10.264   8.976  70.721  1.00  0.00    -0.305 A  
HETATM    9  N   UNL     1      -7.737   9.281  70.105  1.00  0.00    -0.102 NA 
HETATM   10  C   UNL     1     -10.457   8.019  72.979  1.00  0.00    -0.341 A  
HETATM   11  C   UNL     1      -9.081   8.100  73.148  1.00  0.00    -0.335 A  
HETATM   12  C   UNL     1     -11.031   8.479  71.800  1.00  0.00    -0.376 A  
BRANCH   9  13
HETATM   13  C   UNL     1      -7.605   9.417  68.654  1.00  0.00    -0.080 C  
BRANCH  13  14
HETATM   14  C   UNL     1      -7.395   8.100  67.951  1.00  0.00    -0.096 A  
HETATM   15  C   UNL     1      -8.208   5.960  67.168  1.00  0.00    -0.105 A  
HETATM   16  C   UNL     1      -7.292   5.977  66.102  1.00  0.00    -0.081 A  
HETATM   17  C   UNL     1      -6.280   7.942  67.126  1.00  0.00    -0.054 A  
HETATM   18  C   UNL     1      -8.301   7.045  68.049  1.00  0.00    -0.119 A  
HETATM   19  C   UNL     1      -6.241   6.903  66.197  1.00  0.00    -0.042 A  
BRANCH  16  20
HETATM   20  C   UNL     1      -7.494   5.180  64.856  1.00  0.00    -0.072 A  
HETATM   21  C   UNL     1      -7.443   3.766  64.925  1.00  0.00    -0.073 A  
HETATM   22  C   UNL     1      -7.634   5.758  63.559  1.00  0.00    -0.079 A  
HETATM   23  C   UNL     1      -7.540   2.957  63.789  1.00  0.00    -0.067 A  
HETATM   24  C   UNL     1      -7.794   4.916  62.435  1.00  0.00    -0.067 A  
HETATM   25  C   UNL     1      -7.738   3.530  62.545  1.00  0.00    -0.058 A  
BRANCH  22  26
HETATM   26  C   UNL     1      -7.569   7.193  63.249  1.00  0.00    -0.109 A  
HETATM   27  N   UNL     1      -8.530   8.085  63.419  1.00  0.00    -0.399 NA 
HETATM   28  H   UNL     1      -9.459   7.913  63.801  1.00  0.00     0.000 HD 
HETATM   29  N   UNL     1      -8.034   9.289  62.982  1.00  0.00    -0.138 NA 
HETATM   30  N   UNL     1      -6.800   9.154  62.524  1.00  0.00    -0.093 NA 
HETATM   31  N   UNL     1      -6.527   7.847  62.646  1.00  0.00    -0.083 NA 
ENDBRANCH  22  26
ENDBRANCH  16  20
ENDBRANCH  13  14
ENDBRANCH   9  13
BRANCH   8  32
HETATM   32  C   UNL     1     -10.984   9.290  69.464  1.00  0.00    -0.151 C  
HETATM   33  O   UNL     1     -11.151   8.479  68.569  1.00  0.00     0.118 OA 
BRANCH  32  34
HETATM   34  O   UNL     1     -11.612  10.491  69.542  1.00  0.00    -0.255 OA 
BRANCH  34  35
HETATM   35  C   UNL     1     -11.431  11.283  68.359  1.00  0.00    -0.307 C  
HETATM   36  C   UNL     1     -10.132  12.061  68.579  1.00  0.00    -0.201 C  
BRANCH  35  37
HETATM   37  O   UNL     1     -11.195  10.494  67.192  1.00  0.00    -0.274 OA 
BRANCH  37  38
HETATM   38  C   UNL     1     -10.877  11.177  66.070  1.00  0.00    -0.166 C  
HETATM   39  O   UNL     1      -9.843  11.080  65.433  1.00  0.00    -0.223 OA 
BRANCH  38  40
HETATM   40  O   UNL     1     -11.934  11.959  65.782  1.00  0.00    -0.451 OA 
BRANCH  40  41
HETATM   41  C   UNL     1     -11.850  13.210  65.062  1.00  0.00    -0.354 C  
HETATM   42  C   UNL     1     -10.778  15.517  66.606  1.00  0.00    -0.306 C  
HETATM   43  C   UNL     1     -12.751  14.205  65.796  1.00  0.00    -0.443 C  
HETATM   44  C   UNL     1     -12.056  14.799  67.017  1.00  0.00    -0.120 C  
HETATM   45  C   UNL     1      -9.813  14.603  65.858  1.00  0.00    -0.358 C  
HETATM   46  C   UNL     1     -10.472  13.796  64.735  1.00  0.00    -0.448 C  
ENDBRANCH  40  41
ENDBRANCH  38  40
ENDBRANCH  37  38
ENDBRANCH  35  37
ENDBRANCH  34  35
ENDBRANCH  32  34
ENDBRANCH   8  32
ENDBRANCH   3   4
ENDBRANCH   2   3
TORSDOF 13
ENDMDL
MODEL      243
REMARK 921   NORMALIZED FREE ENERGY PREDICTED BY IDOCK:   -4.10 KCAL/MOL
REMARK 922        TOTAL FREE ENERGY PREDICTED BY IDOCK:   -9.66 KCAL/MOL
REMARK 923 INTER-LIGAND FREE ENERGY PREDICTED BY IDOCK:   -8.46 KCAL/MOL
REMARK 924 INTRA-LIGAND FREE ENERGY PREDICTED BY IDOCK:   -1.20 KCAL/MOL
REMARK 927      BINDING AFFINITY PREDICTED BY RF-SCORE:    0.00 PKD
ROOT
HETATM    1  C   UNL     1     -14.201   8.060  71.617  1.00  0.00    -0.549 C  
HETATM    2  C   UNL     1     -13.557   9.199  72.387  1.00  0.00    -0.483 C  
ENDROOT
BRANCH   2   3
HETATM    3  O   UNL     1     -12.792   9.976  71.461  1.00  0.00    -0.362 OA 
BRANCH   3   4
HETATM    4  C   UNL     1     -11.658   9.409  71.060  1.00  0.00    -0.330 A  
HETATM    5  N   UNL     1     -10.684   9.042  71.860  1.00  0.00    -0.355 NA 
HETATM    6  C   UNL     1      -9.730   8.521  71.036  1.00  0.00    -0.193 A  
HETATM    7  C   UNL     1     -10.144   8.497  69.690  1.00  0.00    -0.202 A  
HETATM    8  C   UNL     1      -9.324   7.877  68.715  1.00  0.00    -0.146 A  
HETATM    9  N   UNL     1     -11.351   9.185  69.734  1.00  0.00    -0.056 NA 
HETATM   10  C   UNL     1      -7.623   7.500  70.451  1.00  0.00    -0.090 A  
HETATM   11  C   UNL     1      -8.459   8.053  71.412  1.00  0.00    -0.142 A  
HETATM   12  C   UNL     1      -8.067   7.389  69.139  1.00  0.00    -0.120 A  
BRANCH   9  13
HETATM   13  C   UNL     1     -12.131   9.789  68.654  1.00  0.00     1.505 C  
BRANCH  13  14
HETATM   14  C   UNL     1     -11.591  11.124  68.206  1.00  0.00    -0.359 A  
HETATM   15  C   UNL     1     -10.724  13.331  68.686  1.00  0.00    -0.281 A  
HETATM   16  C   UNL     1      -9.971  13.317  67.499  1.00  0.00    -0.223 A  
HETATM   17  C   UNL     1     -11.137  11.266  66.893  1.00  0.00    -0.339 A  
HETATM   18  C   UNL     1     -11.479  12.214  69.067  1.00  0.00    -0.351 A  
HETATM   19  C   UNL     1     -10.317  12.341  66.551  1.00  0.00    -0.250 A  
BRANCH  16  20
HETATM   20  C   UNL     1      -8.766  14.176  67.302  1.00  0.00    -0.229 A  
HETATM   21  C   UNL     1      -7.600  13.915  68.063  1.00  0.00    -0.144 A  
HETATM   22  C   UNL     1      -8.743  15.328  66.459  1.00  0.00    -0.314 A  
HETATM   23  C   UNL     1      -6.463  14.726  67.993  1.00  0.00    -0.163 A  
HETATM   24  C   UNL     1      -7.559  16.093  66.359  1.00  0.00    -0.050 A  
HETATM   25  C   UNL     1      -6.433  15.804  67.125  1.00  0.00    -0.041 A  
BRANCH  22  26
HETATM   26  C   UNL     1      -9.883  15.855  65.698  1.00  0.00    -0.302 A  
HETATM   27  N   UNL     1     -10.720  15.164  64.943  1.00  0.00    -0.519 NA 
HETATM   28  H   UNL     1     -10.706  14.157  64.784  1.00  0.00     0.000 HD 
HETATM   29  N   UNL     1     -11.613  16.064  64.415  1.00  0.00    -0.349 NA 
HETATM   30  N   UNL     1     -11.330  17.296  64.808  1.00  0.00    -0.665 NA 
HETATM   31  N   UNL     1     -10.231  17.174  65.565  1.00  0.00    -0.615 NA 
ENDBRANCH  22  26
ENDBRANCH  16  20
ENDBRANCH  13  14
ENDBRANCH   9  13
BRANCH   8  32
HETATM   32  C   UNL     1      -9.613   7.836  67.262  1.00  0.00    -0.161 C  
HETATM   33  O   UNL     1     -10.738   7.725  66.807  1.00  0.00    -0.311 OA 
BRANCH  32  34
HETATM   34  O   UNL     1      -8.516   8.163  66.532  1.00  0.00    -0.121 OA 
BRANCH  34  35
HETATM   35  C   UNL     1      -8.224   7.192  65.516  1.00  0.00    -0.139 C  
HETATM   36  C   UNL     1      -7.376   7.926  64.476  1.00  0.00    -0.086 C  
BRANCH  35  37
HETATM   37  O   UNL     1      -7.393   6.129  65.984  1.00  0.00    -0.077 OA 
BRANCH  37  38
HETATM   38  C   UNL     1      -7.389   5.005  65.234  1.00  0.00    -0.072 C  
HETATM   39  O   UNL     1      -6.555   4.117  65.265  1.00  0.00    -0.044 OA 
BRANCH  38  40
HETATM   40  O   UNL     1      -8.496   5.048  64.469  1.00  0.00    -0.133 OA 
BRANCH  40  41
HETATM   41  C   UNL     1      -9.731   4.365  64.785  1.00  0.00    -0.125 C  
HETATM   42  C   UNL     1      -9.518   2.174  66.788  1.00  0.00     0.159 C  
HETATM   43  C   UNL     1      -9.539   2.899  64.391  1.00  0.00    -0.151 C  
HETATM   44  C   UNL     1      -8.775   2.124  65.460  1.00  0.00    -0.118 C  
HETATM   45  C   UNL     1      -9.763   3.603  67.264  1.00  0.00    -0.104 C  
HETATM   46  C   UNL     1     -10.339   4.522  66.183  1.00  0.00    -0.258 C  
ENDBRANCH  40  41
ENDBRANCH  38  40
ENDBRANCH  37  38
ENDBRANCH  35  37
ENDBRANCH  34  35
ENDBRANCH  32  34
ENDBRANCH   8  32
ENDBRANCH   3   4
ENDBRANCH   2   3
TORSDOF 13
ENDMDL
MODEL      244
REMARK 921   NORMALIZED FREE ENERGY PREDICTED BY IDOCK:   -4.09 KCAL/MOL
REMARK 922        TOTAL FREE ENERGY PREDICTED BY IDOCK:   -9.66 KCAL/MOL
REMARK 923 INTER-LIGAND FREE ENERGY PREDICTED BY IDOCK:   -7.96 KCAL/MOL
REMARK 924 INTRA-LIGAND FREE ENERGY PREDICTED BY IDOCK:   -1.70 KCAL/MOL
REMARK 927      BINDING AFFINITY PREDICTED BY RF-SCORE:    0.00 PKD
ROOT
HETATM    1  C   UNL     1      -6.281  12.290  70.129  1.00  0.00    -0.048 C  
HETATM    2  C   UNL     1      -6.913  11.153  69.346  1.00  0.00    -0.124 C  
ENDROOT
BRANCH   2   3
HETATM    3  O   UNL     1      -6.311   9.931  69.786  1.00  0.00    -0.044 OA 
BRANCH   3   4
HETATM    4  C   UNL     1      -7.160   9.045  70.300  1.00  0.00    -0.055 A  
HETATM    5  N   UNL     1      -7.349   8.853  71.585  1.00  0.00    -0.274 NA 
HETATM    6  C   UNL     1      -8.285   7.863  71.658  1.00  0.00    -0.115 A  
HETATM    7  C   UNL     1      -8.746   7.472  70.385  1.00  0.00    -0.144 A  
HETATM    8  C   UNL     1      -9.808   6.539  70.281  1.00  0.00    -0.185 A  
HETATM    9  N   UNL     1      -7.910   8.180  69.531  1.00  0.00    -0.102 NA 
HETATM   10  C   UNL     1      -9.771   6.292  72.728  1.00  0.00    -0.162 A  
HETATM   11  C   UNL     1      -8.772   7.252  72.825  1.00  0.00    -0.148 A  
HETATM   12  C   UNL     1     -10.294   5.971  71.481  1.00  0.00    -0.261 A  
BRANCH   9  13
HETATM   13  C   UNL     1      -7.640   7.990  68.106  1.00  0.00    -0.109 C  
BRANCH  13  14
HETATM   14  C   UNL     1      -8.399   8.950  67.225  1.00  0.00    -0.104 A  
HETATM   15  C   UNL     1     -10.466   9.954  66.467  1.00  0.00    -0.213 A  
HETATM   16  C   UNL     1      -9.794  11.146  66.146  1.00  0.00    -0.265 A  
HETATM   17  C   UNL     1      -7.703   9.978  66.585  1.00  0.00    -0.104 A  
HETATM   18  C   UNL     1      -9.782   8.887  67.063  1.00  0.00    -0.249 A  
HETATM   19  C   UNL     1      -8.394  11.074  66.070  1.00  0.00    -0.147 A  
BRANCH  16  20
HETATM   20  C   UNL     1     -10.495  12.460  66.042  1.00  0.00    -0.281 A  
HETATM   21  C   UNL     1     -10.250  13.287  64.918  1.00  0.00    -0.313 A  
HETATM   22  C   UNL     1     -11.330  12.997  67.068  1.00  0.00    -0.343 A  
HETATM   23  C   UNL     1     -10.805  14.565  64.793  1.00  0.00    -0.410 A  
HETATM   24  C   UNL     1     -11.929  14.264  66.887  1.00  0.00    -0.467 A  
HETATM   25  C   UNL     1     -11.663  15.046  65.768  1.00  0.00    -0.104 A  
BRANCH  22  26
HETATM   26  C   UNL     1     -11.597  12.369  68.370  1.00  0.00    -0.324 A  
HETATM   27  N   UNL     1     -11.616  12.966  69.549  1.00  0.00    -0.385 NA 
HETATM   28  H   UNL     1     -11.458  13.957  69.732  1.00  0.00     0.000 HD 
HETATM   29  N   UNL     1     -11.891  11.995  70.480  1.00  0.00    -0.237 NA 
HETATM   30  N   UNL     1     -12.017  10.810  69.904  1.00  0.00    -0.321 NA 
HETATM   31  N   UNL     1     -11.789  11.032  68.602  1.00  0.00    -0.484 NA 
ENDBRANCH  22  26
ENDBRANCH  16  20
ENDBRANCH  13  14
ENDBRANCH   9  13
BRANCH   8  32
HETATM   32  C   UNL     1     -10.344   6.000  69.009  1.00  0.00    -0.225 C  
HETATM   33  O   UNL     1     -11.407   6.355  68.527  1.00  0.00    -0.303 OA 
BRANCH  32  34
HETATM   34  O   UNL     1      -9.415   5.254  68.358  1.00  0.00    -0.114 OA 
BRANCH  34  35
HETATM   35  C   UNL     1      -9.961   4.561  67.226  1.00  0.00    -0.139 C  
HETATM   36  C   UNL     1      -9.545   5.378  66.003  1.00  0.00    -0.149 C  
BRANCH  35  37
HETATM   37  O   UNL     1      -9.376   3.273  67.027  1.00  0.00    -0.185 OA 
BRANCH  37  38
HETATM   38  C   UNL     1      -9.181   2.532  68.140  1.00  0.00    -0.205 C  
HETATM   39  O   UNL     1     -10.019   1.865  68.721  1.00  0.00     0.101 OA 
BRANCH  38  40
HETATM   40  O   UNL     1      -7.879   2.654  68.459  1.00  0.00    -0.054 OA 
BRANCH  40  41
HETATM   41  C   UNL     1      -7.323   2.318  69.751  1.00  0.00    -0.043 C  
HETATM   42  C   UNL     1      -5.500   4.350  70.938  1.00  0.00    -0.008 C  
HETATM   43  C   UNL     1      -5.803   2.268  69.579  1.00  0.00    -0.023 C  
HETATM   44  C   UNL     1      -5.186   3.662  69.617  1.00  0.00    -0.008 C  
HETATM   45  C   UNL     1      -7.000   4.443  71.203  1.00  0.00    -0.036 C  
HETATM   46  C   UNL     1      -7.748   3.124  70.983  1.00  0.00    -0.043 C  
ENDBRANCH  40  41
ENDBRANCH  38  40
ENDBRANCH  37  38
ENDBRANCH  35  37
ENDBRANCH  34  35
ENDBRANCH  32  34
ENDBRANCH   8  32
ENDBRANCH   3   4
ENDBRANCH   2   3
TORSDOF 13
ENDMDL
MODEL      245
REMARK 921   NORMALIZED FREE ENERGY PREDICTED BY IDOCK:   -4.06 KCAL/MOL
REMARK 922        TOTAL FREE ENERGY PREDICTED BY IDOCK:   -9.60 KCAL/MOL
REMARK 923 INTER-LIGAND FREE ENERGY PREDICTED BY IDOCK:   -7.27 KCAL/MOL
REMARK 924 INTRA-LIGAND FREE ENERGY PREDICTED BY IDOCK:   -2.33 KCAL/MOL
REMARK 927      BINDING AFFINITY PREDICTED BY RF-SCORE:    0.00 PKD
ROOT
HETATM    1  C   UNL     1     -11.909   5.501  72.690  1.00  0.00    -0.176 C  
HETATM    2  C   UNL     1     -11.596   6.124  71.341  1.00  0.00    -0.219 C  
ENDROOT
BRANCH   2   3
HETATM    3  O   UNL     1     -11.444   7.534  71.535  1.00  0.00    -0.254 OA 
BRANCH   3   4
HETATM    4  C   UNL     1     -10.185   7.960  71.578  1.00  0.00    -0.190 A  
HETATM    5  N   UNL     1      -9.412   7.894  72.637  1.00  0.00    -0.197 NA 
HETATM    6  C   UNL     1      -8.226   8.440  72.241  1.00  0.00    -0.140 A  
HETATM    7  C   UNL     1      -8.233   8.795  70.877  1.00  0.00    -0.161 A  
HETATM    8  C   UNL     1      -7.043   9.265  70.269  1.00  0.00    -0.084 A  
HETATM    9  N   UNL     1      -9.556   8.573  70.515  1.00  0.00    -0.165 NA 
HETATM   10  C   UNL     1      -5.941   9.180  72.466  1.00  0.00     0.029 A  
HETATM   11  C   UNL     1      -7.093   8.662  73.042  1.00  0.00     0.024 A  
HETATM   12  C   UNL     1      -5.914   9.444  71.102  1.00  0.00    -0.072 A  
BRANCH   9  13
HETATM   13  C   UNL     1     -10.303   9.038  69.347  1.00  0.00    -0.213 C  
BRANCH  13  14
HETATM   14  C   UNL     1     -10.322   8.039  68.217  1.00  0.00    -0.240 A  
HETATM   15  C   UNL     1      -9.508   7.229  66.088  1.00  0.00    -0.064 A  
HETATM   16  C   UNL     1      -9.814   5.906  66.450  1.00  0.00    -0.161 A  
HETATM   17  C   UNL     1     -10.937   6.801  68.417  1.00  0.00    -0.257 A  
HETATM   18  C   UNL     1      -9.703   8.280  66.992  1.00  0.00    -0.274 A  
HETATM   19  C   UNL     1     -10.667   5.741  67.553  1.00  0.00    -0.320 A  
BRANCH  16  20
HETATM   20  C   UNL     1      -9.156   4.726  65.814  1.00  0.00    -0.142 A  
HETATM   21  C   UNL     1      -9.798   4.079  64.729  1.00  0.00    -0.201 A  
HETATM   22  C   UNL     1      -7.953   4.131  66.300  1.00  0.00    -0.098 A  
HETATM   23  C   UNL     1      -9.284   2.921  64.138  1.00  0.00    -0.117 A  
HETATM   24  C   UNL     1      -7.422   2.998  65.643  1.00  0.00    -0.073 A  
HETATM   25  C   UNL     1      -8.083   2.391  64.581  1.00  0.00    -0.082 A  
BRANCH  22  26
HETATM   26  C   UNL     1      -7.210   4.556  67.494  1.00  0.00    -0.069 A  
HETATM   27  N   UNL     1      -7.174   3.945  68.665  1.00  0.00    -0.054 NA 
HETATM   28  H   UNL     1      -7.650   3.078  68.914  1.00  0.00     0.000 HD 
HETATM   29  N   UNL     1      -6.371   4.702  69.483  1.00  0.00    -0.027 NA 
HETATM   30  N   UNL     1      -5.932   5.778  68.850  1.00  0.00    -0.022 NA 
HETATM   31  N   UNL     1      -6.488   5.713  67.632  1.00  0.00    -0.046 NA 
ENDBRANCH  22  26
ENDBRANCH  16  20
ENDBRANCH  13  14
ENDBRANCH   9  13
BRANCH   8  32
HETATM   32  C   UNL     1      -6.930   9.728  68.865  1.00  0.00    -0.062 C  
HETATM   33  O   UNL     1      -6.367   9.087  67.994  1.00  0.00    -0.054 OA 
BRANCH  32  34
HETATM   34  O   UNL     1      -7.712  10.813  68.639  1.00  0.00    -0.099 OA 
BRANCH  34  35
HETATM   35  C   UNL     1      -6.971  12.042  68.674  1.00  0.00    -0.096 C  
HETATM   36  C   UNL     1      -5.577  11.696  68.149  1.00  0.00    -0.043 C  
BRANCH  35  37
HETATM   37  O   UNL     1      -7.475  13.022  67.766  1.00  0.00    -0.116 OA 
BRANCH  37  38
HETATM   38  C   UNL     1      -8.318  13.939  68.291  1.00  0.00    -0.163 C  
HETATM   39  O   UNL     1      -8.127  14.608  69.290  1.00  0.00    -0.123 OA 
BRANCH  38  40
HETATM   40  O   UNL     1      -9.391  13.984  67.479  1.00  0.00    -0.197 OA 
BRANCH  40  41
HETATM   41  C   UNL     1     -10.651  13.331  67.757  1.00  0.00    -0.241 C  
HETATM   42  C   UNL     1     -12.504  13.064  65.444  1.00  0.00    -0.531 C  
HETATM   43  C   UNL     1     -11.753  14.351  67.457  1.00  0.00    -0.416 C  
HETATM   44  C   UNL     1     -12.060  14.423  65.965  1.00  0.00    -0.370 C  
HETATM   45  C   UNL     1     -11.468  11.975  65.704  1.00  0.00    -0.372 C  
HETATM   46  C   UNL     1     -10.938  11.958  67.141  1.00  0.00    -0.319 C  
ENDBRANCH  40  41
ENDBRANCH  38  40
ENDBRANCH  37  38
ENDBRANCH  35  37
ENDBRANCH  34  35
ENDBRANCH  32  34
ENDBRANCH   8  32
ENDBRANCH   3   4
ENDBRANCH   2   3
TORSDOF 13
ENDMDL
MODEL      246
REMARK 921   NORMALIZED FREE ENERGY PREDICTED BY IDOCK:   -4.05 KCAL/MOL
REMARK 922        TOTAL FREE ENERGY PREDICTED BY IDOCK:   -9.59 KCAL/MOL
REMARK 923 INTER-LIGAND FREE ENERGY PREDICTED BY IDOCK:   -8.62 KCAL/MOL
REMARK 924 INTRA-LIGAND FREE ENERGY PREDICTED BY IDOCK:   -0.97 KCAL/MOL
REMARK 927      BINDING AFFINITY PREDICTED BY RF-SCORE:    0.00 PKD
ROOT
HETATM    1  C   UNL     1      -9.095  10.074  64.531  1.00  0.00    -0.285 C  
HETATM    2  C   UNL     1      -7.880  10.482  65.345  1.00  0.00    -0.119 C  
ENDROOT
BRANCH   2   3
HETATM    3  O   UNL     1      -6.992   9.360  65.396  1.00  0.00    -0.086 OA 
BRANCH   3   4
HETATM    4  C   UNL     1      -7.571   8.204  65.707  1.00  0.00    -0.082 A  
HETATM    5  N   UNL     1      -8.046   7.349  64.831  1.00  0.00    -0.129 NA 
HETATM    6  C   UNL     1      -8.548   6.323  65.578  1.00  0.00    -0.119 A  
HETATM    7  C   UNL     1      -8.318   6.506  66.956  1.00  0.00    -0.113 A  
HETATM    8  C   UNL     1      -8.666   5.479  67.867  1.00  0.00    -0.106 A  
HETATM    9  N   UNL     1      -7.786   7.789  67.004  1.00  0.00    -0.110 NA 
HETATM   10  C   UNL     1      -9.629   4.207  65.995  1.00  0.00    -0.198 A  
HETATM   11  C   UNL     1      -9.230   5.192  65.100  1.00  0.00    -0.060 A  
HETATM   12  C   UNL     1      -9.322   4.340  67.343  1.00  0.00    -0.190 A  
BRANCH   9  13
HETATM   13  C   UNL     1      -7.631   8.702  68.137  1.00  0.00    -0.097 C  
BRANCH  13  14
HETATM   14  C   UNL     1      -8.944   9.102  68.761  1.00  0.00    -0.136 A  
HETATM   15  C   UNL     1     -10.296   9.651  70.692  1.00  0.00    -0.365 A  
HETATM   16  C   UNL     1     -11.113  10.485  69.909  1.00  0.00    -0.371 A  
HETATM   17  C   UNL     1      -9.948   9.631  67.948  1.00  0.00    -0.201 A  
HETATM   18  C   UNL     1      -9.180   9.015  70.132  1.00  0.00    -0.212 A  
HETATM   19  C   UNL     1     -11.009  10.334  68.517  1.00  0.00    -0.294 A  
BRANCH  16  20
HETATM   20  C   UNL     1     -11.934  11.586  70.496  1.00  0.00    -0.439 A  
HETATM   21  C   UNL     1     -11.543  12.930  70.280  1.00  0.00    -0.051 A  
HETATM   22  C   UNL     1     -13.047  11.368  71.363  1.00  0.00    -0.377 A  
HETATM   23  C   UNL     1     -12.213  14.008  70.866  1.00  0.00    -0.436 A  
HETATM   24  C   UNL     1     -13.746  12.478  71.890  1.00  0.00    -0.107 A  
HETATM   25  C   UNL     1     -13.329  13.784  71.655  1.00  0.00    -0.430 A  
BRANCH  22  26
HETATM   26  C   UNL     1     -13.527  10.060  71.829  1.00  0.00    -0.328 A  
HETATM   27  N   UNL     1     -13.785   9.708  73.077  1.00  0.00    -0.346 NA 
HETATM   28  H   UNL     1     -13.699  10.297  73.905  1.00  0.00     0.000 HD 
HETATM   29  N   UNL     1     -14.192   8.397  73.043  1.00  0.00    -0.077 NA 
HETATM   30  N   UNL     1     -14.166   7.927  71.806  1.00  0.00    -0.432 NA 
HETATM   31  N   UNL     1     -13.711   8.942  71.059  1.00  0.00    -0.049 NA 
ENDBRANCH  22  26
ENDBRANCH  16  20
ENDBRANCH  13  14
ENDBRANCH   9  13
BRANCH   8  32
HETATM   32  C   UNL     1      -8.535   5.567  69.341  1.00  0.00    -0.105 C  
HETATM   33  O   UNL     1      -9.408   5.208  70.112  1.00  0.00    -0.140 OA 
BRANCH  32  34
HETATM   34  O   UNL     1      -7.264   5.876  69.705  1.00  0.00    -0.066 OA 
BRANCH  34  35
HETATM   35  C   UNL     1      -6.734   4.961  70.675  1.00  0.00    -0.036 C  
HETATM   36  C   UNL     1      -5.508   5.656  71.271  1.00  0.00    -0.013 C  
BRANCH  35  37
HETATM   37  O   UNL     1      -7.613   4.752  71.781  1.00  0.00    -0.089 OA 
BRANCH  37  38
HETATM   38  C   UNL     1      -7.310   5.423  72.915  1.00  0.00    -0.092 C  
HETATM   39  O   UNL     1      -6.365   5.207  73.653  1.00  0.00    -0.053 OA 
BRANCH  38  40
HETATM   40  O   UNL     1      -8.238   6.389  73.050  1.00  0.00    -0.116 OA 
BRANCH  40  41
HETATM   41  C   UNL     1      -9.347   6.329  73.975  1.00  0.00    -0.147 C  
HETATM   42  C   UNL     1     -11.880   5.210  72.884  1.00  0.00    -0.147 C  
HETATM   43  C   UNL     1     -10.457   7.207  73.393  1.00  0.00    -0.410 C  
HETATM   44  C   UNL     1     -11.248   6.473  72.316  1.00  0.00    -0.308 C  
HETATM   45  C   UNL     1     -10.847   4.268  73.496  1.00  0.00    -0.351 C  
HETATM   46  C   UNL     1      -9.863   4.963  74.442  1.00  0.00    -0.200 C  
ENDBRANCH  40  41
ENDBRANCH  38  40
ENDBRANCH  37  38
ENDBRANCH  35  37
ENDBRANCH  34  35
ENDBRANCH  32  34
ENDBRANCH   8  32
ENDBRANCH   3   4
ENDBRANCH   2   3
TORSDOF 13
ENDMDL
MODEL      247
REMARK 921   NORMALIZED FREE ENERGY PREDICTED BY IDOCK:   -4.03 KCAL/MOL
REMARK 922        TOTAL FREE ENERGY PREDICTED BY IDOCK:   -9.54 KCAL/MOL
REMARK 923 INTER-LIGAND FREE ENERGY PREDICTED BY IDOCK:   -9.12 KCAL/MOL
REMARK 924 INTRA-LIGAND FREE ENERGY PREDICTED BY IDOCK:   -0.42 KCAL/MOL
REMARK 927      BINDING AFFINITY PREDICTED BY RF-SCORE:    0.00 PKD
ROOT
HETATM    1  C   UNL     1     -10.265   6.404  74.155  1.00  0.00    -0.361 C  
HETATM    2  C   UNL     1      -9.596   7.652  73.604  1.00  0.00    -0.275 C  
ENDROOT
BRANCH   2   3
HETATM    3  O   UNL     1      -9.016   7.315  72.339  1.00  0.00    -0.126 OA 
BRANCH   3   4
HETATM    4  C   UNL     1      -8.246   8.261  71.809  1.00  0.00    -0.145 A  
HETATM    5  N   UNL     1      -7.280   8.879  72.447  1.00  0.00    -0.335 NA 
HETATM    6  C   UNL     1      -6.768   9.760  71.539  1.00  0.00     0.413 A  
HETATM    7  C   UNL     1      -7.383   9.641  70.277  1.00  0.00    -0.149 A  
HETATM    8  C   UNL     1      -6.892  10.397  69.184  1.00  0.00    -0.066 A  
HETATM    9  N   UNL     1      -8.411   8.741  70.527  1.00  0.00    -0.149 NA 
HETATM   10  C   UNL     1      -5.308  11.494  70.713  1.00  0.00    -0.138 A  
HETATM   11  C   UNL     1      -5.755  10.706  71.766  1.00  0.00     0.404 A  
HETATM   12  C   UNL     1      -5.848  11.315  69.445  1.00  0.00    -0.057 A  
BRANCH   9  13
HETATM   13  C   UNL     1      -9.607   8.434  69.741  1.00  0.00    -0.170 C  
BRANCH  13  14
HETATM   14  C   UNL     1     -10.684   9.481  69.865  1.00  0.00    -0.268 A  
HETATM   15  C   UNL     1     -12.414  10.606  71.130  1.00  0.00    -0.523 A  
HETATM   16  C   UNL     1     -12.192  11.796  70.415  1.00  0.00    -0.416 A  
HETATM   17  C   UNL     1     -10.721  10.530  68.944  1.00  0.00    -0.253 A  
HETATM   18  C   UNL     1     -11.620   9.475  70.899  1.00  0.00    -0.398 A  
HETATM   19  C   UNL     1     -11.450  11.683  69.228  1.00  0.00    -0.364 A  
BRANCH  16  20
HETATM   20  C   UNL     1     -12.577  13.136  70.948  1.00  0.00    -0.377 A  
HETATM   21  C   UNL     1     -13.360  13.213  72.125  1.00  0.00    -0.621 A  
HETATM   22  C   UNL     1     -12.292  14.366  70.281  1.00  0.00    -0.410 A  
HETATM   23  C   UNL     1     -13.827  14.428  72.637  1.00  0.00    -0.480 A  
HETATM   24  C   UNL     1     -12.721  15.585  70.854  1.00  0.00    -0.525 A  
HETATM   25  C   UNL     1     -13.490  15.618  72.013  1.00  0.00    -0.538 A  
BRANCH  22  26
HETATM   26  C   UNL     1     -11.621  14.500  68.981  1.00  0.00    -0.298 A  
HETATM   27  N   UNL     1     -10.318  14.533  68.760  1.00  0.00    -0.240 NA 
HETATM   28  H   UNL     1      -9.580  14.460  69.461  1.00  0.00     0.000 HD 
HETATM   29  N   UNL     1     -10.149  14.684  67.406  1.00  0.00    -0.232 NA 
HETATM   30  N   UNL     1     -11.317  14.769  66.790  1.00  0.00    -0.347 NA 
HETATM   31  N   UNL     1     -12.230  14.702  67.769  1.00  0.00    -0.171 NA 
ENDBRANCH  22  26
ENDBRANCH  16  20
ENDBRANCH  13  14
ENDBRANCH   9  13
BRANCH   8  32
HETATM   32  C   UNL     1      -7.483  10.411  67.825  1.00  0.00    -0.088 C  
HETATM   33  O   UNL     1      -7.660  11.434  67.184  1.00  0.00    -0.129 OA 
BRANCH  32  34
HETATM   34  O   UNL     1      -7.583   9.157  67.317  1.00  0.00    -0.087 OA 
BRANCH  34  35
HETATM   35  C   UNL     1      -6.327   8.661  66.830  1.00  0.00    -0.060 C  
HETATM   36  C   UNL     1      -6.086   7.347  67.576  1.00  0.00    -0.046 C  
BRANCH  35  37
HETATM   37  O   UNL     1      -6.368   8.299  65.449  1.00  0.00    -0.048 OA 
BRANCH  37  38
HETATM   38  C   UNL     1      -7.044   9.140  64.636  1.00  0.00    -0.090 C  
HETATM   39  O   UNL     1      -6.622   9.653  63.614  1.00  0.00    -0.101 OA 
BRANCH  38  40
HETATM   40  O   UNL     1      -8.275   9.278  65.161  1.00  0.00    -0.127 OA 
BRANCH  40  41
HETATM   41  C   UNL     1      -9.487   9.382  64.378  1.00  0.00     0.185 C  
HETATM   42  C   UNL     1      -9.983  12.029  63.113  1.00  0.00    -0.229 C  
HETATM   43  C   UNL     1     -10.346  10.465  65.035  1.00  0.00    -0.249 C  
HETATM   44  C   UNL     1      -9.898  11.863  64.623  1.00  0.00    -0.207 C  
HETATM   45  C   UNL     1      -9.159  10.984  62.366  1.00  0.00    -0.328 C  
HETATM   46  C   UNL     1      -9.387   9.552  62.859  1.00  0.00     0.097 C  
ENDBRANCH  40  41
ENDBRANCH  38  40
ENDBRANCH  37  38
ENDBRANCH  35  37
ENDBRANCH  34  35
ENDBRANCH  32  34
ENDBRANCH   8  32
ENDBRANCH   3   4
ENDBRANCH   2   3
TORSDOF 13
ENDMDL
MODEL      248
REMARK 921   NORMALIZED FREE ENERGY PREDICTED BY IDOCK:   -4.02 KCAL/MOL
REMARK 922        TOTAL FREE ENERGY PREDICTED BY IDOCK:   -9.53 KCAL/MOL
REMARK 923 INTER-LIGAND FREE ENERGY PREDICTED BY IDOCK:   -8.70 KCAL/MOL
REMARK 924 INTRA-LIGAND FREE ENERGY PREDICTED BY IDOCK:   -0.83 KCAL/MOL
REMARK 927      BINDING AFFINITY PREDICTED BY RF-SCORE:    0.00 PKD
ROOT
HETATM    1  C   UNL     1      -6.495  10.955  65.049  1.00  0.00     0.277 C  
HETATM    2  C   UNL     1      -7.337  10.943  63.785  1.00  0.00     0.536 C  
ENDROOT
BRANCH   2   3
HETATM    3  O   UNL     1      -8.418  10.027  63.990  1.00  0.00    -0.153 OA 
BRANCH   3   4
HETATM    4  C   UNL     1      -8.327   9.294  65.096  1.00  0.00    -0.150 A  
HETATM    5  N   UNL     1      -7.581   8.221  65.218  1.00  0.00    -0.089 NA 
HETATM    6  C   UNL     1      -7.794   7.790  66.495  1.00  0.00    -0.101 A  
HETATM    7  C   UNL     1      -8.642   8.655  67.215  1.00  0.00    -0.125 A  
HETATM    8  C   UNL     1      -8.874   8.423  68.593  1.00  0.00    -0.136 A  
HETATM    9  N   UNL     1      -9.056   9.551  66.237  1.00  0.00    -0.155 NA 
HETATM   10  C   UNL     1      -7.543   6.362  68.424  1.00  0.00    -0.100 A  
HETATM   11  C   UNL     1      -7.271   6.628  67.088  1.00  0.00    -0.081 A  
HETATM   12  C   UNL     1      -8.302   7.261  69.162  1.00  0.00    -0.132 A  
BRANCH   9  13
HETATM   13  C   UNL     1     -10.176  10.493  66.236  1.00  0.00    -0.235 C  
BRANCH  13  14
HETATM   14  C   UNL     1      -9.744  11.930  66.093  1.00  0.00    -0.251 A  
HETATM   15  C   UNL     1     -10.130  14.196  65.338  1.00  0.00    -0.359 A  
HETATM   16  C   UNL     1      -9.341  14.702  66.385  1.00  0.00    -0.313 A  
HETATM   17  C   UNL     1      -8.701  12.407  66.888  1.00  0.00    -0.191 A  
HETATM   18  C   UNL     1     -10.382  12.822  65.233  1.00  0.00    -0.313 A  
HETATM   19  C   UNL     1      -8.516  13.780  67.049  1.00  0.00    -0.150 A  
BRANCH  16  20
HETATM   20  C   UNL     1      -9.472  16.103  66.886  1.00  0.00    -0.245 A  
HETATM   21  C   UNL     1      -8.673  17.120  66.310  1.00  0.00    -0.268 A  
HETATM   22  C   UNL     1     -10.289  16.474  67.997  1.00  0.00    -0.294 A  
HETATM   23  C   UNL     1      -8.681  18.437  66.782  1.00  0.00    -0.284 A  
HETATM   24  C   UNL     1     -10.326  17.825  68.412  1.00  0.00    -0.378 A  
HETATM   25  C   UNL     1      -9.524  18.795  67.820  1.00  0.00    -0.333 A  
BRANCH  22  26
HETATM   26  C   UNL     1     -11.082  15.554  68.822  1.00  0.00    -0.291 A  
HETATM   27  N   UNL     1     -12.100  14.809  68.425  1.00  0.00    -0.585 NA 
HETATM   28  H   UNL     1     -12.481  14.754  67.481  1.00  0.00     0.000 HD 
HETATM   29  N   UNL     1     -12.544  14.123  69.529  1.00  0.00    -0.119 NA 
HETATM   30  N   UNL     1     -11.839  14.447  70.601  1.00  0.00    -0.302 NA 
HETATM   31  N   UNL     1     -10.963  15.368  70.175  1.00  0.00    -0.287 NA 
ENDBRANCH  22  26
ENDBRANCH  16  20
ENDBRANCH  13  14
ENDBRANCH   9  13
BRANCH   8  32
HETATM   32  C   UNL     1      -9.789   9.217  69.448  1.00  0.00    -0.172 C  
HETATM   33  O   UNL     1      -9.907  10.427  69.356  1.00  0.00    -0.220 OA 
BRANCH  32  34
HETATM   34  O   UNL     1     -10.618   8.414  70.161  1.00  0.00    -0.224 OA 
BRANCH  34  35
HETATM   35  C   UNL     1     -10.975   8.982  71.430  1.00  0.00    -0.324 C  
HETATM   36  C   UNL     1     -12.005  10.069  71.120  1.00  0.00    -0.484 C  
BRANCH  35  37
HETATM   37  O   UNL     1     -11.657   8.060  72.281  1.00  0.00    -0.316 OA 
BRANCH  37  38
HETATM   38  C   UNL     1     -10.924   7.020  72.736  1.00  0.00    -0.294 C  
HETATM   39  O   UNL     1     -11.261   5.849  72.751  1.00  0.00    -0.264 OA 
BRANCH  38  40
HETATM   40  O   UNL     1      -9.746   7.528  73.143  1.00  0.00    -0.198 OA 
BRANCH  40  41
HETATM   41  C   UNL     1      -8.482   7.280  72.485  1.00  0.00    -0.108 C  
HETATM   42  C   UNL     1      -6.107   7.122  74.271  1.00  0.00    -0.077 C  
HETATM   43  C   UNL     1      -7.586   8.486  72.779  1.00  0.00    -0.056 C  
HETATM   44  C   UNL     1      -6.947   8.387  74.160  1.00  0.00    -0.178 C  
HETATM   45  C   UNL     1      -6.916   5.860  73.987  1.00  0.00    -0.081 C  
HETATM   46  C   UNL     1      -7.765   5.946  72.715  1.00  0.00    -0.100 C  
ENDBRANCH  40  41
ENDBRANCH  38  40
ENDBRANCH  37  38
ENDBRANCH  35  37
ENDBRANCH  34  35
ENDBRANCH  32  34
ENDBRANCH   8  32
ENDBRANCH   3   4
ENDBRANCH   2   3
TORSDOF 13
ENDMDL
MODEL      249
REMARK 921   NORMALIZED FREE ENERGY PREDICTED BY IDOCK:   -3.92 KCAL/MOL
REMARK 922        TOTAL FREE ENERGY PREDICTED BY IDOCK:   -9.36 KCAL/MOL
REMARK 923 INTER-LIGAND FREE ENERGY PREDICTED BY IDOCK:   -8.43 KCAL/MOL
REMARK 924 INTRA-LIGAND FREE ENERGY PREDICTED BY IDOCK:   -0.93 KCAL/MOL
REMARK 927      BINDING AFFINITY PREDICTED BY RF-SCORE:    0.00 PKD
ROOT
HETATM    1  C   UNL     1      -8.828   4.335  62.700  1.00  0.00    -0.111 C  
HETATM    2  C   UNL     1      -9.689   4.463  63.944  1.00  0.00     0.001 C  
ENDROOT
BRANCH   2   3
HETATM    3  O   UNL     1      -8.815   4.576  65.071  1.00  0.00    -0.134 OA 
BRANCH   3   4
HETATM    4  C   UNL     1      -8.493   5.823  65.406  1.00  0.00    -0.151 A  
HETATM    5  N   UNL     1      -7.288   6.333  65.308  1.00  0.00    -0.074 NA 
HETATM    6  C   UNL     1      -7.412   7.615  65.759  1.00  0.00    -0.079 A  
HETATM    7  C   UNL     1      -8.745   7.939  66.082  1.00  0.00    -0.158 A  
HETATM    8  C   UNL     1      -9.073   9.266  66.452  1.00  0.00    -0.200 A  
HETATM    9  N   UNL     1      -9.392   6.717  65.948  1.00  0.00     0.002 NA 
HETATM   10  C   UNL     1      -6.685   9.842  66.337  1.00  0.00    -0.080 A  
HETATM   11  C   UNL     1      -6.379   8.554  65.916  1.00  0.00    -0.053 A  
HETATM   12  C   UNL     1      -8.010  10.191  66.567  1.00  0.00    -0.118 A  
BRANCH   9  13
HETATM   13  C   UNL     1     -10.701   6.286  66.440  1.00  0.00     0.041 C  
BRANCH  13  14
HETATM   14  C   UNL     1     -10.635   5.592  67.777  1.00  0.00    -0.274 A  
HETATM   15  C   UNL     1      -9.706   3.915  69.254  1.00  0.00    -0.157 A  
HETATM   16  C   UNL     1      -9.971   4.723  70.373  1.00  0.00    -0.315 A  
HETATM   17  C   UNL     1     -11.205   6.211  68.891  1.00  0.00    -0.338 A  
HETATM   18  C   UNL     1      -9.979   4.376  67.959  1.00  0.00    -0.076 A  
HETATM   19  C   UNL     1     -10.858   5.793  70.175  1.00  0.00    -0.383 A  
BRANCH  16  20
HETATM   20  C   UNL     1      -9.241   4.569  71.666  1.00  0.00    -0.183 A  
HETATM   21  C   UNL     1      -9.212   3.301  72.295  1.00  0.00    -0.156 A  
HETATM   22  C   UNL     1      -8.648   5.656  72.376  1.00  0.00    -0.121 A  
HETATM   23  C   UNL     1      -8.620   3.098  73.546  1.00  0.00    -0.074 A  
HETATM   24  C   UNL     1      -8.000   5.411  73.608  1.00  0.00    -0.109 A  
HETATM   25  C   UNL     1      -7.994   4.150  74.194  1.00  0.00    -0.091 A  
BRANCH  22  26
HETATM   26  C   UNL     1      -8.691   7.068  71.972  1.00  0.00    -0.123 A  
HETATM   27  N   UNL     1      -9.442   8.021  72.497  1.00  0.00    -0.205 NA 
HETATM   28  H   UNL     1     -10.099   7.920  73.270  1.00  0.00     0.000 HD 
HETATM   29  N   UNL     1      -9.167   9.171  71.800  1.00  0.00    -0.326 NA 
HETATM   30  N   UNL     1      -8.282   8.944  70.842  1.00  0.00    -0.159 NA 
HETATM   31  N   UNL     1      -8.020   7.632  70.918  1.00  0.00    -0.093 NA 
ENDBRANCH  22  26
ENDBRANCH  16  20
ENDBRANCH  13  14
ENDBRANCH   9  13
BRANCH   8  32
HETATM   32  C   UNL     1     -10.419   9.724  66.873  1.00  0.00    -0.211 C  
HETATM   33  O   UNL     1     -11.163   9.057  67.572  1.00  0.00     0.118 OA 
BRANCH  32  34
HETATM   34  O   UNL     1     -10.608  11.036  66.580  1.00  0.00    -0.247 OA 
BRANCH  34  35
HETATM   35  C   UNL     1     -11.782  11.575  67.206  1.00  0.00    -0.111 C  
HETATM   36  C   UNL     1     -11.440  11.690  68.693  1.00  0.00    -0.349 C  
BRANCH  35  37
HETATM   37  O   UNL     1     -12.071  12.910  66.790  1.00  0.00    -0.399 OA 
BRANCH  37  38
HETATM   38  C   UNL     1     -12.444  13.061  65.500  1.00  0.00    -0.438 C  
HETATM   39  O   UNL     1     -12.992  12.225  64.802  1.00  0.00    -0.713 OA 
BRANCH  38  40
HETATM   40  O   UNL     1     -12.119  14.319  65.150  1.00  0.00    -0.379 OA 
BRANCH  40  41
HETATM   41  C   UNL     1     -10.790  14.739  64.762  1.00  0.00    -0.376 C  
HETATM   42  C   UNL     1      -9.199  16.101  66.876  1.00  0.00    -0.246 C  
HETATM   43  C   UNL     1     -10.745  16.261  64.912  1.00  0.00    -0.256 C  
HETATM   44  C   UNL     1     -10.511  16.676  66.361  1.00  0.00    -0.266 C  
HETATM   45  C   UNL     1      -9.146  14.581  66.761  1.00  0.00    -0.283 C  
HETATM   46  C   UNL     1      -9.573  14.051  65.389  1.00  0.00     0.027 C  
ENDBRANCH  40  41
ENDBRANCH  38  40
ENDBRANCH  37  38
ENDBRANCH  35  37
ENDBRANCH  34  35
ENDBRANCH  32  34
ENDBRANCH   8  32
ENDBRANCH   3   4
ENDBRANCH   2   3
TORSDOF 13
ENDMDL
MODEL      250
REMARK 921   NORMALIZED FREE ENERGY PREDICTED BY IDOCK:   -3.92 KCAL/MOL
REMARK 922        TOTAL FREE ENERGY PREDICTED BY IDOCK:   -9.36 KCAL/MOL
REMARK 923 INTER-LIGAND FREE ENERGY PREDICTED BY IDOCK:   -8.53 KCAL/MOL
REMARK 924 INTRA-LIGAND FREE ENERGY PREDICTED BY IDOCK:   -0.83 KCAL/MOL
REMARK 927      BINDING AFFINITY PREDICTED BY RF-SCORE:    0.00 PKD
ROOT
HETATM    1  C   UNL     1     -10.242   4.302  65.723  1.00  0.00    -0.207 C  
HETATM    2  C   UNL     1     -10.660   5.601  66.389  1.00  0.00    -0.191 C  
ENDROOT
BRANCH   2   3
HETATM    3  O   UNL     1      -9.739   5.863  67.453  1.00  0.00    -0.110 OA 
BRANCH   3   4
HETATM    4  C   UNL     1      -8.919   6.889  67.242  1.00  0.00    -0.118 A  
HETATM    5  N   UNL     1      -7.687   6.779  66.801  1.00  0.00    -0.104 NA 
HETATM    6  C   UNL     1      -7.221   8.060  66.742  1.00  0.00    -0.082 A  
HETATM    7  C   UNL     1      -8.209   9.003  67.088  1.00  0.00    -0.110 A  
HETATM    8  C   UNL     1      -7.932  10.387  66.964  1.00  0.00    -0.116 A  
HETATM    9  N   UNL     1      -9.257   8.197  67.515  1.00  0.00    -0.136 NA 
HETATM   10  C   UNL     1      -5.624   9.820  66.328  1.00  0.00    -0.052 A  
HETATM   11  C   UNL     1      -5.922   8.466  66.394  1.00  0.00    -0.048 A  
HETATM   12  C   UNL     1      -6.622  10.755  66.578  1.00  0.00    -0.119 A  
BRANCH   9  13
HETATM   13  C   UNL     1     -10.445   8.534  68.300  1.00  0.00    -0.171 C  
BRANCH  13  14
HETATM   14  C   UNL     1     -10.545   7.760  69.590  1.00  0.00    -0.242 A  
HETATM   15  C   UNL     1     -11.659   6.160  71.023  1.00  0.00    -0.260 A  
HETATM   16  C   UNL     1     -10.436   5.811  71.621  1.00  0.00    -0.286 A  
HETATM   17  C   UNL     1      -9.423   7.670  70.416  1.00  0.00    -0.164 A  
HETATM   18  C   UNL     1     -11.703   7.082  69.969  1.00  0.00    -0.185 A  
HETATM   19  C   UNL     1      -9.362   6.691  71.406  1.00  0.00    -0.151 A  
BRANCH  16  20
HETATM   20  C   UNL     1     -10.224   4.507  72.315  1.00  0.00    -0.257 A  
HETATM   21  C   UNL     1     -10.828   4.290  73.577  1.00  0.00    -0.351 A  
HETATM   22  C   UNL     1      -9.352   3.484  71.832  1.00  0.00    -0.191 A  
HETATM   23  C   UNL     1     -10.608   3.128  74.324  1.00  0.00    -0.241 A  
HETATM   24  C   UNL     1      -9.198   2.293  72.576  1.00  0.00    -0.122 A  
HETATM   25  C   UNL     1      -9.809   2.118  73.814  1.00  0.00    -0.133 A  
BRANCH  22  26
HETATM   26  C   UNL     1      -8.522   3.567  70.623  1.00  0.00    -0.068 A  
HETATM   27  N   UNL     1      -8.944   3.574  69.370  1.00  0.00    -0.100 NA 
HETATM   28  H   UNL     1      -9.913   3.533  69.054  1.00  0.00     0.000 HD 
HETATM   29  N   UNL     1      -7.826   3.648  68.575  1.00  0.00    -0.059 NA 
HETATM   30  N   UNL     1      -6.725   3.661  69.310  1.00  0.00    -0.037 NA 
HETATM   31  N   UNL     1      -7.152   3.565  70.576  1.00  0.00    -0.034 NA 
ENDBRANCH  22  26
ENDBRANCH  16  20
ENDBRANCH  13  14
ENDBRANCH   9  13
BRANCH   8  32
HETATM   32  C   UNL     1      -8.857  11.478  67.350  1.00  0.00    -0.157 C  
HETATM   33  O   UNL     1      -9.585  11.423  68.327  1.00  0.00    -0.179 OA 
BRANCH  32  34
HETATM   34  O   UNL     1      -8.623  12.603  66.627  1.00  0.00    -0.148 OA 
BRANCH  34  35
HETATM   35  C   UNL     1      -8.860  13.800  67.382  1.00  0.00    -0.210 C  
HETATM   36  C   UNL     1      -7.699  13.898  68.373  1.00  0.00    -0.139 C  
BRANCH  35  37
HETATM   37  O   UNL     1      -8.769  14.985  66.589  1.00  0.00    -0.265 OA 
BRANCH  37  38
HETATM   38  C   UNL     1      -7.904  15.926  67.027  1.00  0.00    -0.232 C  
HETATM   39  O   UNL     1      -6.691  15.902  66.918  1.00  0.00    -0.266 OA 
BRANCH  38  40
HETATM   40  O   UNL     1      -8.647  16.903  67.580  1.00  0.00    -0.199 OA 
BRANCH  40  41
HETATM   41  C   UNL     1      -8.289  18.304  67.569  1.00  0.00    -0.245 C  
HETATM   42  C   UNL     1     -10.553  20.213  67.276  1.00  0.00    -0.340 C  
HETATM   43  C   UNL     1      -8.729  18.864  66.215  1.00  0.00    -0.260 C  
HETATM   44  C   UNL     1     -10.219  19.190  66.199  1.00  0.00    -0.535 C  
HETATM   45  C   UNL     1     -10.143  19.745  68.669  1.00  0.00    -0.546 C  
HETATM   46  C   UNL     1      -8.715  19.197  68.740  1.00  0.00    -0.365 C  
ENDBRANCH  40  41
ENDBRANCH  38  40
ENDBRANCH  37  38
ENDBRANCH  35  37
ENDBRANCH  34  35
ENDBRANCH  32  34
ENDBRANCH   8  32
ENDBRANCH   3   4
ENDBRANCH   2   3
TORSDOF 13
ENDMDL
MODEL      251
REMARK 921   NORMALIZED FREE ENERGY PREDICTED BY IDOCK:   -3.91 KCAL/MOL
REMARK 922        TOTAL FREE ENERGY PREDICTED BY IDOCK:   -9.33 KCAL/MOL
REMARK 923 INTER-LIGAND FREE ENERGY PREDICTED BY IDOCK:   -7.93 KCAL/MOL
REMARK 924 INTRA-LIGAND FREE ENERGY PREDICTED BY IDOCK:   -1.41 KCAL/MOL
REMARK 927      BINDING AFFINITY PREDICTED BY RF-SCORE:    0.00 PKD
ROOT
HETATM    1  C   UNL     1      -6.743   3.907  63.262  1.00  0.00    -0.035 C  
HETATM    2  C   UNL     1      -7.055   5.393  63.233  1.00  0.00    -0.043 C  
ENDROOT
BRANCH   2   3
HETATM    3  O   UNL     1      -8.328   5.585  63.860  1.00  0.00    -0.130 OA 
BRANCH   3   4
HETATM    4  C   UNL     1      -8.426   5.083  65.088  1.00  0.00    -0.143 A  
HETATM    5  N   UNL     1      -9.137   4.027  65.406  1.00  0.00    -0.134 NA 
HETATM    6  C   UNL     1      -8.959   3.875  66.751  1.00  0.00    -0.136 A  
HETATM    7  C   UNL     1      -8.056   4.821  67.277  1.00  0.00    -0.102 A  
HETATM    8  C   UNL     1      -7.663   4.733  68.636  1.00  0.00    -0.076 A  
HETATM    9  N   UNL     1      -7.825   5.654  66.190  1.00  0.00    -0.099 NA 
HETATM   10  C   UNL     1      -9.239   2.867  68.924  1.00  0.00    -0.228 A  
HETATM   11  C   UNL     1      -9.574   2.921  67.578  1.00  0.00    -0.032 A  
HETATM   12  C   UNL     1      -8.280   3.737  69.428  1.00  0.00    -0.066 A  
BRANCH   9  13
HETATM   13  C   UNL     1      -7.247   6.997  66.139  1.00  0.00    -0.074 C  
BRANCH  13  14
HETATM   14  C   UNL     1      -8.135   8.049  66.756  1.00  0.00    -0.107 A  
HETATM   15  C   UNL     1      -8.462  10.224  67.764  1.00  0.00    -0.114 A  
HETATM   16  C   UNL     1      -9.775  10.281  67.266  1.00  0.00    -0.199 A  
HETATM   17  C   UNL     1      -9.517   7.959  66.578  1.00  0.00    -0.277 A  
HETATM   18  C   UNL     1      -7.627   9.142  67.455  1.00  0.00    -0.088 A  
HETATM   19  C   UNL     1     -10.324   9.072  66.810  1.00  0.00    -0.310 A  
BRANCH  16  20
HETATM   20  C   UNL     1     -10.506  11.568  67.074  1.00  0.00    -0.263 A  
HETATM   21  C   UNL     1     -11.222  12.125  68.162  1.00  0.00    -0.320 A  
HETATM   22  C   UNL     1     -10.621  12.236  65.817  1.00  0.00    -0.289 A  
HETATM   23  C   UNL     1     -11.998  13.282  68.035  1.00  0.00    -0.351 A  
HETATM   24  C   UNL     1     -11.358  13.439  65.732  1.00  0.00    -0.322 A  
HETATM   25  C   UNL     1     -12.048  13.953  66.825  1.00  0.00    -0.476 A  
BRANCH  22  26
HETATM   26  C   UNL     1     -10.078  11.754  64.540  1.00  0.00    -0.274 A  
HETATM   27  N   UNL     1      -8.911  11.164  64.345  1.00  0.00    -0.376 NA 
HETATM   28  H   UNL     1      -8.214  10.945  65.057  1.00  0.00     0.000 HD 
HETATM   29  N   UNL     1      -8.818  10.903  63.000  1.00  0.00    -0.221 NA 
HETATM   30  N   UNL     1      -9.890  11.341  62.359  1.00  0.00     0.084 NA 
HETATM   31  N   UNL     1     -10.651  11.909  63.304  1.00  0.00    -0.399 NA 
ENDBRANCH  22  26
ENDBRANCH  16  20
ENDBRANCH  13  14
ENDBRANCH   9  13
BRANCH   8  32
HETATM   32  C   UNL     1      -6.772   5.694  69.327  1.00  0.00    -0.060 C  
HETATM   33  O   UNL     1      -6.941   6.902  69.299  1.00  0.00    -0.069 OA 
BRANCH  32  34
HETATM   34  O   UNL     1      -5.909   5.057  70.159  1.00  0.00    -0.015 OA 
BRANCH  34  35
HETATM   35  C   UNL     1      -6.097   5.426  71.533  1.00  0.00    -0.033 C  
HETATM   36  C   UNL     1      -5.537   6.843  71.660  1.00  0.00    -0.036 C  
BRANCH  35  37
HETATM   37  O   UNL     1      -7.474   5.540  71.895  1.00  0.00    -0.089 OA 
BRANCH  37  38
HETATM   38  C   UNL     1      -7.748   6.361  72.933  1.00  0.00    -0.102 C  
HETATM   39  O   UNL     1      -7.228   6.334  74.034  1.00  0.00    -0.086 OA 
BRANCH  38  40
HETATM   40  O   UNL     1      -8.685   7.227  72.502  1.00  0.00    -0.120 OA 
BRANCH  40  41
HETATM   41  C   UNL     1      -9.780   6.872  71.626  1.00  0.00    -0.161 C  
HETATM   42  C   UNL     1     -11.930   8.913  71.358  1.00  0.00    -0.374 C  
HETATM   43  C   UNL     1     -11.047   6.858  72.485  1.00  0.00    -0.302 C  
HETATM   44  C   UNL     1     -11.600   8.264  72.695  1.00  0.00    -0.419 C  
HETATM   45  C   UNL     1     -10.724   8.968  70.425  1.00  0.00    -0.267 C  
HETATM   46  C   UNL     1      -9.970   7.639  70.313  1.00  0.00    -0.189 C  
ENDBRANCH  40  41
ENDBRANCH  38  40
ENDBRANCH  37  38
ENDBRANCH  35  37
ENDBRANCH  34  35
ENDBRANCH  32  34
ENDBRANCH   8  32
ENDBRANCH   3   4
ENDBRANCH   2   3
TORSDOF 13
ENDMDL
MODEL      252
REMARK 921   NORMALIZED FREE ENERGY PREDICTED BY IDOCK:   -3.90 KCAL/MOL
REMARK 922        TOTAL FREE ENERGY PREDICTED BY IDOCK:   -9.32 KCAL/MOL
REMARK 923 INTER-LIGAND FREE ENERGY PREDICTED BY IDOCK:   -7.50 KCAL/MOL
REMARK 924 INTRA-LIGAND FREE ENERGY PREDICTED BY IDOCK:   -1.82 KCAL/MOL
REMARK 927      BINDING AFFINITY PREDICTED BY RF-SCORE:    0.00 PKD
ROOT
HETATM    1  C   UNL     1     -11.361  14.975  65.752  1.00  0.00    -0.279 C  
HETATM    2  C   UNL     1     -11.447  14.909  67.266  1.00  0.00    -0.340 C  
ENDROOT
BRANCH   2   3
HETATM    3  O   UNL     1     -11.216  13.553  67.659  1.00  0.00    -0.261 OA 
BRANCH   3   4
HETATM    4  C   UNL     1      -9.942  13.248  67.890  1.00  0.00    -0.233 A  
HETATM    5  N   UNL     1      -8.949  14.105  67.836  1.00  0.00    -0.177 NA 
HETATM    6  C   UNL     1      -7.836  13.372  68.129  1.00  0.00    -0.145 A  
HETATM    7  C   UNL     1      -8.147  12.034  68.443  1.00  0.00    -0.154 A  
HETATM    8  C   UNL     1      -7.123  11.163  68.888  1.00  0.00    -0.101 A  
HETATM    9  N   UNL     1      -9.507  11.969  68.164  1.00  0.00    -0.195 NA 
HETATM   10  C   UNL     1      -5.489  12.961  68.507  1.00  0.00    -0.061 A  
HETATM   11  C   UNL     1      -6.507  13.827  68.130  1.00  0.00    -0.124 A  
HETATM   12  C   UNL     1      -5.802  11.668  68.907  1.00  0.00    -0.048 A  
BRANCH   9  13
HETATM   13  C   UNL     1     -10.372  10.805  67.967  1.00  0.00    -0.182 C  
BRANCH  13  14
HETATM   14  C   UNL     1      -9.980   9.967  66.776  1.00  0.00    -0.267 A  
HETATM   15  C   UNL     1      -9.009   9.736  64.572  1.00  0.00    -0.278 A  
HETATM   16  C   UNL     1      -8.623   8.415  64.858  1.00  0.00    -0.108 A  
HETATM   17  C   UNL     1      -9.914   8.580  66.916  1.00  0.00    -0.335 A  
HETATM   18  C   UNL     1      -9.627  10.527  65.550  1.00  0.00    -0.282 A  
HETATM   19  C   UNL     1      -9.223   7.816  65.976  1.00  0.00    -0.139 A  
BRANCH  16  20
HETATM   20  C   UNL     1      -7.521   7.725  64.124  1.00  0.00    -0.105 A  
HETATM   21  C   UNL     1      -6.591   8.498  63.387  1.00  0.00    -0.085 A  
HETATM   22  C   UNL     1      -7.401   6.306  64.027  1.00  0.00    -0.072 A  
HETATM   23  C   UNL     1      -5.584   7.918  62.609  1.00  0.00    -0.064 A  
HETATM   24  C   UNL     1      -6.335   5.746  63.286  1.00  0.00    -0.025 A  
HETATM   25  C   UNL     1      -5.442   6.541  62.575  1.00  0.00    -0.023 A  
BRANCH  22  26
HETATM   26  C   UNL     1      -8.338   5.326  64.593  1.00  0.00    -0.141 A  
HETATM   27  N   UNL     1      -8.241   4.719  65.763  1.00  0.00    -0.111 NA 
HETATM   28  H   UNL     1      -7.503   4.848  66.455  1.00  0.00     0.000 HD 
HETATM   29  N   UNL     1      -9.325   3.882  65.867  1.00  0.00    -0.155 NA 
HETATM   30  N   UNL     1     -10.074   3.942  64.778  1.00  0.00    -0.205 NA 
HETATM   31  N   UNL     1      -9.440   4.801  63.968  1.00  0.00     0.052 NA 
ENDBRANCH  22  26
ENDBRANCH  16  20
ENDBRANCH  13  14
ENDBRANCH   9  13
BRANCH   8  32
HETATM   32  C   UNL     1      -7.303   9.723  69.191  1.00  0.00    -0.079 C  
HETATM   33  O   UNL     1      -7.021   8.834  68.405  1.00  0.00    -0.064 OA 
BRANCH  32  34
HETATM   34  O   UNL     1      -7.595   9.527  70.502  1.00  0.00    -0.137 OA 
BRANCH  34  35
HETATM   35  C   UNL     1      -6.992   8.335  71.027  1.00  0.00    -0.054 C  
HETATM   36  C   UNL     1      -6.616   8.665  72.472  1.00  0.00    -0.056 C  
BRANCH  35  37
HETATM   37  O   UNL     1      -7.909   7.245  71.124  1.00  0.00    -0.091 OA 
BRANCH  37  38
HETATM   38  C   UNL     1      -8.618   7.166  72.272  1.00  0.00    -0.116 C  
HETATM   39  O   UNL     1      -8.319   6.525  73.264  1.00  0.00    -0.116 OA 
BRANCH  38  40
HETATM   40  O   UNL     1      -9.698   7.953  72.112  1.00  0.00    -0.173 OA 
BRANCH  40  41
HETATM   41  C   UNL     1     -10.597   7.882  70.982  1.00  0.00    -0.213 C  
HETATM   42  C   UNL     1     -13.488   7.636  71.647  1.00  0.00    -0.415 C  
HETATM   43  C   UNL     1     -11.314   6.533  71.070  1.00  0.00    -0.378 C  
HETATM   44  C   UNL     1     -12.474   6.577  72.059  1.00  0.00    -0.261 C  
HETATM   45  C   UNL     1     -12.863   9.022  71.525  1.00  0.00    -0.394 C  
HETATM   46  C   UNL     1     -11.562   9.043  70.716  1.00  0.00    -0.313 C  
ENDBRANCH  40  41
ENDBRANCH  38  40
ENDBRANCH  37  38
ENDBRANCH  35  37
ENDBRANCH  34  35
ENDBRANCH  32  34
ENDBRANCH   8  32
ENDBRANCH   3   4
ENDBRANCH   2   3
TORSDOF 13
ENDMDL
MODEL      253
REMARK 921   NORMALIZED FREE ENERGY PREDICTED BY IDOCK:   -3.90 KCAL/MOL
REMARK 922        TOTAL FREE ENERGY PREDICTED BY IDOCK:   -9.31 KCAL/MOL
REMARK 923 INTER-LIGAND FREE ENERGY PREDICTED BY IDOCK:   -7.73 KCAL/MOL
REMARK 924 INTRA-LIGAND FREE ENERGY PREDICTED BY IDOCK:   -1.58 KCAL/MOL
REMARK 927      BINDING AFFINITY PREDICTED BY RF-SCORE:    0.00 PKD
ROOT
HETATM    1  C   UNL     1     -14.410   8.373  71.427  1.00  0.00    -0.425 C  
HETATM    2  C   UNL     1     -13.621   9.096  72.503  1.00  0.00    -0.436 C  
ENDROOT
BRANCH   2   3
HETATM    3  O   UNL     1     -12.661   9.936  71.852  1.00  0.00    -0.394 OA 
BRANCH   3   4
HETATM    4  C   UNL     1     -11.522   9.331  71.525  1.00  0.00    -0.384 A  
HETATM    5  N   UNL     1     -10.707   8.764  72.383  1.00  0.00    -0.253 NA 
HETATM    6  C   UNL     1      -9.679   8.283  71.626  1.00  0.00    -0.197 A  
HETATM    7  C   UNL     1      -9.889   8.494  70.248  1.00  0.00    -0.182 A  
HETATM    8  C   UNL     1      -8.978   7.952  69.309  1.00  0.00    -0.145 A  
HETATM    9  N   UNL     1     -11.037   9.277  70.236  1.00  0.00    -0.248 NA 
HETATM   10  C   UNL     1      -7.586   7.170  71.180  1.00  0.00    -0.085 A  
HETATM   11  C   UNL     1      -8.515   7.651  72.093  1.00  0.00    -0.141 A  
HETATM   12  C   UNL     1      -7.835   7.293  69.818  1.00  0.00    -0.117 A  
BRANCH   9  13
HETATM   13  C   UNL     1     -11.603  10.101  69.168  1.00  0.00    -0.030 C  
BRANCH  13  14
HETATM   14  C   UNL     1     -10.942  11.450  69.044  1.00  0.00    -0.288 A  
HETATM   15  C   UNL     1      -9.229  12.898  68.135  1.00  0.00    -0.212 A  
HETATM   16  C   UNL     1     -10.086  14.008  68.233  1.00  0.00    -0.246 A  
HETATM   17  C   UNL     1     -11.636  12.587  69.461  1.00  0.00    -0.348 A  
HETATM   18  C   UNL     1      -9.678  11.617  68.480  1.00  0.00    -0.187 A  
HETATM   19  C   UNL     1     -11.224  13.851  69.041  1.00  0.00    -0.312 A  
BRANCH  16  20
HETATM   20  C   UNL     1      -9.902  15.240  67.409  1.00  0.00    -0.217 A  
HETATM   21  C   UNL     1     -10.949  15.660  66.553  1.00  0.00    -0.206 A  
HETATM   22  C   UNL     1      -8.681  15.977  67.347  1.00  0.00    -0.195 A  
HETATM   23  C   UNL     1     -10.818  16.754  65.691  1.00  0.00    -0.111 A  
HETATM   24  C   UNL     1      -8.598  17.117  66.515  1.00  0.00    -0.306 A  
HETATM   25  C   UNL     1      -9.650  17.497  65.687  1.00  0.00     0.296 A  
BRANCH  22  26
HETATM   26  C   UNL     1      -7.435  15.629  68.041  1.00  0.00    -0.125 A  
HETATM   27  N   UNL     1      -7.232  15.611  69.348  1.00  0.00    -0.202 NA 
HETATM   28  H   UNL     1      -7.917  15.827  70.072  1.00  0.00     0.000 HD 
HETATM   29  N   UNL     1      -5.923  15.245  69.542  1.00  0.00    -0.110 NA 
HETATM   30  N   UNL     1      -5.308  15.061  68.384  1.00  0.00    -0.102 NA 
HETATM   31  N   UNL     1      -6.230  15.344  67.454  1.00  0.00    -0.318 NA 
ENDBRANCH  22  26
ENDBRANCH  16  20
ENDBRANCH  13  14
ENDBRANCH   9  13
BRANCH   8  32
HETATM   32  C   UNL     1      -9.048   8.151  67.842  1.00  0.00    -0.132 C  
HETATM   33  O   UNL     1      -9.923   7.667  67.143  1.00  0.00    -0.185 OA 
BRANCH  32  34
HETATM   34  O   UNL     1      -8.171   9.102  67.430  1.00  0.00    -0.107 OA 
BRANCH  34  35
HETATM   35  C   UNL     1      -7.170   8.579  66.545  1.00  0.00    -0.080 C  
HETATM   36  C   UNL     1      -5.830   9.028  67.127  1.00  0.00    -0.046 C  
BRANCH  35  37
HETATM   37  O   UNL     1      -7.115   7.152  66.549  1.00  0.00    -0.073 OA 
BRANCH  37  38
HETATM   38  C   UNL     1      -7.642   6.535  65.468  1.00  0.00    -0.088 C  
HETATM   39  O   UNL     1      -7.984   7.066  64.426  1.00  0.00    -0.128 OA 
BRANCH  38  40
HETATM   40  O   UNL     1      -7.688   5.221  65.759  1.00  0.00    -0.088 OA 
BRANCH  40  41
HETATM   41  C   UNL     1      -8.890   4.512  66.135  1.00  0.00    -0.118 C  
HETATM   42  C   UNL     1      -9.888   2.525  64.156  1.00  0.00    -0.116 C  
HETATM   43  C   UNL     1      -9.951   4.850  65.084  1.00  0.00     0.074 C  
HETATM   44  C   UNL     1      -9.783   4.007  63.825  1.00  0.00    -0.153 C  
HETATM   45  C   UNL     1      -8.869   2.091  65.205  1.00  0.00    -0.120 C  
HETATM   46  C   UNL     1      -8.815   3.010  66.429  1.00  0.00    -0.148 C  
ENDBRANCH  40  41
ENDBRANCH  38  40
ENDBRANCH  37  38
ENDBRANCH  35  37
ENDBRANCH  34  35
ENDBRANCH  32  34
ENDBRANCH   8  32
ENDBRANCH   3   4
ENDBRANCH   2   3
TORSDOF 13
ENDMDL
MODEL      254
REMARK 921   NORMALIZED FREE ENERGY PREDICTED BY IDOCK:   -3.89 KCAL/MOL
REMARK 922        TOTAL FREE ENERGY PREDICTED BY IDOCK:   -9.30 KCAL/MOL
REMARK 923 INTER-LIGAND FREE ENERGY PREDICTED BY IDOCK:   -7.16 KCAL/MOL
REMARK 924 INTRA-LIGAND FREE ENERGY PREDICTED BY IDOCK:   -2.14 KCAL/MOL
REMARK 927      BINDING AFFINITY PREDICTED BY RF-SCORE:    0.00 PKD
ROOT
HETATM    1  C   UNL     1     -12.102  13.178  64.169  1.00  0.00    -0.496 C  
HETATM    2  C   UNL     1     -10.657  12.788  63.916  1.00  0.00    -0.395 C  
ENDROOT
BRANCH   2   3
HETATM    3  O   UNL     1     -10.498  11.420  64.306  1.00  0.00    -0.292 OA 
BRANCH   3   4
HETATM    4  C   UNL     1     -10.486  11.213  65.621  1.00  0.00    -0.248 A  
HETATM    5  N   UNL     1     -11.520  11.384  66.411  1.00  0.00    -0.336 NA 
HETATM    6  C   UNL     1     -11.064  11.068  67.658  1.00  0.00    -0.300 A  
HETATM    7  C   UNL     1      -9.729  10.620  67.639  1.00  0.00    -0.165 A  
HETATM    8  C   UNL     1      -9.135  10.136  68.830  1.00  0.00    -0.165 A  
HETATM    9  N   UNL     1      -9.357  10.839  66.318  1.00  0.00    -0.175 NA 
HETATM   10  C   UNL     1     -11.184  10.747  70.046  1.00  0.00    -0.366 A  
HETATM   11  C   UNL     1     -11.781  11.162  68.863  1.00  0.00    -0.406 A  
HETATM   12  C   UNL     1      -9.900  10.216  70.017  1.00  0.00    -0.179 A  
BRANCH   9  13
HETATM   13  C   UNL     1      -8.027  10.892  65.710  1.00  0.00    -0.075 C  
BRANCH  13  14
HETATM   14  C   UNL     1      -7.640   9.612  65.014  1.00  0.00    -0.116 A  
HETATM   15  C   UNL     1      -6.597   7.429  65.013  1.00  0.00    -0.044 A  
HETATM   16  C   UNL     1      -7.489   6.980  64.024  1.00  0.00    -0.099 A  
HETATM   17  C   UNL     1      -8.266   9.278  63.812  1.00  0.00    -0.166 A  
HETATM   18  C   UNL     1      -6.715   8.718  65.549  1.00  0.00    -0.071 A  
HETATM   19  C   UNL     1      -8.208   7.969  63.335  1.00  0.00    -0.039 A  
BRANCH  16  20
HETATM   20  C   UNL     1      -7.789   5.533  63.811  1.00  0.00    -0.103 A  
HETATM   21  C   UNL     1      -7.105   4.829  62.790  1.00  0.00    -0.038 A  
HETATM   22  C   UNL     1      -8.812   4.824  64.509  1.00  0.00    -0.147 A  
HETATM   23  C   UNL     1      -7.392   3.496  62.476  1.00  0.00    -0.045 A  
HETATM   24  C   UNL     1      -9.038   3.459  64.217  1.00  0.00    -0.125 A  
HETATM   25  C   UNL     1      -8.345   2.803  63.205  1.00  0.00    -0.085 A  
BRANCH  22  26
HETATM   26  C   UNL     1      -9.730   5.401  65.500  1.00  0.00     0.121 A  
HETATM   27  N   UNL     1     -10.871   4.882  65.923  1.00  0.00    -0.735 NA 
HETATM   28  H   UNL     1     -11.280   3.995  65.631  1.00  0.00     0.000 HD 
HETATM   29  N   UNL     1     -11.397   5.767  66.831  1.00  0.00     0.238 NA 
HETATM   30  N   UNL     1     -10.620   6.831  66.959  1.00  0.00    -0.306 NA 
HETATM   31  N   UNL     1      -9.611   6.627  66.101  1.00  0.00    -0.038 NA 
ENDBRANCH  22  26
ENDBRANCH  16  20
ENDBRANCH  13  14
ENDBRANCH   9  13
BRANCH   8  32
HETATM   32  C   UNL     1      -7.726   9.695  68.960  1.00  0.00    -0.078 C  
HETATM   33  O   UNL     1      -6.810  10.185  68.321  1.00  0.00    -0.061 OA 
BRANCH  32  34
HETATM   34  O   UNL     1      -7.566   8.861  70.020  1.00  0.00    -0.057 OA 
BRANCH  34  35
HETATM   35  C   UNL     1      -7.644   7.477  69.646  1.00  0.00    -0.094 C  
HETATM   36  C   UNL     1      -6.196   7.015  69.475  1.00  0.00    -0.034 C  
BRANCH  35  37
HETATM   37  O   UNL     1      -8.176   6.650  70.681  1.00  0.00    -0.121 OA 
BRANCH  37  38
HETATM   38  C   UNL     1      -9.492   6.359  70.591  1.00  0.00    -0.165 C  
HETATM   39  O   UNL     1     -10.417   7.144  70.706  1.00  0.00    -0.210 OA 
BRANCH  38  40
HETATM   40  O   UNL     1      -9.578   5.043  70.323  1.00  0.00    -0.157 OA 
BRANCH  40  41
HETATM   41  C   UNL     1      -8.454   4.213  69.950  1.00  0.00    -0.060 C  
HETATM   42  C   UNL     1      -9.131   1.474  69.002  1.00  0.00    -0.159 C  
HETATM   43  C   UNL     1      -8.474   2.997  70.879  1.00  0.00    -0.100 C  
HETATM   44  C   UNL     1      -9.474   1.946  70.408  1.00  0.00    -0.154 C  
HETATM   45  C   UNL     1      -9.080   2.623  67.999  1.00  0.00    -0.229 C  
HETATM   46  C   UNL     1      -8.262   3.825  68.480  1.00  0.00    -0.083 C  
ENDBRANCH  40  41
ENDBRANCH  38  40
ENDBRANCH  37  38
ENDBRANCH  35  37
ENDBRANCH  34  35
ENDBRANCH  32  34
ENDBRANCH   8  32
ENDBRANCH   3   4
ENDBRANCH   2   3
TORSDOF 13
ENDMDL
MODEL      255
REMARK 921   NORMALIZED FREE ENERGY PREDICTED BY IDOCK:   -3.85 KCAL/MOL
REMARK 922        TOTAL FREE ENERGY PREDICTED BY IDOCK:   -9.23 KCAL/MOL
REMARK 923 INTER-LIGAND FREE ENERGY PREDICTED BY IDOCK:   -8.23 KCAL/MOL
REMARK 924 INTRA-LIGAND FREE ENERGY PREDICTED BY IDOCK:   -1.01 KCAL/MOL
REMARK 927      BINDING AFFINITY PREDICTED BY RF-SCORE:    0.00 PKD
ROOT
HETATM    1  C   UNL     1     -11.110   6.410  66.764  1.00  0.00    -0.241 C  
HETATM    2  C   UNL     1     -10.909   7.875  67.106  1.00  0.00    -0.116 C  
ENDROOT
BRANCH   2   3
HETATM    3  O   UNL     1      -9.816   8.362  66.320  1.00  0.00    -0.245 OA 
BRANCH   3   4
HETATM    4  C   UNL     1      -9.713   9.688  66.268  1.00  0.00    -0.240 A  
HETATM    5  N   UNL     1     -10.592  10.482  65.705  1.00  0.00    -0.126 NA 
HETATM    6  C   UNL     1     -10.091  11.739  65.877  1.00  0.00    -0.234 A  
HETATM    7  C   UNL     1      -8.899  11.738  66.629  1.00  0.00    -0.189 A  
HETATM    8  C   UNL     1      -8.307  12.969  67.005  1.00  0.00    -0.102 A  
HETATM    9  N   UNL     1      -8.630  10.382  66.764  1.00  0.00    -0.124 NA 
HETATM   10  C   UNL     1     -10.027  14.145  65.697  1.00  0.00    -0.331 A  
HETATM   11  C   UNL     1     -10.636  12.937  65.384  1.00  0.00    -0.308 A  
HETATM   12  C   UNL     1      -8.905  14.154  66.517  1.00  0.00    -0.071 A  
BRANCH   9  13
HETATM   13  C   UNL     1      -7.393   9.702  67.150  1.00  0.00    -0.087 C  
BRANCH  13  14
HETATM   14  C   UNL     1      -7.290   9.453  68.633  1.00  0.00    -0.075 A  
HETATM   15  C   UNL     1      -8.303   9.176  70.813  1.00  0.00    -0.248 A  
HETATM   16  C   UNL     1      -7.251   8.336  71.218  1.00  0.00    -0.073 A  
HETATM   17  C   UNL     1      -6.106   8.926  69.152  1.00  0.00    -0.042 A  
HETATM   18  C   UNL     1      -8.352   9.679  69.507  1.00  0.00    -0.154 A  
HETATM   19  C   UNL     1      -6.094   8.354  70.423  1.00  0.00    -0.031 A  
BRANCH  16  20
HETATM   20  C   UNL     1      -7.393   7.353  72.334  1.00  0.00    -0.074 A  
HETATM   21  C   UNL     1      -6.356   7.242  73.292  1.00  0.00    -0.064 A  
HETATM   22  C   UNL     1      -8.475   6.428  72.443  1.00  0.00    -0.120 A  
HETATM   23  C   UNL     1      -6.380   6.289  74.315  1.00  0.00    -0.070 A  
HETATM   24  C   UNL     1      -8.506   5.518  73.524  1.00  0.00    -0.112 A  
HETATM   25  C   UNL     1      -7.466   5.439  74.445  1.00  0.00    -0.085 A  
BRANCH  22  26
HETATM   26  C   UNL     1      -9.574   6.279  71.480  1.00  0.00    -0.155 A  
HETATM   27  N   UNL     1      -9.630   5.434  70.464  1.00  0.00    -0.167 NA 
HETATM   28  H   UNL     1      -8.921   4.750  70.202  1.00  0.00     0.000 HD 
HETATM   29  N   UNL     1     -10.828   5.655  69.831  1.00  0.00    -0.334 NA 
HETATM   30  N   UNL     1     -11.500   6.633  70.418  1.00  0.00    -0.362 NA 
HETATM   31  N   UNL     1     -10.704   7.052  71.411  1.00  0.00    -0.219 NA 
ENDBRANCH  22  26
ENDBRANCH  16  20
ENDBRANCH  13  14
ENDBRANCH   9  13
BRANCH   8  32
HETATM   32  C   UNL     1      -7.027  13.108  67.740  1.00  0.00    -0.145 C  
HETATM   33  O   UNL     1      -6.204  12.212  67.825  1.00  0.00    -0.067 OA 
BRANCH  32  34
HETATM   34  O   UNL     1      -6.800  14.399  68.095  1.00  0.00    -0.097 OA 
BRANCH  34  35
HETATM   35  C   UNL     1      -7.230  14.683  69.435  1.00  0.00    -0.146 C  
HETATM   36  C   UNL     1      -6.065  14.274  70.337  1.00  0.00    -0.176 C  
BRANCH  35  37
HETATM   37  O   UNL     1      -7.412  16.079  69.677  1.00  0.00    -0.179 OA 
BRANCH  37  38
HETATM   38  C   UNL     1      -6.785  16.915  68.820  1.00  0.00    -0.190 C  
HETATM   39  O   UNL     1      -5.617  16.858  68.477  1.00  0.00    -0.127 OA 
BRANCH  38  40
HETATM   40  O   UNL     1      -7.708  17.803  68.404  1.00  0.00    -0.258 OA 
BRANCH  40  41
HETATM   41  C   UNL     1      -8.496  17.654  67.201  1.00  0.00    -0.226 C  
HETATM   42  C   UNL     1     -10.266  19.950  66.527  1.00  0.00    -0.611 C  
HETATM   43  C   UNL     1      -9.966  17.719  67.624  1.00  0.00    -0.322 C  
HETATM   44  C   UNL     1     -10.432  19.158  67.816  1.00  0.00    -0.512 C  
HETATM   45  C   UNL     1      -8.827  19.939  66.020  1.00  0.00    -0.287 C  
HETATM   46  C   UNL     1      -8.194  18.544  65.991  1.00  0.00    -0.084 C  
ENDBRANCH  40  41
ENDBRANCH  38  40
ENDBRANCH  37  38
ENDBRANCH  35  37
ENDBRANCH  34  35
ENDBRANCH  32  34
ENDBRANCH   8  32
ENDBRANCH   3   4
ENDBRANCH   2   3
TORSDOF 13
ENDMDL
MODEL      256
REMARK 921   NORMALIZED FREE ENERGY PREDICTED BY IDOCK:   -3.81 KCAL/MOL
REMARK 922        TOTAL FREE ENERGY PREDICTED BY IDOCK:   -9.16 KCAL/MOL
REMARK 923 INTER-LIGAND FREE ENERGY PREDICTED BY IDOCK:   -8.48 KCAL/MOL
REMARK 924 INTRA-LIGAND FREE ENERGY PREDICTED BY IDOCK:   -0.69 KCAL/MOL
REMARK 927      BINDING AFFINITY PREDICTED BY RF-SCORE:    0.00 PKD
ROOT
HETATM    1  C   UNL     1      -9.237   2.777  64.440  1.00  0.00    -0.130 C  
HETATM    2  C   UNL     1      -9.883   4.044  64.972  1.00  0.00    -0.202 C  
ENDROOT
BRANCH   2   3
HETATM    3  O   UNL     1      -8.974   4.640  65.904  1.00  0.00    -0.120 OA 
BRANCH   3   4
HETATM    4  C   UNL     1      -8.442   5.792  65.506  1.00  0.00    -0.150 A  
HETATM    5  N   UNL     1      -7.261   5.912  64.945  1.00  0.00    -0.064 NA 
HETATM    6  C   UNL     1      -7.119   7.249  64.710  1.00  0.00    -0.064 A  
HETATM    7  C   UNL     1      -8.270   7.977  65.068  1.00  0.00    -0.141 A  
HETATM    8  C   UNL     1      -8.341   9.363  64.780  1.00  0.00    -0.159 A  
HETATM    9  N   UNL     1      -9.057   7.012  65.685  1.00  0.00     0.048 NA 
HETATM   10  C   UNL     1      -6.026   9.263  63.954  1.00  0.00    -0.080 A  
HETATM   11  C   UNL     1      -5.987   7.894  64.184  1.00  0.00    -0.053 A  
HETATM   12  C   UNL     1      -7.193   9.969  64.219  1.00  0.00    -0.133 A  
BRANCH   9  13
HETATM   13  C   UNL     1     -10.221   7.164  66.558  1.00  0.00    -0.061 C  
BRANCH  13  14
HETATM   14  C   UNL     1      -9.890   7.011  68.021  1.00  0.00    -0.156 A  
HETATM   15  C   UNL     1      -9.580   5.646  69.995  1.00  0.00    -0.214 A  
HETATM   16  C   UNL     1      -8.644   6.562  70.507  1.00  0.00    -0.143 A  
HETATM   17  C   UNL     1      -9.251   8.060  68.685  1.00  0.00    -0.143 A  
HETATM   18  C   UNL     1     -10.151   5.840  68.730  1.00  0.00    -0.231 A  
HETATM   19  C   UNL     1      -8.616   7.830  69.905  1.00  0.00    -0.137 A  
BRANCH  16  20
HETATM   20  C   UNL     1      -7.620   6.179  71.523  1.00  0.00    -0.099 A  
HETATM   21  C   UNL     1      -6.256   6.471  71.274  1.00  0.00    -0.041 A  
HETATM   22  C   UNL     1      -7.914   5.433  72.704  1.00  0.00    -0.103 A  
HETATM   23  C   UNL     1      -5.234   6.070  72.139  1.00  0.00    -0.022 A  
HETATM   24  C   UNL     1      -6.869   5.096  73.594  1.00  0.00    -0.079 A  
HETATM   25  C   UNL     1      -5.541   5.400  73.312  1.00  0.00    -0.023 A  
BRANCH  22  26
HETATM   26  C   UNL     1      -9.235   4.908  73.078  1.00  0.00    -0.119 A  
HETATM   27  N   UNL     1      -9.640   3.652  73.001  1.00  0.00    -0.116 NA 
HETATM   28  H   UNL     1      -9.092   2.854  72.679  1.00  0.00     0.000 HD 
HETATM   29  N   UNL     1     -10.942   3.628  73.438  1.00  0.00    -0.216 NA 
HETATM   30  N   UNL     1     -11.355   4.844  73.759  1.00  0.00    -0.204 NA 
HETATM   31  N   UNL     1     -10.314   5.644  73.492  1.00  0.00    -0.215 NA 
ENDBRANCH  22  26
ENDBRANCH  16  20
ENDBRANCH  13  14
ENDBRANCH   9  13
BRANCH   8  32
HETATM   32  C   UNL     1      -9.463  10.254  65.157  1.00  0.00    -0.252 C  
HETATM   33  O   UNL     1     -10.082  10.145  66.202  1.00  0.00    -0.238 OA 
BRANCH  32  34
HETATM   34  O   UNL     1      -9.553  11.316  64.316  1.00  0.00    -0.234 OA 
BRANCH  34  35
HETATM   35  C   UNL     1     -10.634  12.197  64.658  1.00  0.00    -0.300 C  
HETATM   36  C   UNL     1     -11.774  11.839  63.703  1.00  0.00    -0.517 C  
BRANCH  35  37
HETATM   37  O   UNL     1     -11.158  11.954  65.964  1.00  0.00    -0.303 OA 
BRANCH  37  38
HETATM   38  C   UNL     1     -11.727  13.013  66.581  1.00  0.00    -0.381 C  
HETATM   39  O   UNL     1     -11.803  14.149  66.146  1.00  0.00    -0.374 OA 
BRANCH  38  40
HETATM   40  O   UNL     1     -12.215  12.561  67.751  1.00  0.00    -0.372 OA 
BRANCH  40  41
HETATM   41  C   UNL     1     -11.405  12.275  68.915  1.00  0.00    -0.287 C  
HETATM   42  C   UNL     1     -12.833  12.340  71.526  1.00  0.00    -0.384 C  
HETATM   43  C   UNL     1     -11.452  13.521  69.803  1.00  0.00    -0.246 C  
HETATM   44  C   UNL     1     -12.728  13.570  70.636  1.00  0.00    -0.275 C  
HETATM   45  C   UNL     1     -12.789  11.040  70.728  1.00  0.00    -0.354 C  
HETATM   46  C   UNL     1     -11.652  10.984  69.703  1.00  0.00    -0.390 C  
ENDBRANCH  40  41
ENDBRANCH  38  40
ENDBRANCH  37  38
ENDBRANCH  35  37
ENDBRANCH  34  35
ENDBRANCH  32  34
ENDBRANCH   8  32
ENDBRANCH   3   4
ENDBRANCH   2   3
TORSDOF 13
ENDMDL
MODEL      257
REMARK 921   NORMALIZED FREE ENERGY PREDICTED BY IDOCK:   -3.81 KCAL/MOL
REMARK 922        TOTAL FREE ENERGY PREDICTED BY IDOCK:   -9.16 KCAL/MOL
REMARK 923 INTER-LIGAND FREE ENERGY PREDICTED BY IDOCK:   -9.13 KCAL/MOL
REMARK 924 INTRA-LIGAND FREE ENERGY PREDICTED BY IDOCK:   -0.04 KCAL/MOL
REMARK 927      BINDING AFFINITY PREDICTED BY RF-SCORE:    0.00 PKD
ROOT
HETATM    1  C   UNL     1     -10.781  10.969  65.559  1.00  0.00    -0.218 C  
HETATM    2  C   UNL     1     -11.546  12.188  66.042  1.00  0.00    -0.358 C  
ENDROOT
BRANCH   2   3
HETATM    3  O   UNL     1     -10.877  12.693  67.203  1.00  0.00    -0.244 OA 
BRANCH   3   4
HETATM    4  C   UNL     1     -10.911  11.887  68.261  1.00  0.00    -0.230 A  
HETATM    5  N   UNL     1     -11.964  11.702  69.023  1.00  0.00    -0.326 NA 
HETATM    6  C   UNL     1     -11.555  10.815  69.976  1.00  0.00    -0.334 A  
HETATM    7  C   UNL     1     -10.232  10.379  69.766  1.00  0.00    -0.184 A  
HETATM    8  C   UNL     1      -9.688   9.366  70.593  1.00  0.00    -0.336 A  
HETATM    9  N   UNL     1      -9.815  11.184  68.713  1.00  0.00    -0.202 NA 
HETATM   10  C   UNL     1     -11.757   9.404  71.923  1.00  0.00    -0.376 A  
HETATM   11  C   UNL     1     -12.306  10.353  71.071  1.00  0.00    -0.490 A  
HETATM   12  C   UNL     1     -10.487   8.903  71.664  1.00  0.00    -0.408 A  
BRANCH   9  13
HETATM   13  C   UNL     1      -8.466  11.469  68.223  1.00  0.00    -0.159 C  
BRANCH  13  14
HETATM   14  C   UNL     1      -8.198  12.942  68.042  1.00  0.00    -0.168 A  
HETATM   15  C   UNL     1      -8.344  14.981  66.749  1.00  0.00    -0.189 A  
HETATM   16  C   UNL     1      -8.355  15.751  67.925  1.00  0.00    -0.154 A  
HETATM   17  C   UNL     1      -7.855  13.710  69.156  1.00  0.00     0.239 A  
HETATM   18  C   UNL     1      -8.330  13.582  66.811  1.00  0.00     0.097 A  
HETATM   19  C   UNL     1      -7.954  15.100  69.102  1.00  0.00    -0.205 A  
BRANCH  16  20
HETATM   20  C   UNL     1      -8.908  17.137  67.972  1.00  0.00    -0.229 A  
HETATM   21  C   UNL     1     -10.122  17.373  68.662  1.00  0.00    -0.355 A  
HETATM   22  C   UNL     1      -8.340  18.242  67.268  1.00  0.00    -0.246 A  
HETATM   23  C   UNL     1     -10.743  18.626  68.679  1.00  0.00     0.249 A  
HETATM   24  C   UNL     1      -8.953  19.513  67.356  1.00  0.00    -0.368 A  
HETATM   25  C   UNL     1     -10.147  19.703  68.044  1.00  0.00    -0.555 A  
BRANCH  22  26
HETATM   26  C   UNL     1      -7.170  18.182  66.382  1.00  0.00    -0.247 A  
HETATM   27  N   UNL     1      -6.064  17.484  66.574  1.00  0.00    -0.194 NA 
HETATM   28  H   UNL     1      -5.861  16.872  67.364  1.00  0.00     0.000 HD 
HETATM   29  N   UNL     1      -5.242  17.742  65.505  1.00  0.00    -0.166 NA 
HETATM   30  N   UNL     1      -5.806  18.601  64.671  1.00  0.00    -0.288 NA 
HETATM   31  N   UNL     1      -6.981  18.911  65.236  1.00  0.00    -0.497 NA 
ENDBRANCH  22  26
ENDBRANCH  16  20
ENDBRANCH  13  14
ENDBRANCH   9  13
BRANCH   8  32
HETATM   32  C   UNL     1      -8.296   8.862  70.518  1.00  0.00    -0.159 C  
HETATM   33  O   UNL     1      -7.398   9.270  71.236  1.00  0.00    -0.272 OA 
BRANCH  32  34
HETATM   34  O   UNL     1      -8.212   7.760  69.730  1.00  0.00    -0.125 OA 
BRANCH  34  35
HETATM   35  C   UNL     1      -7.022   6.997  69.978  1.00  0.00    -0.062 C  
HETATM   36  C   UNL     1      -7.504   5.636  70.483  1.00  0.00    -0.085 C  
BRANCH  35  37
HETATM   37  O   UNL     1      -6.287   6.710  68.788  1.00  0.00    -0.032 OA 
BRANCH  37  38
HETATM   38  C   UNL     1      -6.354   5.435  68.343  1.00  0.00    -0.035 C  
HETATM   39  O   UNL     1      -5.468   4.601  68.400  1.00  0.00    -0.013 OA 
BRANCH  38  40
HETATM   40  O   UNL     1      -7.596   5.264  67.852  1.00  0.00    -0.082 OA 
BRANCH  40  41
HETATM   41  C   UNL     1      -8.091   5.897  66.650  1.00  0.00    -0.102 C  
HETATM   42  C   UNL     1     -11.006   6.498  66.616  1.00  0.00    -0.163 C  
HETATM   43  C   UNL     1      -9.125   4.946  66.043  1.00  0.00    -0.139 C  
HETATM   44  C   UNL     1     -10.480   5.074  66.732  1.00  0.00    -0.273 C  
HETATM   45  C   UNL     1     -10.036   7.525  67.192  1.00  0.00    -0.317 C  
HETATM   46  C   UNL     1      -8.592   7.344  66.715  1.00  0.00    -0.127 C  
ENDBRANCH  40  41
ENDBRANCH  38  40
ENDBRANCH  37  38
ENDBRANCH  35  37
ENDBRANCH  34  35
ENDBRANCH  32  34
ENDBRANCH   8  32
ENDBRANCH   3   4
ENDBRANCH   2   3
TORSDOF 13
ENDMDL
MODEL      258
REMARK 921   NORMALIZED FREE ENERGY PREDICTED BY IDOCK:   -3.81 KCAL/MOL
REMARK 922        TOTAL FREE ENERGY PREDICTED BY IDOCK:   -9.16 KCAL/MOL
REMARK 923 INTER-LIGAND FREE ENERGY PREDICTED BY IDOCK:   -6.96 KCAL/MOL
REMARK 924 INTRA-LIGAND FREE ENERGY PREDICTED BY IDOCK:   -2.20 KCAL/MOL
REMARK 927      BINDING AFFINITY PREDICTED BY RF-SCORE:    0.00 PKD
ROOT
HETATM    1  C   UNL     1     -14.213  14.043  71.524  1.00  0.00    -0.209 C  
HETATM    2  C   UNL     1     -13.096  14.490  70.597  1.00  0.00    -0.250 C  
ENDROOT
BRANCH   2   3
HETATM    3  O   UNL     1     -12.590  13.328  69.932  1.00  0.00    -0.119 OA 
BRANCH   3   4
HETATM    4  C   UNL     1     -11.365  13.462  69.429  1.00  0.00    -0.226 A  
HETATM    5  N   UNL     1     -10.725  14.603  69.322  1.00  0.00    -0.248 NA 
HETATM    6  C   UNL     1      -9.526  14.281  68.756  1.00  0.00    -0.131 A  
HETATM    7  C   UNL     1      -9.384  12.892  68.565  1.00  0.00    -0.074 A  
HETATM    8  C   UNL     1      -8.151  12.371  68.098  1.00  0.00    -0.163 A  
HETATM    9  N   UNL     1     -10.641  12.411  68.908  1.00  0.00    -0.175 NA 
HETATM   10  C   UNL     1      -7.322  14.674  67.857  1.00  0.00    -0.164 A  
HETATM   11  C   UNL     1      -8.511  15.173  68.372  1.00  0.00    -0.157 A  
HETATM   12  C   UNL     1      -7.142  13.300  67.755  1.00  0.00    -0.149 A  
BRANCH   9  13
HETATM   13  C   UNL     1     -11.262  11.115  68.630  1.00  0.00    -0.255 C  
BRANCH  13  14
HETATM   14  C   UNL     1     -10.744  10.007  69.512  1.00  0.00    -0.269 A  
HETATM   15  C   UNL     1      -9.490   7.963  69.836  1.00  0.00    -0.160 A  
HETATM   16  C   UNL     1      -9.200   8.326  71.162  1.00  0.00    -0.200 A  
HETATM   17  C   UNL     1     -10.754  10.183  70.897  1.00  0.00    -0.059 A  
HETATM   18  C   UNL     1     -10.204   8.830  68.998  1.00  0.00    -0.218 A  
HETATM   19  C   UNL     1      -9.972   9.363  71.710  1.00  0.00     0.144 A  
BRANCH  16  20
HETATM   20  C   UNL     1      -8.037   7.766  71.912  1.00  0.00    -0.120 A  
HETATM   21  C   UNL     1      -6.777   8.403  71.810  1.00  0.00    -0.076 A  
HETATM   22  C   UNL     1      -8.086   6.548  72.657  1.00  0.00    -0.103 A  
HETATM   23  C   UNL     1      -5.625   7.890  72.415  1.00  0.00    -0.036 A  
HETATM   24  C   UNL     1      -6.922   6.086  73.312  1.00  0.00    -0.084 A  
HETATM   25  C   UNL     1      -5.701   6.741  73.185  1.00  0.00    -0.046 A  
BRANCH  22  26
HETATM   26  C   UNL     1      -9.251   5.661  72.771  1.00  0.00    -0.132 A  
HETATM   27  N   UNL     1      -9.349   4.420  72.327  1.00  0.00    -0.125 NA 
HETATM   28  H   UNL     1      -8.625   3.886  71.846  1.00  0.00     0.000 HD 
HETATM   29  N   UNL     1     -10.614   3.986  72.638  1.00  0.00    -0.148 NA 
HETATM   30  N   UNL     1     -11.305   4.940  73.242  1.00  0.00    -0.342 NA 
HETATM   31  N   UNL     1     -10.478   5.993  73.284  1.00  0.00    -0.225 NA 
ENDBRANCH  22  26
ENDBRANCH  16  20
ENDBRANCH  13  14
ENDBRANCH   9  13
BRANCH   8  32
HETATM   32  C   UNL     1      -7.890  10.943  67.799  1.00  0.00    -0.109 C  
HETATM   33  O   UNL     1      -7.202  10.227  68.507  1.00  0.00    -0.076 OA 
BRANCH  32  34
HETATM   34  O   UNL     1      -8.682  10.498  66.791  1.00  0.00    -0.130 OA 
BRANCH  34  35
HETATM   35  C   UNL     1      -8.063  10.638  65.503  1.00  0.00    -0.129 C  
HETATM   36  C   UNL     1      -8.114   9.247  64.869  1.00  0.00    -0.130 C  
BRANCH  35  37
HETATM   37  O   UNL     1      -8.806  11.475  64.617  1.00  0.00     0.143 OA 
BRANCH  37  38
HETATM   38  C   UNL     1     -10.026  11.021  64.255  1.00  0.00    -0.317 C  
HETATM   39  O   UNL     1     -10.286  10.348  63.273  1.00  0.00    -0.088 OA 
BRANCH  38  40
HETATM   40  O   UNL     1     -10.887  11.434  65.203  1.00  0.00    -0.286 OA 
BRANCH  40  41
HETATM   41  C   UNL     1     -12.201  11.974  64.932  1.00  0.00    -0.110 C  
HETATM   42  C   UNL     1     -12.269  14.805  64.019  1.00  0.00    -0.185 C  
HETATM   43  C   UNL     1     -12.404  13.148  65.892  1.00  0.00    -0.462 C  
HETATM   44  C   UNL     1     -11.721  14.414  65.384  1.00  0.00    -0.362 C  
HETATM   45  C   UNL     1     -12.116  13.690  62.990  1.00  0.00     0.393 C  
HETATM   46  C   UNL     1     -12.586  12.321  63.490  1.00  0.00    -0.589 C  
ENDBRANCH  40  41
ENDBRANCH  38  40
ENDBRANCH  37  38
ENDBRANCH  35  37
ENDBRANCH  34  35
ENDBRANCH  32  34
ENDBRANCH   8  32
ENDBRANCH   3   4
ENDBRANCH   2   3
TORSDOF 13
ENDMDL
MODEL      259
REMARK 921   NORMALIZED FREE ENERGY PREDICTED BY IDOCK:   -3.77 KCAL/MOL
REMARK 922        TOTAL FREE ENERGY PREDICTED BY IDOCK:   -9.08 KCAL/MOL
REMARK 923 INTER-LIGAND FREE ENERGY PREDICTED BY IDOCK:   -8.80 KCAL/MOL
REMARK 924 INTRA-LIGAND FREE ENERGY PREDICTED BY IDOCK:   -0.28 KCAL/MOL
REMARK 927      BINDING AFFINITY PREDICTED BY RF-SCORE:    0.00 PKD
ROOT
HETATM    1  C   UNL     1      -6.260   7.362  73.098  1.00  0.00    -0.059 C  
HETATM    2  C   UNL     1      -7.259   8.502  73.010  1.00  0.00     0.003 C  
ENDROOT
BRANCH   2   3
HETATM    3  O   UNL     1      -8.153   8.218  71.930  1.00  0.00    -0.119 OA 
BRANCH   3   4
HETATM    4  C   UNL     1      -8.187   9.142  70.974  1.00  0.00    -0.137 A  
HETATM    5  N   UNL     1      -7.268  10.062  70.796  1.00  0.00    -0.314 NA 
HETATM    6  C   UNL     1      -7.702  10.788  69.725  1.00  0.00     0.081 A  
HETATM    7  C   UNL     1      -8.889  10.267  69.174  1.00  0.00    -0.176 A  
HETATM    8  C   UNL     1      -9.414  10.827  67.983  1.00  0.00    -0.166 A  
HETATM    9  N   UNL     1      -9.230   9.272  70.082  1.00  0.00    -0.206 NA 
HETATM   10  C   UNL     1      -7.638  12.527  68.053  1.00  0.00    -0.127 A  
HETATM   11  C   UNL     1      -7.094  11.935  69.186  1.00  0.00    -0.053 A  
HETATM   12  C   UNL     1      -8.755  11.960  67.452  1.00  0.00    -0.166 A  
BRANCH   9  13
HETATM   13  C   UNL     1     -10.500   8.572  70.280  1.00  0.00    -0.220 C  
BRANCH  13  14
HETATM   14  C   UNL     1     -10.531   7.207  69.640  1.00  0.00    -0.241 A  
HETATM   15  C   UNL     1     -10.652   5.779  67.690  1.00  0.00    -0.313 A  
HETATM   16  C   UNL     1      -9.913   4.781  68.349  1.00  0.00    -0.156 A  
HETATM   17  C   UNL     1     -10.123   6.099  70.386  1.00  0.00    -0.237 A  
HETATM   18  C   UNL     1     -10.903   7.010  68.312  1.00  0.00    -0.198 A  
HETATM   19  C   UNL     1      -9.797   4.906  69.742  1.00  0.00    -0.292 A  
BRANCH  16  20
HETATM   20  C   UNL     1      -9.153   3.728  67.613  1.00  0.00    -0.188 A  
HETATM   21  C   UNL     1      -9.509   3.426  66.276  1.00  0.00    -0.128 A  
HETATM   22  C   UNL     1      -8.141   2.917  68.210  1.00  0.00    -0.070 A  
HETATM   23  C   UNL     1      -8.899   2.396  65.552  1.00  0.00    -0.127 A  
HETATM   24  C   UNL     1      -7.496   1.926  67.436  1.00  0.00    -0.059 A  
HETATM   25  C   UNL     1      -7.876   1.659  66.125  1.00  0.00    -0.071 A  
BRANCH  22  26
HETATM   26  C   UNL     1      -7.723   2.969  69.618  1.00  0.00    -0.043 A  
HETATM   27  N   UNL     1      -7.526   1.940  70.425  1.00  0.00    -0.036 NA 
HETATM   28  H   UNL     1      -7.625   0.953  70.188  1.00  0.00     0.000 HD 
HETATM   29  N   UNL     1      -7.162   2.457  71.644  1.00  0.00    -0.035 NA 
HETATM   30  N   UNL     1      -7.154   3.781  71.612  1.00  0.00    -0.037 NA 
HETATM   31  N   UNL     1      -7.546   4.100  70.371  1.00  0.00    -0.045 NA 
ENDBRANCH  22  26
ENDBRANCH  16  20
ENDBRANCH  13  14
ENDBRANCH   9  13
BRANCH   8  32
HETATM   32  C   UNL     1     -10.682  10.414  67.336  1.00  0.00    -0.283 C  
HETATM   33  O   UNL     1     -11.761  10.436  67.905  1.00  0.00    -0.377 OA 
BRANCH  32  34
HETATM   34  O   UNL     1     -10.519  10.237  66.000  1.00  0.00    -0.200 OA 
BRANCH  34  35
HETATM   35  C   UNL     1     -10.682  11.456  65.261  1.00  0.00    -0.265 C  
HETATM   36  C   UNL     1     -10.513  11.072  63.790  1.00  0.00    -0.408 C  
BRANCH  35  37
HETATM   37  O   UNL     1     -12.003  11.990  65.353  1.00  0.00    -0.399 OA 
BRANCH  37  38
HETATM   38  C   UNL     1     -12.098  13.338  65.363  1.00  0.00    -0.422 C  
HETATM   39  O   UNL     1     -12.898  14.012  64.737  1.00  0.00    -0.681 OA 
BRANCH  38  40
HETATM   40  O   UNL     1     -11.158  13.785  66.216  1.00  0.00    -0.299 OA 
BRANCH  40  41
HETATM   41  C   UNL     1     -11.206  15.067  66.883  1.00  0.00    -0.323 C  
HETATM   42  C   UNL     1      -9.567  15.295  69.357  1.00  0.00    -0.245 C  
HETATM   43  C   UNL     1     -11.778  14.817  68.281  1.00  0.00    -0.340 C  
HETATM   44  C   UNL     1     -10.711  14.298  69.240  1.00  0.00    -0.194 C  
HETATM   45  C   UNL     1      -8.934  15.614  68.007  1.00  0.00    -0.178 C  
HETATM   46  C   UNL     1      -9.951  15.946  66.911  1.00  0.00    -0.253 C  
ENDBRANCH  40  41
ENDBRANCH  38  40
ENDBRANCH  37  38
ENDBRANCH  35  37
ENDBRANCH  34  35
ENDBRANCH  32  34
ENDBRANCH   8  32
ENDBRANCH   3   4
ENDBRANCH   2   3
TORSDOF 13
ENDMDL
MODEL      260
REMARK 921   NORMALIZED FREE ENERGY PREDICTED BY IDOCK:   -3.75 KCAL/MOL
REMARK 922        TOTAL FREE ENERGY PREDICTED BY IDOCK:   -9.05 KCAL/MOL
REMARK 923 INTER-LIGAND FREE ENERGY PREDICTED BY IDOCK:   -7.36 KCAL/MOL
REMARK 924 INTRA-LIGAND FREE ENERGY PREDICTED BY IDOCK:   -1.68 KCAL/MOL
REMARK 927      BINDING AFFINITY PREDICTED BY RF-SCORE:    0.00 PKD
ROOT
HETATM    1  C   UNL     1     -14.361  15.193  71.590  1.00  0.00    -0.685 C  
HETATM    2  C   UNL     1     -13.206  15.703  72.433  1.00  0.00    -0.474 C  
ENDROOT
BRANCH   2   3
HETATM    3  O   UNL     1     -12.065  14.887  72.152  1.00  0.00    -0.351 OA 
BRANCH   3   4
HETATM    4  C   UNL     1     -12.347  13.640  71.786  1.00  0.00     0.006 A  
HETATM    5  N   UNL     1     -13.181  12.848  72.420  1.00  0.00    -0.427 NA 
HETATM    6  C   UNL     1     -13.162  11.681  71.714  1.00  0.00    -0.333 A  
HETATM    7  C   UNL     1     -12.347  11.765  70.568  1.00  0.00    -0.299 A  
HETATM    8  C   UNL     1     -12.307  10.682  69.655  1.00  0.00    -0.209 A  
HETATM    9  N   UNL     1     -11.749  13.011  70.715  1.00  0.00     0.154 NA 
HETATM   10  C   UNL     1     -13.757   9.405  71.177  1.00  0.00    -0.164 A  
HETATM   11  C   UNL     1     -13.840  10.493  72.036  1.00  0.00     0.089 A  
HETATM   12  C   UNL     1     -13.030   9.516  69.998  1.00  0.00     0.955 A  
BRANCH   9  13
HETATM   13  C   UNL     1     -10.570  13.573  70.055  1.00  0.00     0.992 C  
BRANCH  13  14
HETATM   14  C   UNL     1     -10.821  14.930  69.446  1.00  0.00    -0.274 A  
HETATM   15  C   UNL     1     -10.619  17.341  69.480  1.00  0.00     0.006 A  
HETATM   16  C   UNL     1     -10.638  17.383  68.075  1.00  0.00    -0.389 A  
HETATM   17  C   UNL     1     -11.192  15.012  68.103  1.00  0.00    -0.316 A  
HETATM   18  C   UNL     1     -10.645  16.115  70.158  1.00  0.00    -0.226 A  
HETATM   19  C   UNL     1     -11.080  16.223  67.421  1.00  0.00    -0.095 A  
BRANCH  16  20
HETATM   20  C   UNL     1     -10.076  18.528  67.299  1.00  0.00    -0.376 A  
HETATM   21  C   UNL     1     -10.956  19.506  66.775  1.00  0.00    -0.391 A  
HETATM   22  C   UNL     1      -8.697  18.650  66.953  1.00  0.00    -0.288 A  
HETATM   23  C   UNL     1     -10.512  20.559  65.969  1.00  0.00     0.074 A  
HETATM   24  C   UNL     1      -8.265  19.759  66.190  1.00  0.00    -0.363 A  
HETATM   25  C   UNL     1      -9.162  20.699  65.693  1.00  0.00     0.560 A  
BRANCH  22  26
HETATM   26  C   UNL     1      -7.645  17.675  67.271  1.00  0.00    -0.199 A  
HETATM   27  N   UNL     1      -6.858  17.675  68.333  1.00  0.00    -0.206 NA 
HETATM   28  H   UNL     1      -6.870  18.349  69.099  1.00  0.00     0.000 HD 
HETATM   29  N   UNL     1      -6.021  16.593  68.208  1.00  0.00    -0.118 NA 
HETATM   30  N   UNL     1      -6.259  15.941  67.081  1.00  0.00    -0.323 NA 
HETATM   31  N   UNL     1      -7.232  16.636  66.477  1.00  0.00    -0.239 NA 
ENDBRANCH  22  26
ENDBRANCH  16  20
ENDBRANCH  13  14
ENDBRANCH   9  13
BRANCH   8  32
HETATM   32  C   UNL     1     -11.448  10.618  68.448  1.00  0.00    -0.259 C  
HETATM   33  O   UNL     1     -11.825  10.964  67.341  1.00  0.00    -0.465 OA 
BRANCH  32  34
HETATM   34  O   UNL     1     -10.158  10.351  68.774  1.00  0.00    -0.170 OA 
BRANCH  34  35
HETATM   35  C   UNL     1      -9.227  10.923  67.843  1.00  0.00    -0.152 C  
HETATM   36  C   UNL     1      -7.986  11.276  68.664  1.00  0.00    -0.145 C  
BRANCH  35  37
HETATM   37  O   UNL     1      -8.770   9.985  66.868  1.00  0.00    -0.128 OA 
BRANCH  37  38
HETATM   38  C   UNL     1      -8.465  10.493  65.653  1.00  0.00    -0.176 C  
HETATM   39  O   UNL     1      -7.350  10.603  65.174  1.00  0.00    -0.073 OA 
BRANCH  38  40
HETATM   40  O   UNL     1      -9.632  10.827  65.071  1.00  0.00    -0.216 OA 
BRANCH  40  41
HETATM   41  C   UNL     1      -9.809  11.962  64.194  1.00  0.00    -0.207 C  
HETATM   42  C   UNL     1     -12.564  13.084  64.077  1.00  0.00    -0.289 C  
HETATM   43  C   UNL     1     -10.829  11.545  63.131  1.00  0.00    -0.243 C  
HETATM   44  C   UNL     1     -12.259  11.655  63.650  1.00  0.00    -0.348 C  
HETATM   45  C   UNL     1     -11.591  13.594  65.136  1.00  0.00    -0.333 C  
HETATM   46  C   UNL     1     -10.119  13.336  64.797  1.00  0.00    -0.250 C  
ENDBRANCH  40  41
ENDBRANCH  38  40
ENDBRANCH  37  38
ENDBRANCH  35  37
ENDBRANCH  34  35
ENDBRANCH  32  34
ENDBRANCH   8  32
ENDBRANCH   3   4
ENDBRANCH   2   3
TORSDOF 13
ENDMDL
MODEL      261
REMARK 921   NORMALIZED FREE ENERGY PREDICTED BY IDOCK:   -3.73 KCAL/MOL
REMARK 922        TOTAL FREE ENERGY PREDICTED BY IDOCK:   -9.02 KCAL/MOL
REMARK 923 INTER-LIGAND FREE ENERGY PREDICTED BY IDOCK:   -6.05 KCAL/MOL
REMARK 924 INTRA-LIGAND FREE ENERGY PREDICTED BY IDOCK:   -2.97 KCAL/MOL
REMARK 927      BINDING AFFINITY PREDICTED BY RF-SCORE:    0.00 PKD
ROOT
HETATM    1  C   UNL     1     -11.379  13.190  66.682  1.00  0.00    -0.361 C  
HETATM    2  C   UNL     1     -11.214  11.770  67.192  1.00  0.00    -0.316 C  
ENDROOT
BRANCH   2   3
HETATM    3  O   UNL     1      -9.976  11.263  66.680  1.00  0.00    -0.200 OA 
BRANCH   3   4
HETATM    4  C   UNL     1      -8.955  11.321  67.531  1.00  0.00    -0.140 A  
HETATM    5  N   UNL     1      -8.119  12.329  67.623  1.00  0.00    -0.153 NA 
HETATM    6  C   UNL     1      -7.241  11.968  68.603  1.00  0.00    -0.110 A  
HETATM    7  C   UNL     1      -7.577  10.732  69.189  1.00  0.00    -0.133 A  
HETATM    8  C   UNL     1      -6.841  10.263  70.306  1.00  0.00    -0.145 A  
HETATM    9  N   UNL     1      -8.625  10.294  68.389  1.00  0.00    -0.121 NA 
HETATM   10  C   UNL     1      -5.348  12.204  70.080  1.00  0.00    -0.098 A  
HETATM   11  C   UNL     1      -6.110  12.688  69.025  1.00  0.00    -0.085 A  
HETATM   12  C   UNL     1      -5.730  11.032  70.722  1.00  0.00    -0.095 A  
BRANCH   9  13
HETATM   13  C   UNL     1      -9.209   8.960  68.249  1.00  0.00    -0.140 C  
BRANCH  13  14
HETATM   14  C   UNL     1      -8.436   8.067  67.312  1.00  0.00    -0.125 A  
HETATM   15  C   UNL     1      -6.585   6.581  66.841  1.00  0.00    -0.051 A  
HETATM   16  C   UNL     1      -7.351   5.898  65.880  1.00  0.00    -0.076 A  
HETATM   17  C   UNL     1      -9.047   7.627  66.136  1.00  0.00    -0.189 A  
HETATM   18  C   UNL     1      -7.147   7.618  67.596  1.00  0.00    -0.085 A  
HETATM   19  C   UNL     1      -8.520   6.540  65.441  1.00  0.00    -0.119 A  
BRANCH  16  20
HETATM   20  C   UNL     1      -7.043   4.501  65.453  1.00  0.00    -0.067 A  
HETATM   21  C   UNL     1      -6.510   4.275  64.161  1.00  0.00    -0.041 A  
HETATM   22  C   UNL     1      -7.353   3.347  66.235  1.00  0.00    -0.072 A  
HETATM   23  C   UNL     1      -6.275   2.989  63.662  1.00  0.00    -0.018 A  
HETATM   24  C   UNL     1      -7.046   2.062  65.732  1.00  0.00    -0.055 A  
HETATM   25  C   UNL     1      -6.523   1.882  64.456  1.00  0.00    -0.019 A  
BRANCH  22  26
HETATM   26  C   UNL     1      -8.037   3.352  67.535  1.00  0.00    -0.081 A  
HETATM   27  N   UNL     1      -9.341   3.411  67.746  1.00  0.00    -0.191 NA 
HETATM   28  H   UNL     1     -10.071   3.451  67.034  1.00  0.00     0.000 HD 
HETATM   29  N   UNL     1      -9.524   3.407  69.107  1.00  0.00    -0.173 NA 
HETATM   30  N   UNL     1      -8.361   3.372  69.739  1.00  0.00    -0.051 NA 
HETATM   31  N   UNL     1      -7.438   3.385  68.768  1.00  0.00    -0.049 NA 
ENDBRANCH  22  26
ENDBRANCH  16  20
ENDBRANCH  13  14
ENDBRANCH   9  13
BRANCH   8  32
HETATM   32  C   UNL     1      -7.051   8.957  70.975  1.00  0.00    -0.090 C  
HETATM   33  O   UNL     1      -6.185   8.101  71.057  1.00  0.00    -0.033 OA 
BRANCH  32  34
HETATM   34  O   UNL     1      -8.220   8.938  71.663  1.00  0.00    -0.286 OA 
BRANCH  34  35
HETATM   35  C   UNL     1      -8.326   7.802  72.535  1.00  0.00    -0.129 C  
HETATM   36  C   UNL     1      -7.939   8.311  73.924  1.00  0.00    -0.256 C  
BRANCH  35  37
HETATM   37  O   UNL     1      -9.667   7.331  72.675  1.00  0.00    -0.149 OA 
BRANCH  37  38
HETATM   38  C   UNL     1     -10.143   6.585  71.654  1.00  0.00    -0.182 C  
HETATM   39  O   UNL     1     -10.394   6.975  70.528  1.00  0.00    -0.199 OA 
BRANCH  38  40
HETATM   40  O   UNL     1     -10.259   5.326  72.119  1.00  0.00    -0.186 OA 
BRANCH  40  41
HETATM   41  C   UNL     1      -9.805   4.894  73.422  1.00  0.00    -0.145 C  
HETATM   42  C   UNL     1      -9.720   1.950  73.848  1.00  0.00    -0.111 C  
HETATM   43  C   UNL     1     -10.959   4.116  74.057  1.00  0.00    -0.248 C  
HETATM   44  C   UNL     1     -11.020   2.681  73.544  1.00  0.00    -0.312 C  
HETATM   45  C   UNL     1      -8.504   2.657  73.257  1.00  0.00    -0.071 C  
HETATM   46  C   UNL     1      -8.465   4.161  73.545  1.00  0.00    -0.093 C  
ENDBRANCH  40  41
ENDBRANCH  38  40
ENDBRANCH  37  38
ENDBRANCH  35  37
ENDBRANCH  34  35
ENDBRANCH  32  34
ENDBRANCH   8  32
ENDBRANCH   3   4
ENDBRANCH   2   3
TORSDOF 13
ENDMDL
MODEL      262
REMARK 921   NORMALIZED FREE ENERGY PREDICTED BY IDOCK:   -3.72 KCAL/MOL
REMARK 922        TOTAL FREE ENERGY PREDICTED BY IDOCK:   -8.99 KCAL/MOL
REMARK 923 INTER-LIGAND FREE ENERGY PREDICTED BY IDOCK:   -6.98 KCAL/MOL
REMARK 924 INTRA-LIGAND FREE ENERGY PREDICTED BY IDOCK:   -2.02 KCAL/MOL
REMARK 927      BINDING AFFINITY PREDICTED BY RF-SCORE:    0.00 PKD
ROOT
HETATM    1  C   UNL     1     -11.598  13.503  69.086  1.00  0.00    -0.359 C  
HETATM    2  C   UNL     1     -11.988  12.057  68.836  1.00  0.00    -0.246 C  
ENDROOT
BRANCH   2   3
HETATM    3  O   UNL     1     -11.067  11.514  67.885  1.00  0.00    -0.221 OA 
BRANCH   3   4
HETATM    4  C   UNL     1      -9.862  11.232  68.372  1.00  0.00    -0.199 A  
HETATM    5  N   UNL     1      -8.760  11.868  68.047  1.00  0.00    -0.165 NA 
HETATM    6  C   UNL     1      -7.776  11.255  68.767  1.00  0.00    -0.138 A  
HETATM    7  C   UNL     1      -8.285  10.254  69.618  1.00  0.00    -0.133 A  
HETATM    8  C   UNL     1      -7.416   9.599  70.526  1.00  0.00    -0.147 A  
HETATM    9  N   UNL     1      -9.622  10.195  69.247  1.00  0.00    -0.214 NA 
HETATM   10  C   UNL     1      -5.533  10.848  69.555  1.00  0.00    -0.038 A  
HETATM   11  C   UNL     1      -6.399  11.529  68.711  1.00  0.00    -0.054 A  
HETATM   12  C   UNL     1      -6.042   9.927  70.462  1.00  0.00    -0.093 A  
BRANCH   9  13
HETATM   13  C   UNL     1     -10.626   9.162  69.506  1.00  0.00    -0.223 C  
BRANCH  13  14
HETATM   14  C   UNL     1     -10.335   7.861  68.801  1.00  0.00    -0.220 A  
HETATM   15  C   UNL     1      -9.024   6.526  67.267  1.00  0.00    -0.114 A  
HETATM   16  C   UNL     1      -9.323   5.360  67.992  1.00  0.00    -0.127 A  
HETATM   17  C   UNL     1     -10.904   6.683  69.289  1.00  0.00    -0.335 A  
HETATM   18  C   UNL     1      -9.476   7.777  67.707  1.00  0.00    -0.163 A  
HETATM   19  C   UNL     1     -10.387   5.447  68.904  1.00  0.00    -0.260 A  
BRANCH  16  20
HETATM   20  C   UNL     1      -8.472   4.135  67.930  1.00  0.00    -0.102 A  
HETATM   21  C   UNL     1      -7.428   3.971  68.873  1.00  0.00    -0.055 A  
HETATM   22  C   UNL     1      -8.574   3.150  66.902  1.00  0.00    -0.120 A  
HETATM   23  C   UNL     1      -6.539   2.892  68.826  1.00  0.00    -0.033 A  
HETATM   24  C   UNL     1      -7.704   2.036  66.916  1.00  0.00    -0.066 A  
HETATM   25  C   UNL     1      -6.690   1.912  67.860  1.00  0.00    -0.032 A  
BRANCH  22  26
HETATM   26  C   UNL     1      -9.488   3.203  65.753  1.00  0.00    -0.052 A  
HETATM   27  N   UNL     1      -9.701   2.248  64.864  1.00  0.00    -0.347 NA 
HETATM   28  H   UNL     1      -9.269   1.324  64.848  1.00  0.00     0.000 HD 
HETATM   29  N   UNL     1     -10.617   2.739  63.966  1.00  0.00    -0.067 NA 
HETATM   30  N   UNL     1     -10.954   3.983  64.268  1.00  0.00    -0.258 NA 
HETATM   31  N   UNL     1     -10.221   4.288  65.348  1.00  0.00    -0.237 NA 
ENDBRANCH  22  26
ENDBRANCH  16  20
ENDBRANCH  13  14
ENDBRANCH   9  13
BRANCH   8  32
HETATM   32  C   UNL     1      -7.808   8.491  71.430  1.00  0.00    -0.126 C  
HETATM   33  O   UNL     1      -8.041   8.647  72.617  1.00  0.00    -0.367 OA 
BRANCH  32  34
HETATM   34  O   UNL     1      -8.090   7.362  70.732  1.00  0.00    -0.107 OA 
BRANCH  34  35
HETATM   35  C   UNL     1      -7.603   6.179  71.383  1.00  0.00    -0.099 C  
HETATM   36  C   UNL     1      -6.081   6.323  71.415  1.00  0.00    -0.040 C  
BRANCH  35  37
HETATM   37  O   UNL     1      -7.995   6.097  72.753  1.00  0.00    -0.106 OA 
BRANCH  37  38
HETATM   38  C   UNL     1      -9.143   5.429  73.003  1.00  0.00    -0.128 C  
HETATM   39  O   UNL     1     -10.229   5.639  72.491  1.00  0.00    -0.182 OA 
BRANCH  38  40
HETATM   40  O   UNL     1      -8.845   4.473  73.903  1.00  0.00    -0.104 OA 
BRANCH  40  41
HETATM   41  C   UNL     1      -8.489   3.114  73.561  1.00  0.00    -0.074 C  
HETATM   42  C   UNL     1     -10.631   1.510  72.258  1.00  0.00    -0.184 C  
HETATM   43  C   UNL     1      -9.432   2.199  74.346  1.00  0.00    -0.102 C  
HETATM   44  C   UNL     1     -10.789   2.072  73.664  1.00  0.00    -0.263 C  
HETATM   45  C   UNL     1      -9.698   2.355  71.396  1.00  0.00    -0.217 C  
HETATM   46  C   UNL     1      -8.379   2.716  72.085  1.00  0.00    -0.061 C  
ENDBRANCH  40  41
ENDBRANCH  38  40
ENDBRANCH  37  38
ENDBRANCH  35  37
ENDBRANCH  34  35
ENDBRANCH  32  34
ENDBRANCH   8  32
ENDBRANCH   3   4
ENDBRANCH   2   3
TORSDOF 13
ENDMDL
MODEL      263
REMARK 921   NORMALIZED FREE ENERGY PREDICTED BY IDOCK:   -3.70 KCAL/MOL
REMARK 922        TOTAL FREE ENERGY PREDICTED BY IDOCK:   -8.97 KCAL/MOL
REMARK 923 INTER-LIGAND FREE ENERGY PREDICTED BY IDOCK:   -8.10 KCAL/MOL
REMARK 924 INTRA-LIGAND FREE ENERGY PREDICTED BY IDOCK:   -0.87 KCAL/MOL
REMARK 927      BINDING AFFINITY PREDICTED BY RF-SCORE:    0.00 PKD
ROOT
HETATM    1  C   UNL     1     -12.186  13.150  63.013  1.00  0.00    -0.022 C  
HETATM    2  C   UNL     1     -11.569  11.801  63.339  1.00  0.00    -0.321 C  
ENDROOT
BRANCH   2   3
HETATM    3  O   UNL     1     -10.259  12.035  63.864  1.00  0.00    -0.338 OA 
BRANCH   3   4
HETATM    4  C   UNL     1      -9.750  11.025  64.565  1.00  0.00    -0.273 A  
HETATM    5  N   UNL     1      -8.741  10.281  64.174  1.00  0.00    -0.191 NA 
HETATM    6  C   UNL     1      -8.561   9.377  65.180  1.00  0.00    -0.167 A  
HETATM    7  C   UNL     1      -9.435   9.603  66.261  1.00  0.00    -0.199 A  
HETATM    8  C   UNL     1      -9.304   8.832  67.442  1.00  0.00    -0.166 A  
HETATM    9  N   UNL     1     -10.264  10.607  65.773  1.00  0.00    -0.260 NA 
HETATM   10  C   UNL     1      -7.548   7.515  66.332  1.00  0.00    -0.088 A  
HETATM   11  C   UNL     1      -7.641   8.315  65.200  1.00  0.00    -0.093 A  
HETATM   12  C   UNL     1      -8.343   7.794  67.437  1.00  0.00    -0.123 A  
BRANCH   9  13
HETATM   13  C   UNL     1     -11.565  11.071  66.256  1.00  0.00     0.653 C  
BRANCH  13  14
HETATM   14  C   UNL     1     -11.497  12.404  66.957  1.00  0.00    -0.423 A  
HETATM   15  C   UNL     1     -10.560  13.873  68.636  1.00  0.00    -0.265 A  
HETATM   16  C   UNL     1     -10.834  14.996  67.837  1.00  0.00    -0.280 A  
HETATM   17  C   UNL     1     -12.075  13.520  66.350  1.00  0.00    -0.467 A  
HETATM   18  C   UNL     1     -10.832  12.580  68.170  1.00  0.00    -0.248 A  
HETATM   19  C   UNL     1     -11.729  14.803  66.773  1.00  0.00    -0.309 A  
BRANCH  16  20
HETATM   20  C   UNL     1     -10.106  16.290  67.994  1.00  0.00    -0.245 A  
HETATM   21  C   UNL     1     -10.842  17.501  67.997  1.00  0.00    -0.260 A  
HETATM   22  C   UNL     1      -8.684  16.400  68.037  1.00  0.00    -0.183 A  
HETATM   23  C   UNL     1     -10.224  18.753  68.056  1.00  0.00    -0.438 A  
HETATM   24  C   UNL     1      -8.087  17.675  68.162  1.00  0.00    -0.252 A  
HETATM   25  C   UNL     1      -8.845  18.841  68.161  1.00  0.00    -0.334 A  
BRANCH  22  26
HETATM   26  C   UNL     1      -7.735  15.286  67.904  1.00  0.00    -0.136 A  
HETATM   27  N   UNL     1      -6.559  15.171  68.498  1.00  0.00    -0.095 NA 
HETATM   28  H   UNL     1      -6.138  15.834  69.147  1.00  0.00     0.000 HD 
HETATM   29  N   UNL     1      -6.015  13.984  68.072  1.00  0.00    -0.132 NA 
HETATM   30  N   UNL     1      -6.817  13.379  67.210  1.00  0.00    -0.149 NA 
HETATM   31  N   UNL     1      -7.862  14.206  67.070  1.00  0.00    -0.019 NA 
ENDBRANCH  22  26
ENDBRANCH  16  20
ENDBRANCH  13  14
ENDBRANCH   9  13
BRANCH   8  32
HETATM   32  C   UNL     1     -10.193   8.926  68.624  1.00  0.00    -0.200 C  
HETATM   33  O   UNL     1     -11.362   9.268  68.556  1.00  0.00     0.151 OA 
BRANCH  32  34
HETATM   34  O   UNL     1      -9.614   8.376  69.722  1.00  0.00    -0.168 OA 
BRANCH  34  35
HETATM   35  C   UNL     1      -9.450   9.322  70.789  1.00  0.00    -0.271 C  
HETATM   36  C   UNL     1     -10.720   9.213  71.635  1.00  0.00    -0.441 C  
BRANCH  35  37
HETATM   37  O   UNL     1      -8.385   8.981  71.676  1.00  0.00    -0.334 OA 
BRANCH  37  38
HETATM   38  C   UNL     1      -7.809   7.775  71.475  1.00  0.00    -0.088 C  
HETATM   39  O   UNL     1      -7.032   7.485  70.582  1.00  0.00    -0.050 OA 
BRANCH  38  40
HETATM   40  O   UNL     1      -8.239   6.972  72.466  1.00  0.00    -0.108 OA 
BRANCH  40  41
HETATM   41  C   UNL     1      -8.466   5.552  72.323  1.00  0.00    -0.122 C  
HETATM   42  C   UNL     1     -10.613   4.774  70.414  1.00  0.00     0.104 C  
HETATM   43  C   UNL     1      -9.908   5.287  72.762  1.00  0.00    -0.183 C  
HETATM   44  C   UNL     1     -10.902   5.611  71.652  1.00  0.00    -0.301 C  
HETATM   45  C   UNL     1      -9.189   4.966  69.902  1.00  0.00    -0.178 C  
HETATM   46  C   UNL     1      -8.121   4.867  70.996  1.00  0.00    -0.092 C  
ENDBRANCH  40  41
ENDBRANCH  38  40
ENDBRANCH  37  38
ENDBRANCH  35  37
ENDBRANCH  34  35
ENDBRANCH  32  34
ENDBRANCH   8  32
ENDBRANCH   3   4
ENDBRANCH   2   3
TORSDOF 13
ENDMDL
MODEL      264
REMARK 921   NORMALIZED FREE ENERGY PREDICTED BY IDOCK:   -3.60 KCAL/MOL
REMARK 922        TOTAL FREE ENERGY PREDICTED BY IDOCK:   -8.79 KCAL/MOL
REMARK 923 INTER-LIGAND FREE ENERGY PREDICTED BY IDOCK:   -7.30 KCAL/MOL
REMARK 924 INTRA-LIGAND FREE ENERGY PREDICTED BY IDOCK:   -1.49 KCAL/MOL
REMARK 927      BINDING AFFINITY PREDICTED BY RF-SCORE:    0.00 PKD
ROOT
HETATM    1  C   UNL     1     -10.347  11.443  63.536  1.00  0.00    -0.476 C  
HETATM    2  C   UNL     1     -11.546  11.903  64.347  1.00  0.00    -0.292 C  
ENDROOT
BRANCH   2   3
HETATM    3  O   UNL     1     -11.055  12.600  65.497  1.00  0.00    -0.281 OA 
BRANCH   3   4
HETATM    4  C   UNL     1     -11.218  11.958  66.651  1.00  0.00    -0.328 A  
HETATM    5  N   UNL     1     -12.323  11.971  67.360  1.00  0.00    -0.065 NA 
HETATM    6  C   UNL     1     -12.048  11.198  68.451  1.00  0.00     0.001 A  
HETATM    7  C   UNL     1     -10.761  10.628  68.389  1.00  0.00    -0.222 A  
HETATM    8  C   UNL     1     -10.356   9.701  69.381  1.00  0.00    -0.226 A  
HETATM    9  N   UNL     1     -10.216  11.238  67.265  1.00  0.00    -0.190 NA 
HETATM   10  C   UNL     1     -12.481  10.099  70.554  1.00  0.00    -0.304 A  
HETATM   11  C   UNL     1     -12.895  10.960  69.546  1.00  0.00     0.388 A  
HETATM   12  C   UNL     1     -11.250   9.462  70.450  1.00  0.00    -0.309 A  
BRANCH   9  13
HETATM   13  C   UNL     1      -8.822  11.338  66.830  1.00  0.00    -0.165 C  
BRANCH  13  14
HETATM   14  C   UNL     1      -8.033  12.368  67.598  1.00  0.00    -0.164 A  
HETATM   15  C   UNL     1      -6.164  13.891  67.800  1.00  0.00    -0.155 A  
HETATM   16  C   UNL     1      -6.915  14.736  68.635  1.00  0.00    -0.110 A  
HETATM   17  C   UNL     1      -8.631  13.008  68.686  1.00  0.00     0.045 A  
HETATM   18  C   UNL     1      -6.742  12.747  67.234  1.00  0.00    -0.089 A  
HETATM   19  C   UNL     1      -8.088  14.192  69.183  1.00  0.00     0.132 A  
BRANCH  16  20
HETATM   20  C   UNL     1      -6.591  16.182  68.816  1.00  0.00    -0.129 A  
HETATM   21  C   UNL     1      -5.450  16.544  69.574  1.00  0.00    -0.149 A  
HETATM   22  C   UNL     1      -7.425  17.245  68.357  1.00  0.00    -0.234 A  
HETATM   23  C   UNL     1      -5.130  17.876  69.856  1.00  0.00    -0.200 A  
HETATM   24  C   UNL     1      -7.044  18.584  68.601  1.00  0.00    -0.298 A  
HETATM   25  C   UNL     1      -5.915  18.899  69.351  1.00  0.00    -0.267 A  
BRANCH  22  26
HETATM   26  C   UNL     1      -8.719  17.087  67.681  1.00  0.00    -0.215 A  
HETATM   27  N   UNL     1      -9.909  17.415  68.156  1.00  0.00    -0.287 NA 
HETATM   28  H   UNL     1     -10.106  17.839  69.063  1.00  0.00     0.000 HD 
HETATM   29  N   UNL     1     -10.828  17.077  67.193  1.00  0.00    -0.161 NA 
HETATM   30  N   UNL     1     -10.234  16.525  66.147  1.00  0.00    -0.332 NA 
HETATM   31  N   UNL     1      -8.933  16.489  66.466  1.00  0.00    -0.254 NA 
ENDBRANCH  22  26
ENDBRANCH  16  20
ENDBRANCH  13  14
ENDBRANCH   9  13
BRANCH   8  32
HETATM   32  C   UNL     1      -9.014   9.078  69.466  1.00  0.00    -0.147 C  
HETATM   33  O   UNL     1      -7.986   9.722  69.596  1.00  0.00    -0.116 OA 
BRANCH  32  34
HETATM   34  O   UNL     1      -9.103   7.732  69.611  1.00  0.00    -0.146 OA 
BRANCH  34  35
HETATM   35  C   UNL     1      -8.013   7.187  70.370  1.00  0.00    -0.112 C  
HETATM   36  C   UNL     1      -8.559   6.980  71.783  1.00  0.00    -0.114 C  
BRANCH  35  37
HETATM   37  O   UNL     1      -7.625   5.885  69.930  1.00  0.00    -0.077 OA 
BRANCH  37  38
HETATM   38  C   UNL     1      -8.447   4.871  70.281  1.00  0.00    -0.091 C  
HETATM   39  O   UNL     1      -8.356   4.179  71.279  1.00  0.00    -0.078 OA 
BRANCH  38  40
HETATM   40  O   UNL     1      -9.395   4.797  69.328  1.00  0.00    -0.113 OA 
BRANCH  40  41
HETATM   41  C   UNL     1      -9.133   4.478  67.942  1.00  0.00    -0.123 C  
HETATM   42  C   UNL     1      -8.931   6.807  66.099  1.00  0.00    -0.157 C  
HETATM   43  C   UNL     1     -10.324   5.001  67.135  1.00  0.00    -0.217 C  
HETATM   44  C   UNL     1     -10.208   6.498  66.868  1.00  0.00    -0.279 C  
HETATM   45  C   UNL     1      -7.683   6.315  66.825  1.00  0.00    -0.100 C  
HETATM   46  C   UNL     1      -7.787   4.870  67.323  1.00  0.00    -0.095 C  
ENDBRANCH  40  41
ENDBRANCH  38  40
ENDBRANCH  37  38
ENDBRANCH  35  37
ENDBRANCH  34  35
ENDBRANCH  32  34
ENDBRANCH   8  32
ENDBRANCH   3   4
ENDBRANCH   2   3
TORSDOF 13
ENDMDL
MODEL      265
REMARK 921   NORMALIZED FREE ENERGY PREDICTED BY IDOCK:   -3.60 KCAL/MOL
REMARK 922        TOTAL FREE ENERGY PREDICTED BY IDOCK:   -8.78 KCAL/MOL
REMARK 923 INTER-LIGAND FREE ENERGY PREDICTED BY IDOCK:   -8.77 KCAL/MOL
REMARK 924 INTRA-LIGAND FREE ENERGY PREDICTED BY IDOCK:   -0.01 KCAL/MOL
REMARK 927      BINDING AFFINITY PREDICTED BY RF-SCORE:    0.00 PKD
ROOT
HETATM    1  C   UNL     1      -5.915   7.208  69.880  1.00  0.00    -0.024 C  
HETATM    2  C   UNL     1      -5.169   7.565  68.606  1.00  0.00    -0.022 C  
ENDROOT
BRANCH   2   3
HETATM    3  O   UNL     1      -6.091   8.217  67.727  1.00  0.00    -0.045 OA 
BRANCH   3   4
HETATM    4  C   UNL     1      -6.330   9.494  68.016  1.00  0.00    -0.057 A  
HETATM    5  N   UNL     1      -5.593  10.226  68.818  1.00  0.00    -0.038 NA 
HETATM    6  C   UNL     1      -6.197  11.450  68.830  1.00  0.00    -0.050 A  
HETATM    7  C   UNL     1      -7.302  11.506  67.957  1.00  0.00    -0.091 A  
HETATM    8  C   UNL     1      -7.972  12.738  67.754  1.00  0.00    -0.157 A  
HETATM    9  N   UNL     1      -7.421  10.187  67.538  1.00  0.00    -0.090 NA 
HETATM   10  C   UNL     1      -6.515  13.759  69.452  1.00  0.00    -0.111 A  
HETATM   11  C   UNL     1      -5.824  12.564  69.600  1.00  0.00    -0.115 A  
HETATM   12  C   UNL     1      -7.546  13.845  68.524  1.00  0.00    -0.134 A  
BRANCH   9  13
HETATM   13  C   UNL     1      -8.540   9.503  66.888  1.00  0.00    -0.128 C  
BRANCH  13  14
HETATM   14  C   UNL     1      -9.381   8.698  67.847  1.00  0.00    -0.155 A  
HETATM   15  C   UNL     1     -10.698   6.741  68.386  1.00  0.00    -0.284 A  
HETATM   16  C   UNL     1     -10.355   6.858  69.744  1.00  0.00    -0.224 A  
HETATM   17  C   UNL     1      -9.342   9.007  69.208  1.00  0.00    -0.150 A  
HETATM   18  C   UNL     1     -10.161   7.619  67.435  1.00  0.00    -0.320 A  
HETATM   19  C   UNL     1      -9.804   8.085  70.146  1.00  0.00    -0.184 A  
BRANCH  16  20
HETATM   20  C   UNL     1     -10.414   5.704  70.689  1.00  0.00    -0.340 A  
HETATM   21  C   UNL     1     -10.993   5.889  71.968  1.00  0.00    -0.319 A  
HETATM   22  C   UNL     1      -9.822   4.432  70.426  1.00  0.00    -0.286 A  
HETATM   23  C   UNL     1     -11.009   4.879  72.936  1.00  0.00    -0.332 A  
HETATM   24  C   UNL     1      -9.910   3.409  71.397  1.00  0.00    -0.204 A  
HETATM   25  C   UNL     1     -10.487   3.630  72.644  1.00  0.00    -0.188 A  
BRANCH  22  26
HETATM   26  C   UNL     1      -9.052   4.078  69.226  1.00  0.00    -0.131 A  
HETATM   27  N   UNL     1      -7.830   4.479  68.920  1.00  0.00    -0.070 NA 
HETATM   28  H   UNL     1      -7.233   5.089  69.479  1.00  0.00     0.000 HD 
HETATM   29  N   UNL     1      -7.520   3.917  67.707  1.00  0.00    -0.067 NA 
HETATM   30  N   UNL     1      -8.532   3.199  67.246  1.00  0.00    -0.092 NA 
HETATM   31  N   UNL     1      -9.499   3.335  68.164  1.00  0.00    -0.184 NA 
ENDBRANCH  22  26
ENDBRANCH  16  20
ENDBRANCH  13  14
ENDBRANCH   9  13
BRANCH   8  32
HETATM   32  C   UNL     1      -9.180  12.921  66.914  1.00  0.00    -0.234 C  
HETATM   33  O   UNL     1      -9.267  12.507  65.770  1.00  0.00    -0.059 OA 
BRANCH  32  34
HETATM   34  O   UNL     1     -10.223  13.390  67.645  1.00  0.00    -0.223 OA 
BRANCH  34  35
HETATM   35  C   UNL     1     -11.492  12.959  67.130  1.00  0.00    -0.336 C  
HETATM   36  C   UNL     1     -11.196  11.713  66.295  1.00  0.00    -0.332 C  
BRANCH  35  37
HETATM   37  O   UNL     1     -12.385  12.515  68.152  1.00  0.00    -0.165 OA 
BRANCH  37  38
HETATM   38  C   UNL     1     -11.815  12.165  69.327  1.00  0.00    -0.313 C  
HETATM   39  O   UNL     1     -10.817  11.481  69.472  1.00  0.00    -0.179 OA 
BRANCH  38  40
HETATM   40  O   UNL     1     -12.548  12.743  70.297  1.00  0.00    -0.136 OA 
BRANCH  40  41
HETATM   41  C   UNL     1     -12.979  14.123  70.281  1.00  0.00    -0.003 C  
HETATM   42  C   UNL     1     -12.809  15.558  72.883  1.00  0.00    -0.564 C  
HETATM   43  C   UNL     1     -14.161  14.229  71.246  1.00  0.00    -0.176 C  
HETATM   44  C   UNL     1     -13.697  14.336  72.695  1.00  0.00    -0.555 C  
HETATM   45  C   UNL     1     -11.599  15.545  71.954  1.00  0.00    -0.525 C  
HETATM   46  C   UNL     1     -11.945  15.234  70.494  1.00  0.00    -0.384 C  
ENDBRANCH  40  41
ENDBRANCH  38  40
ENDBRANCH  37  38
ENDBRANCH  35  37
ENDBRANCH  34  35
ENDBRANCH  32  34
ENDBRANCH   8  32
ENDBRANCH   3   4
ENDBRANCH   2   3
TORSDOF 13
ENDMDL
MODEL      266
REMARK 921   NORMALIZED FREE ENERGY PREDICTED BY IDOCK:   -3.54 KCAL/MOL
REMARK 922        TOTAL FREE ENERGY PREDICTED BY IDOCK:   -8.68 KCAL/MOL
REMARK 923 INTER-LIGAND FREE ENERGY PREDICTED BY IDOCK:   -7.36 KCAL/MOL
REMARK 924 INTRA-LIGAND FREE ENERGY PREDICTED BY IDOCK:   -1.32 KCAL/MOL
REMARK 927      BINDING AFFINITY PREDICTED BY RF-SCORE:    0.00 PKD
ROOT
HETATM    1  C   UNL     1     -12.359   6.007  72.087  1.00  0.00    -0.034 C  
HETATM    2  C   UNL     1     -12.121   6.785  70.805  1.00  0.00    -0.347 C  
ENDROOT
BRANCH   2   3
HETATM    3  O   UNL     1     -11.761   8.123  71.166  1.00  0.00    -0.280 OA 
BRANCH   3   4
HETATM    4  C   UNL     1     -10.568   8.244  71.741  1.00  0.00    -0.259 A  
HETATM    5  N   UNL     1     -10.302   7.912  72.983  1.00  0.00    -0.338 NA 
HETATM    6  C   UNL     1      -8.979   8.206  73.149  1.00  0.00    -0.261 A  
HETATM    7  C   UNL     1      -8.384   8.669  71.959  1.00  0.00    -0.102 A  
HETATM    8  C   UNL     1      -6.987   8.907  71.921  1.00  0.00    -0.011 A  
HETATM    9  N   UNL     1      -9.472   8.788  71.104  1.00  0.00    -0.216 NA 
HETATM   10  C   UNL     1      -6.878   8.383  74.322  1.00  0.00    -0.185 A  
HETATM   11  C   UNL     1      -8.237   8.093  74.336  1.00  0.00    -0.253 A  
HETATM   12  C   UNL     1      -6.268   8.750  73.128  1.00  0.00    -0.045 A  
BRANCH   9  13
HETATM   13  C   UNL     1      -9.601   9.510  69.838  1.00  0.00    -0.223 C  
BRANCH  13  14
HETATM   14  C   UNL     1      -9.389   8.634  68.630  1.00  0.00    -0.142 A  
HETATM   15  C   UNL     1      -8.021   7.140  67.306  1.00  0.00    -0.111 A  
HETATM   16  C   UNL     1      -9.167   6.491  66.815  1.00  0.00    -0.163 A  
HETATM   17  C   UNL     1     -10.496   8.231  67.881  1.00  0.00    -0.259 A  
HETATM   18  C   UNL     1      -8.131   8.164  68.256  1.00  0.00    -0.128 A  
HETATM   19  C   UNL     1     -10.389   7.156  67.000  1.00  0.00    -0.368 A  
BRANCH  16  20
HETATM   20  C   UNL     1      -9.131   5.102  66.270  1.00  0.00    -0.136 A  
HETATM   21  C   UNL     1      -9.325   4.900  64.881  1.00  0.00    -0.042 A  
HETATM   22  C   UNL     1      -9.015   3.933  67.082  1.00  0.00    -0.152 A  
HETATM   23  C   UNL     1      -9.388   3.624  64.311  1.00  0.00    -0.144 A  
HETATM   24  C   UNL     1      -9.017   2.658  66.472  1.00  0.00    -0.150 A  
HETATM   25  C   UNL     1      -9.212   2.502  65.103  1.00  0.00    -0.120 A  
BRANCH  22  26
HETATM   26  C   UNL     1      -8.949   3.914  68.549  1.00  0.00    -0.121 A  
HETATM   27  N   UNL     1      -8.060   3.280  69.295  1.00  0.00    -0.052 NA 
HETATM   28  H   UNL     1      -7.278   2.716  68.962  1.00  0.00     0.000 HD 
HETATM   29  N   UNL     1      -8.392   3.528  70.604  1.00  0.00    -0.066 NA 
HETATM   30  N   UNL     1      -9.479   4.280  70.682  1.00  0.00    -0.154 NA 
HETATM   31  N   UNL     1      -9.852   4.481  69.411  1.00  0.00    -0.205 NA 
ENDBRANCH  22  26
ENDBRANCH  16  20
ENDBRANCH  13  14
ENDBRANCH   9  13
BRANCH   8  32
HETATM   32  C   UNL     1      -6.248   9.450  70.757  1.00  0.00    -0.072 C  
HETATM   33  O   UNL     1      -5.330   8.860  70.213  1.00  0.00    -0.027 OA 
BRANCH  32  34
HETATM   34  O   UNL     1      -6.864  10.550  70.252  1.00  0.00    -0.182 OA 
BRANCH  34  35
HETATM   35  C   UNL     1      -5.963  11.396  69.521  1.00  0.00    -0.086 C  
HETATM   36  C   UNL     1      -5.573  10.601  68.274  1.00  0.00    -0.039 C  
BRANCH  35  37
HETATM   37  O   UNL     1      -6.591  12.578  69.023  1.00  0.00    -0.090 OA 
BRANCH  37  38
HETATM   38  C   UNL     1      -6.437  13.692  69.772  1.00  0.00    -0.060 C  
HETATM   39  O   UNL     1      -5.897  13.762  70.862  1.00  0.00    -0.192 OA 
BRANCH  38  40
HETATM   40  O   UNL     1      -6.971  14.707  69.067  1.00  0.00    -0.104 OA 
BRANCH  40  41
HETATM   41  C   UNL     1      -8.357  14.775  68.659  1.00  0.00    -0.165 C  
HETATM   42  C   UNL     1      -9.086  17.103  66.954  1.00  0.00    -0.254 C  
HETATM   43  C   UNL     1      -8.922  16.077  69.233  1.00  0.00    -0.228 C  
HETATM   44  C   UNL     1      -8.554  17.279  68.369  1.00  0.00    -0.251 C  
HETATM   45  C   UNL     1      -8.579  15.822  66.297  1.00  0.00    -0.307 C  
HETATM   46  C   UNL     1      -8.715  14.580  67.182  1.00  0.00    -0.237 C  
ENDBRANCH  40  41
ENDBRANCH  38  40
ENDBRANCH  37  38
ENDBRANCH  35  37
ENDBRANCH  34  35
ENDBRANCH  32  34
ENDBRANCH   8  32
ENDBRANCH   3   4
ENDBRANCH   2   3
TORSDOF 13
ENDMDL
MODEL      267
REMARK 921   NORMALIZED FREE ENERGY PREDICTED BY IDOCK:   -3.48 KCAL/MOL
REMARK 922        TOTAL FREE ENERGY PREDICTED BY IDOCK:   -8.59 KCAL/MOL
REMARK 923 INTER-LIGAND FREE ENERGY PREDICTED BY IDOCK:   -8.55 KCAL/MOL
REMARK 924 INTRA-LIGAND FREE ENERGY PREDICTED BY IDOCK:   -0.04 KCAL/MOL
REMARK 927      BINDING AFFINITY PREDICTED BY RF-SCORE:    0.00 PKD
ROOT
HETATM    1  C   UNL     1      -5.133   9.176  71.613  1.00  0.00    -0.044 C  
HETATM    2  C   UNL     1      -5.244   8.828  70.139  1.00  0.00    -0.028 C  
ENDROOT
BRANCH   2   3
HETATM    3  O   UNL     1      -6.530   9.259  69.683  1.00  0.00    -0.038 OA 
BRANCH   3   4
HETATM    4  C   UNL     1      -6.670  10.578  69.574  1.00  0.00    -0.089 A  
HETATM    5  N   UNL     1      -6.039  11.458  70.317  1.00  0.00    -0.172 NA 
HETATM    6  C   UNL     1      -6.480  12.671  69.875  1.00  0.00     0.044 A  
HETATM    7  C   UNL     1      -7.358  12.551  68.779  1.00  0.00    -0.070 A  
HETATM    8  C   UNL     1      -7.818  13.717  68.119  1.00  0.00    -0.143 A  
HETATM    9  N   UNL     1      -7.543  11.176  68.691  1.00  0.00    -0.119 NA 
HETATM   10  C   UNL     1      -6.645  15.077  69.799  1.00  0.00    -0.170 A  
HETATM   11  C   UNL     1      -6.149  13.929  70.405  1.00  0.00    -0.143 A  
HETATM   12  C   UNL     1      -7.436  14.965  68.662  1.00  0.00    -0.124 A  
BRANCH   9  13
HETATM   13  C   UNL     1      -8.571  10.408  67.989  1.00  0.00    -0.123 C  
BRANCH  13  14
HETATM   14  C   UNL     1      -9.335   9.473  68.893  1.00  0.00    -0.149 A  
HETATM   15  C   UNL     1     -10.257   7.294  69.400  1.00  0.00    -0.193 A  
HETATM   16  C   UNL     1     -10.124   7.535  70.779  1.00  0.00    -0.192 A  
HETATM   17  C   UNL     1      -9.537   9.834  70.227  1.00  0.00    -0.264 A  
HETATM   18  C   UNL     1      -9.806   8.233  68.464  1.00  0.00    -0.188 A  
HETATM   19  C   UNL     1      -9.906   8.868  71.162  1.00  0.00    -0.345 A  
BRANCH  16  20
HETATM   20  C   UNL     1     -10.054   6.433  71.783  1.00  0.00    -0.206 A  
HETATM   21  C   UNL     1     -10.845   6.515  72.955  1.00  0.00    -0.291 A  
HETATM   22  C   UNL     1      -9.150   5.332  71.691  1.00  0.00    -0.156 A  
HETATM   23  C   UNL     1     -10.771   5.564  73.978  1.00  0.00    -0.215 A  
HETATM   24  C   UNL     1      -9.141   4.351  72.709  1.00  0.00    -0.135 A  
HETATM   25  C   UNL     1      -9.934   4.469  73.846  1.00  0.00    -0.195 A  
BRANCH  22  26
HETATM   26  C   UNL     1      -8.147   5.134  70.636  1.00  0.00    -0.106 A  
HETATM   27  N   UNL     1      -7.913   4.020  69.963  1.00  0.00    -0.051 NA 
HETATM   28  H   UNL     1      -8.402   3.131  70.069  1.00  0.00     0.000 HD 
HETATM   29  N   UNL     1      -6.885   4.290  69.094  1.00  0.00    -0.045 NA 
HETATM   30  N   UNL     1      -6.464   5.538  69.233  1.00  0.00    -0.037 NA 
HETATM   31  N   UNL     1      -7.214   6.048  70.220  1.00  0.00    -0.073 NA 
ENDBRANCH  22  26
ENDBRANCH  16  20
ENDBRANCH  13  14
ENDBRANCH   9  13
BRANCH   8  32
HETATM   32  C   UNL     1      -8.787  13.733  66.997  1.00  0.00    -0.218 C  
HETATM   33  O   UNL     1      -8.813  12.883  66.123  1.00  0.00     0.063 OA 
BRANCH  32  34
HETATM   34  O   UNL     1      -9.758  14.661  67.198  1.00  0.00    -0.227 OA 
BRANCH  34  35
HETATM   35  C   UNL     1     -11.059  14.183  66.826  1.00  0.00    -0.310 C  
HETATM   36  C   UNL     1     -11.241  12.860  67.572  1.00  0.00    -0.329 C  
BRANCH  35  37
HETATM   37  O   UNL     1     -12.115  15.021  67.298  1.00  0.00    -0.171 OA 
BRANCH  37  38
HETATM   38  C   UNL     1     -11.777  15.926  68.243  1.00  0.00    -0.186 C  
HETATM   39  O   UNL     1     -11.035  16.881  68.098  1.00  0.00    -0.365 OA 
BRANCH  38  40
HETATM   40  O   UNL     1     -12.441  15.580  69.362  1.00  0.00    -0.197 OA 
BRANCH  40  41
HETATM   41  C   UNL     1     -11.813  15.042  70.548  1.00  0.00    -0.297 C  
HETATM   42  C   UNL     1     -13.648  13.764  72.513  1.00  0.00    -0.680 C  
HETATM   43  C   UNL     1     -12.402  15.796  71.742  1.00  0.00    -0.523 C  
HETATM   44  C   UNL     1     -13.763  15.237  72.144  1.00  0.00    -0.598 C  
HETATM   45  C   UNL     1     -13.061  12.927  71.381  1.00  0.00    -0.331 C  
HETATM   46  C   UNL     1     -11.793  13.525  70.764  1.00  0.00    -0.118 C  
ENDBRANCH  40  41
ENDBRANCH  38  40
ENDBRANCH  37  38
ENDBRANCH  35  37
ENDBRANCH  34  35
ENDBRANCH  32  34
ENDBRANCH   8  32
ENDBRANCH   3   4
ENDBRANCH   2   3
TORSDOF 13
ENDMDL
MODEL      268
REMARK 921   NORMALIZED FREE ENERGY PREDICTED BY IDOCK:   -3.47 KCAL/MOL
REMARK 922        TOTAL FREE ENERGY PREDICTED BY IDOCK:   -8.56 KCAL/MOL
REMARK 923 INTER-LIGAND FREE ENERGY PREDICTED BY IDOCK:   -7.78 KCAL/MOL
REMARK 924 INTRA-LIGAND FREE ENERGY PREDICTED BY IDOCK:   -0.78 KCAL/MOL
REMARK 927      BINDING AFFINITY PREDICTED BY RF-SCORE:    0.00 PKD
ROOT
HETATM    1  C   UNL     1     -10.224   6.450  66.309  1.00  0.00     0.052 C  
HETATM    2  C   UNL     1      -9.901   6.105  67.753  1.00  0.00    -0.123 C  
ENDROOT
BRANCH   2   3
HETATM    3  O   UNL     1      -8.686   6.777  68.101  1.00  0.00    -0.123 OA 
BRANCH   3   4
HETATM    4  C   UNL     1      -8.785   8.101  68.185  1.00  0.00    -0.136 A  
HETATM    5  N   UNL     1      -7.876   8.945  67.753  1.00  0.00    -0.101 NA 
HETATM    6  C   UNL     1      -8.378  10.180  68.043  1.00  0.00    -0.117 A  
HETATM    7  C   UNL     1      -9.667  10.111  68.609  1.00  0.00    -0.163 A  
HETATM    8  C   UNL     1     -10.386  11.306  68.861  1.00  0.00    -0.214 A  
HETATM    9  N   UNL     1      -9.844   8.745  68.788  1.00  0.00    -0.167 NA 
HETATM   10  C   UNL     1      -8.417  12.591  68.140  1.00  0.00    -0.180 A  
HETATM   11  C   UNL     1      -7.741  11.415  67.839  1.00  0.00    -0.114 A  
HETATM   12  C   UNL     1      -9.723  12.529  68.610  1.00  0.00    -0.057 A  
BRANCH   9  13
HETATM   13  C   UNL     1     -10.812   8.021  69.613  1.00  0.00    -0.169 C  
BRANCH  13  14
HETATM   14  C   UNL     1     -10.216   7.467  70.882  1.00  0.00    -0.195 A  
HETATM   15  C   UNL     1      -9.891   5.664  72.462  1.00  0.00    -0.185 A  
HETATM   16  C   UNL     1      -8.628   6.171  72.814  1.00  0.00    -0.123 A  
HETATM   17  C   UNL     1      -9.151   8.141  71.481  1.00  0.00    -0.203 A  
HETATM   18  C   UNL     1     -10.651   6.274  71.456  1.00  0.00    -0.282 A  
HETATM   19  C   UNL     1      -8.353   7.490  72.422  1.00  0.00    -0.131 A  
BRANCH  16  20
HETATM   20  C   UNL     1      -7.565   5.322  73.428  1.00  0.00    -0.096 A  
HETATM   21  C   UNL     1      -6.395   5.939  73.935  1.00  0.00    -0.069 A  
HETATM   22  C   UNL     1      -7.601   3.895  73.446  1.00  0.00    -0.071 A  
HETATM   23  C   UNL     1      -5.322   5.203  74.448  1.00  0.00    -0.022 A  
HETATM   24  C   UNL     1      -6.531   3.178  74.029  1.00  0.00    -0.029 A  
HETATM   25  C   UNL     1      -5.398   3.822  74.515  1.00  0.00    -0.004 A  
BRANCH  22  26
HETATM   26  C   UNL     1      -8.649   3.058  72.847  1.00  0.00    -0.080 A  
HETATM   27  N   UNL     1      -8.675   2.579  71.614  1.00  0.00    -0.067 NA 
HETATM   28  H   UNL     1      -7.963   2.711  70.896  1.00  0.00     0.000 HD 
HETATM   29  N   UNL     1      -9.844   1.869  71.489  1.00  0.00    -0.148 NA 
HETATM   30  N   UNL     1     -10.550   1.921  72.607  1.00  0.00    -0.155 NA 
HETATM   31  N   UNL     1      -9.833   2.695  73.434  1.00  0.00    -0.096 NA 
ENDBRANCH  22  26
ENDBRANCH  16  20
ENDBRANCH  13  14
ENDBRANCH   9  13
BRANCH   8  32
HETATM   32  C   UNL     1     -11.719  11.376  69.506  1.00  0.00    -0.348 C  
HETATM   33  O   UNL     1     -12.720  10.868  69.029  1.00  0.00    -0.239 OA 
BRANCH  32  34
HETATM   34  O   UNL     1     -11.630  11.865  70.769  1.00  0.00     0.092 OA 
BRANCH  34  35
HETATM   35  C   UNL     1     -12.568  12.924  71.015  1.00  0.00    -0.287 C  
HETATM   36  C   UNL     1     -13.349  12.501  72.260  1.00  0.00    -0.475 C  
BRANCH  35  37
HETATM   37  O   UNL     1     -11.937  14.153  71.376  1.00  0.00    -0.304 OA 
BRANCH  37  38
HETATM   38  C   UNL     1     -12.210  15.214  70.585  1.00  0.00    -0.351 C  
HETATM   39  O   UNL     1     -13.036  16.084  70.801  1.00  0.00    -0.390 OA 
BRANCH  38  40
HETATM   40  O   UNL     1     -11.376  15.134  69.531  1.00  0.00    -0.250 OA 
BRANCH  40  41
HETATM   41  C   UNL     1     -11.404  16.035  68.400  1.00  0.00    -0.355 C  
HETATM   42  C   UNL     1      -8.761  16.646  67.174  1.00  0.00    -0.215 C  
HETATM   43  C   UNL     1     -10.574  17.260  68.790  1.00  0.00    -0.305 C  
HETATM   44  C   UNL     1      -9.080  17.005  68.619  1.00  0.00    -0.271 C  
HETATM   45  C   UNL     1      -9.549  15.433  66.690  1.00  0.00    -0.276 C  
HETATM   46  C   UNL     1     -11.046  15.502  67.008  1.00  0.00    -0.238 C  
ENDBRANCH  40  41
ENDBRANCH  38  40
ENDBRANCH  37  38
ENDBRANCH  35  37
ENDBRANCH  34  35
ENDBRANCH  32  34
ENDBRANCH   8  32
ENDBRANCH   3   4
ENDBRANCH   2   3
TORSDOF 13
ENDMDL
MODEL      269
REMARK 921   NORMALIZED FREE ENERGY PREDICTED BY IDOCK:   -3.45 KCAL/MOL
REMARK 922        TOTAL FREE ENERGY PREDICTED BY IDOCK:   -8.52 KCAL/MOL
REMARK 923 INTER-LIGAND FREE ENERGY PREDICTED BY IDOCK:   -8.21 KCAL/MOL
REMARK 924 INTRA-LIGAND FREE ENERGY PREDICTED BY IDOCK:   -0.31 KCAL/MOL
REMARK 927      BINDING AFFINITY PREDICTED BY RF-SCORE:    0.00 PKD
ROOT
HETATM    1  C   UNL     1      -5.821   4.912  62.795  1.00  0.00    -0.014 C  
HETATM    2  C   UNL     1      -5.836   5.104  64.301  1.00  0.00    -0.017 C  
ENDROOT
BRANCH   2   3
HETATM    3  O   UNL     1      -7.169   5.458  64.684  1.00  0.00    -0.056 OA 
BRANCH   3   4
HETATM    4  C   UNL     1      -7.657   4.765  65.709  1.00  0.00    -0.086 A  
HETATM    5  N   UNL     1      -8.147   3.550  65.621  1.00  0.00    -0.093 NA 
HETATM    6  C   UNL     1      -8.533   3.235  66.891  1.00  0.00    -0.102 A  
HETATM    7  C   UNL     1      -8.213   4.251  67.813  1.00  0.00    -0.095 A  
HETATM    8  C   UNL     1      -8.435   4.038  69.196  1.00  0.00    -0.100 A  
HETATM    9  N   UNL     1      -7.752   5.270  66.988  1.00  0.00    -0.095 NA 
HETATM   10  C   UNL     1      -9.460   1.870  68.652  1.00  0.00    -0.213 A  
HETATM   11  C   UNL     1      -9.184   2.060  67.304  1.00  0.00    -0.115 A  
HETATM   12  C   UNL     1      -9.062   2.829  69.575  1.00  0.00    -0.189 A  
BRANCH   9  13
HETATM   13  C   UNL     1      -7.565   6.694  67.267  1.00  0.00    -0.100 C  
BRANCH  13  14
HETATM   14  C   UNL     1      -8.663   7.559  66.701  1.00  0.00    -0.146 A  
HETATM   15  C   UNL     1     -10.701   8.838  66.956  1.00  0.00    -0.186 A  
HETATM   16  C   UNL     1     -10.325   9.689  65.902  1.00  0.00    -0.103 A  
HETATM   17  C   UNL     1      -8.474   8.169  65.459  1.00  0.00    -0.174 A  
HETATM   18  C   UNL     1      -9.845   7.819  67.393  1.00  0.00    -0.230 A  
HETATM   19  C   UNL     1      -9.284   9.237  65.075  1.00  0.00    -0.242 A  
BRANCH  16  20
HETATM   20  C   UNL     1     -10.875  11.068  65.748  1.00  0.00    -0.167 A  
HETATM   21  C   UNL     1     -10.980  11.629  64.452  1.00  0.00    -0.399 A  
HETATM   22  C   UNL     1     -11.213  11.915  66.847  1.00  0.00    -0.382 A  
HETATM   23  C   UNL     1     -11.408  12.943  64.236  1.00  0.00    -0.417 A  
HETATM   24  C   UNL     1     -11.703  13.217  66.597  1.00  0.00    -0.427 A  
HETATM   25  C   UNL     1     -11.790  13.731  65.308  1.00  0.00    -0.365 A  
BRANCH  22  26
HETATM   26  C   UNL     1     -11.043  11.582  68.268  1.00  0.00    -0.239 A  
HETATM   27  N   UNL     1     -10.057  10.886  68.807  1.00  0.00    -0.187 NA 
HETATM   28  H   UNL     1      -9.258  10.483  68.318  1.00  0.00     0.000 HD 
HETATM   29  N   UNL     1     -10.316  10.810  70.154  1.00  0.00     0.156 NA 
HETATM   30  N   UNL     1     -11.451  11.422  70.452  1.00  0.00    -0.170 NA 
HETATM   31  N   UNL     1     -11.926  11.861  69.278  1.00  0.00    -0.302 NA 
ENDBRANCH  22  26
ENDBRANCH  16  20
ENDBRANCH  13  14
ENDBRANCH   9  13
BRANCH   8  32
HETATM   32  C   UNL     1      -8.200   5.043  70.260  1.00  0.00    -0.088 C  
HETATM   33  O   UNL     1      -8.706   6.153  70.254  1.00  0.00    -0.140 OA 
BRANCH  32  34
HETATM   34  O   UNL     1      -7.554   4.496  71.321  1.00  0.00    -0.070 OA 
BRANCH  34  35
HETATM   35  C   UNL     1      -8.318   4.584  72.533  1.00  0.00    -0.110 C  
HETATM   36  C   UNL     1      -7.634   5.663  73.374  1.00  0.00    -0.095 C  
BRANCH  35  37
HETATM   37  O   UNL     1      -9.645   5.067  72.321  1.00  0.00    -0.143 OA 
BRANCH  37  38
HETATM   38  C   UNL     1     -10.456   5.068  73.402  1.00  0.00    -0.222 C  
HETATM   39  O   UNL     1     -10.441   4.265  74.318  1.00  0.00    -0.214 OA 
BRANCH  38  40
HETATM   40  O   UNL     1     -11.260   6.140  73.279  1.00  0.00    -0.193 OA 
BRANCH  40  41
HETATM   41  C   UNL     1     -11.217   7.068  72.171  1.00  0.00    -0.256 C  
HETATM   42  C   UNL     1     -13.603   8.819  71.860  1.00  0.00    -0.467 C  
HETATM   43  C   UNL     1     -12.389   6.715  71.252  1.00  0.00    -0.329 C  
HETATM   44  C   UNL     1     -13.700   7.303  71.762  1.00  0.00    -0.399 C  
HETATM   45  C   UNL     1     -12.454   9.271  72.756  1.00  0.00     0.171 C  
HETATM   46  C   UNL     1     -11.125   8.571  72.454  1.00  0.00    -0.397 C  
ENDBRANCH  40  41
ENDBRANCH  38  40
ENDBRANCH  37  38
ENDBRANCH  35  37
ENDBRANCH  34  35
ENDBRANCH  32  34
ENDBRANCH   8  32
ENDBRANCH   3   4
ENDBRANCH   2   3
TORSDOF 13
ENDMDL
MODEL      270
REMARK 921   NORMALIZED FREE ENERGY PREDICTED BY IDOCK:   -3.33 KCAL/MOL
REMARK 922        TOTAL FREE ENERGY PREDICTED BY IDOCK:   -8.32 KCAL/MOL
REMARK 923 INTER-LIGAND FREE ENERGY PREDICTED BY IDOCK:   -8.65 KCAL/MOL
REMARK 924 INTRA-LIGAND FREE ENERGY PREDICTED BY IDOCK:    0.34 KCAL/MOL
REMARK 927      BINDING AFFINITY PREDICTED BY RF-SCORE:    0.00 PKD
ROOT
HETATM    1  C   UNL     1      -5.939   6.520  71.451  1.00  0.00    -0.036 C  
HETATM    2  C   UNL     1      -6.219   7.394  70.242  1.00  0.00    -0.034 C  
ENDROOT
BRANCH   2   3
HETATM    3  O   UNL     1      -6.554   8.703  70.717  1.00  0.00    -0.038 OA 
BRANCH   3   4
HETATM    4  C   UNL     1      -7.851   8.996  70.678  1.00  0.00    -0.133 A  
HETATM    5  N   UNL     1      -8.726   8.622  71.582  1.00  0.00    -0.194 NA 
HETATM    6  C   UNL     1      -9.917   9.128  71.148  1.00  0.00    -0.307 A  
HETATM    7  C   UNL     1      -9.772   9.898  69.977  1.00  0.00    -0.227 A  
HETATM    8  C   UNL     1     -10.889  10.597  69.456  1.00  0.00    -0.303 A  
HETATM    9  N   UNL     1      -8.439   9.691  69.644  1.00  0.00    -0.157 NA 
HETATM   10  C   UNL     1     -12.288   9.572  71.200  1.00  0.00    -0.410 A  
HETATM   11  C   UNL     1     -11.176   8.938  71.741  1.00  0.00    -0.432 A  
HETATM   12  C   UNL     1     -12.133  10.407  70.100  1.00  0.00    -0.334 A  
BRANCH   9  13
HETATM   13  C   UNL     1      -7.735   9.935  68.384  1.00  0.00    -0.084 C  
BRANCH  13  14
HETATM   14  C   UNL     1      -7.973   8.862  67.353  1.00  0.00    -0.101 A  
HETATM   15  C   UNL     1      -8.120   8.125  65.053  1.00  0.00    -0.155 A  
HETATM   16  C   UNL     1      -7.724   6.828  65.421  1.00  0.00    -0.100 A  
HETATM   17  C   UNL     1      -7.934   7.523  67.745  1.00  0.00    -0.118 A  
HETATM   18  C   UNL     1      -8.181   9.151  66.005  1.00  0.00    -0.115 A  
HETATM   19  C   UNL     1      -7.789   6.519  66.789  1.00  0.00    -0.104 A  
BRANCH  16  20
HETATM   20  C   UNL     1      -7.116   5.868  64.452  1.00  0.00    -0.053 A  
HETATM   21  C   UNL     1      -5.795   6.092  63.995  1.00  0.00    -0.022 A  
HETATM   22  C   UNL     1      -7.827   4.778  63.864  1.00  0.00    -0.086 A  
HETATM   23  C   UNL     1      -5.190   5.284  63.026  1.00  0.00    -0.013 A  
HETATM   24  C   UNL     1      -7.170   3.939  62.935  1.00  0.00    -0.048 A  
HETATM   25  C   UNL     1      -5.870   4.193  62.511  1.00  0.00    -0.016 A  
BRANCH  22  26
HETATM   26  C   UNL     1      -9.242   4.457  64.090  1.00  0.00    -0.140 A  
HETATM   27  N   UNL     1     -10.198   4.399  63.178  1.00  0.00    -0.393 NA 
HETATM   28  H   UNL     1     -10.093   4.557  62.176  1.00  0.00     0.000 HD 
HETATM   29  N   UNL     1     -11.359   4.082  63.839  1.00  0.00    -0.029 NA 
HETATM   30  N   UNL     1     -11.145   3.969  65.141  1.00  0.00     0.093 NA 
HETATM   31  N   UNL     1      -9.844   4.247  65.303  1.00  0.00    -0.196 NA 
ENDBRANCH  22  26
ENDBRANCH  16  20
ENDBRANCH  13  14
ENDBRANCH   9  13
BRANCH   8  32
HETATM   32  C   UNL     1     -10.888  11.390  68.204  1.00  0.00    -0.213 C  
HETATM   33  O   UNL     1     -11.853  11.471  67.463  1.00  0.00    -0.605 OA 
BRANCH  32  34
HETATM   34  O   UNL     1      -9.783  12.174  68.117  1.00  0.00    -0.197 OA 
BRANCH  34  35
HETATM   35  C   UNL     1     -10.103  13.546  67.845  1.00  0.00    -0.248 C  
HETATM   36  C   UNL     1     -10.927  14.022  69.042  1.00  0.00    -0.287 C  
BRANCH  35  37
HETATM   37  O   UNL     1      -8.953  14.393  67.829  1.00  0.00    -0.179 OA 
BRANCH  37  38
HETATM   38  C   UNL     1      -9.076  15.572  68.479  1.00  0.00    -0.196 C  
HETATM   39  O   UNL     1      -8.548  15.875  69.534  1.00  0.00    -0.237 OA 
BRANCH  38  40
HETATM   40  O   UNL     1      -9.870  16.349  67.719  1.00  0.00    -0.233 OA 
BRANCH  40  41
HETATM   41  C   UNL     1     -10.307  17.677  68.090  1.00  0.00    -0.386 C  
HETATM   42  C   UNL     1      -8.891  19.923  66.745  1.00  0.00    -0.422 C  
HETATM   43  C   UNL     1      -9.098  18.383  68.709  1.00  0.00    -0.268 C  
HETATM   44  C   UNL     1      -8.160  18.933  67.640  1.00  0.00    -0.278 C  
HETATM   45  C   UNL     1     -10.122  19.309  66.084  1.00  0.00    -0.517 C  
HETATM   46  C   UNL     1     -11.028  18.546  67.055  1.00  0.00    -0.103 C  
ENDBRANCH  40  41
ENDBRANCH  38  40
ENDBRANCH  37  38
ENDBRANCH  35  37
ENDBRANCH  34  35
ENDBRANCH  32  34
ENDBRANCH   8  32
ENDBRANCH   3   4
ENDBRANCH   2   3
TORSDOF 13
ENDMDL
MODEL      271
REMARK 921   NORMALIZED FREE ENERGY PREDICTED BY IDOCK:   -3.33 KCAL/MOL
REMARK 922        TOTAL FREE ENERGY PREDICTED BY IDOCK:   -8.31 KCAL/MOL
REMARK 923 INTER-LIGAND FREE ENERGY PREDICTED BY IDOCK:   -7.12 KCAL/MOL
REMARK 924 INTRA-LIGAND FREE ENERGY PREDICTED BY IDOCK:   -1.19 KCAL/MOL
REMARK 927      BINDING AFFINITY PREDICTED BY RF-SCORE:    0.00 PKD
ROOT
HETATM    1  C   UNL     1      -9.789   4.429  68.274  1.00  0.00    -0.132 C  
HETATM    2  C   UNL     1     -10.574   4.895  67.060  1.00  0.00    -0.011 C  
ENDROOT
BRANCH   2   3
HETATM    3  O   UNL     1     -11.389   6.000  67.464  1.00  0.00    -0.103 OA 
BRANCH   3   4
HETATM    4  C   UNL     1     -10.999   6.601  68.584  1.00  0.00    -0.251 A  
HETATM    5  N   UNL     1     -11.387   6.256  69.790  1.00  0.00    -0.434 NA 
HETATM    6  C   UNL     1     -10.757   7.131  70.626  1.00  0.00    -0.235 A  
HETATM    7  C   UNL     1      -9.896   8.004  69.931  1.00  0.00    -0.186 A  
HETATM    8  C   UNL     1      -9.072   8.899  70.657  1.00  0.00    -0.247 A  
HETATM    9  N   UNL     1     -10.170   7.703  68.603  1.00  0.00    -0.195 NA 
HETATM   10  C   UNL     1     -10.145   8.134  72.733  1.00  0.00    -0.367 A  
HETATM   11  C   UNL     1     -10.906   7.216  72.020  1.00  0.00    -0.252 A  
HETATM   12  C   UNL     1      -9.227   8.932  72.062  1.00  0.00    -0.187 A  
BRANCH   9  13
HETATM   13  C   UNL     1      -9.865   8.455  67.385  1.00  0.00    -0.191 C  
BRANCH  13  14
HETATM   14  C   UNL     1      -8.687   7.901  66.625  1.00  0.00    -0.154 A  
HETATM   15  C   UNL     1      -6.600   6.679  66.542  1.00  0.00    -0.044 A  
HETATM   16  C   UNL     1      -6.860   6.282  65.219  1.00  0.00    -0.048 A  
HETATM   17  C   UNL     1      -8.762   7.804  65.234  1.00  0.00    -0.004 A  
HETATM   18  C   UNL     1      -7.538   7.431  67.260  1.00  0.00    -0.108 A  
HETATM   19  C   UNL     1      -7.870   6.984  64.543  1.00  0.00    -0.118 A  
BRANCH  16  20
HETATM   20  C   UNL     1      -6.224   5.081  64.601  1.00  0.00    -0.030 A  
HETATM   21  C   UNL     1      -6.173   4.975  63.190  1.00  0.00    -0.022 A  
HETATM   22  C   UNL     1      -5.747   3.962  65.349  1.00  0.00    -0.022 A  
HETATM   23  C   UNL     1      -5.669   3.844  62.541  1.00  0.00    -0.013 A  
HETATM   24  C   UNL     1      -5.183   2.859  64.670  1.00  0.00    -0.009 A  
HETATM   25  C   UNL     1      -5.153   2.793  63.280  1.00  0.00    -0.007 A  
BRANCH  22  26
HETATM   26  C   UNL     1      -5.836   3.807  66.808  1.00  0.00    -0.023 A  
HETATM   27  N   UNL     1      -6.639   2.993  67.471  1.00  0.00    -0.037 NA 
HETATM   28  H   UNL     1      -7.311   2.339  67.069  1.00  0.00     0.000 HD 
HETATM   29  N   UNL     1      -6.392   3.194  68.807  1.00  0.00    -0.029 NA 
HETATM   30  N   UNL     1      -5.474   4.132  68.982  1.00  0.00    -0.012 NA 
HETATM   31  N   UNL     1      -5.163   4.546  67.746  1.00  0.00    -0.010 NA 
ENDBRANCH  22  26
ENDBRANCH  16  20
ENDBRANCH  13  14
ENDBRANCH   9  13
BRANCH   8  32
HETATM   32  C   UNL     1      -8.170   9.908  70.050  1.00  0.00    -0.168 C  
HETATM   33  O   UNL     1      -6.955   9.815  70.070  1.00  0.00    -0.074 OA 
BRANCH  32  34
HETATM   34  O   UNL     1      -8.863  10.797  69.294  1.00  0.00    -0.128 OA 
BRANCH  34  35
HETATM   35  C   UNL     1      -8.017  11.798  68.710  1.00  0.00    -0.063 C  
HETATM   36  C   UNL     1      -7.428  11.156  67.453  1.00  0.00    -0.109 C  
BRANCH  35  37
HETATM   37  O   UNL     1      -8.742  12.934  68.239  1.00  0.00    -0.183 OA 
BRANCH  37  38
HETATM   38  C   UNL     1     -10.088  12.856  68.325  1.00  0.00    -0.242 C  
HETATM   39  O   UNL     1     -10.733  12.548  69.312  1.00  0.00    -0.090 OA 
BRANCH  38  40
HETATM   40  O   UNL     1     -10.572  13.210  67.120  1.00  0.00    -0.255 OA 
BRANCH  40  41
HETATM   41  C   UNL     1     -11.672  12.545  66.456  1.00  0.00    -0.391 C  
HETATM   42  C   UNL     1     -11.633  12.643  63.482  1.00  0.00    -0.584 C  
HETATM   43  C   UNL     1     -12.416  13.614  65.654  1.00  0.00    -0.540 C  
HETATM   44  C   UNL     1     -11.723  13.906  64.327  1.00  0.00    -0.406 C  
HETATM   45  C   UNL     1     -10.908  11.511  64.203  1.00  0.00    -0.435 C  
HETATM   46  C   UNL     1     -11.399  11.279  65.636  1.00  0.00     0.022 C  
ENDBRANCH  40  41
ENDBRANCH  38  40
ENDBRANCH  37  38
ENDBRANCH  35  37
ENDBRANCH  34  35
ENDBRANCH  32  34
ENDBRANCH   8  32
ENDBRANCH   3   4
ENDBRANCH   2   3
TORSDOF 13
ENDMDL
MODEL      272
REMARK 921   NORMALIZED FREE ENERGY PREDICTED BY IDOCK:   -3.31 KCAL/MOL
REMARK 922        TOTAL FREE ENERGY PREDICTED BY IDOCK:   -8.29 KCAL/MOL
REMARK 923 INTER-LIGAND FREE ENERGY PREDICTED BY IDOCK:   -8.08 KCAL/MOL
REMARK 924 INTRA-LIGAND FREE ENERGY PREDICTED BY IDOCK:   -0.21 KCAL/MOL
REMARK 927      BINDING AFFINITY PREDICTED BY RF-SCORE:    0.00 PKD
ROOT
HETATM    1  C   UNL     1      -5.171   9.326  72.212  1.00  0.00    -0.075 C  
HETATM    2  C   UNL     1      -5.172  10.145  70.934  1.00  0.00    -0.066 C  
ENDROOT
BRANCH   2   3
HETATM    3  O   UNL     1      -5.420  11.509  71.289  1.00  0.00    -0.315 OA 
BRANCH   3   4
HETATM    4  C   UNL     1      -6.074  12.215  70.370  1.00  0.00    -0.019 A  
HETATM    5  N   UNL     1      -5.943  13.509  70.193  1.00  0.00    -0.145 NA 
HETATM    6  C   UNL     1      -6.790  13.810  69.166  1.00  0.00    -0.102 A  
HETATM    7  C   UNL     1      -7.417  12.663  68.639  1.00  0.00    -0.094 A  
HETATM    8  C   UNL     1      -8.237  12.778  67.490  1.00  0.00    -0.179 A  
HETATM    9  N   UNL     1      -7.013  11.668  69.521  1.00  0.00    -0.057 NA 
HETATM   10  C   UNL     1      -7.914  15.215  67.559  1.00  0.00    -0.194 A  
HETATM   11  C   UNL     1      -7.063  15.088  68.649  1.00  0.00    -0.109 A  
HETATM   12  C   UNL     1      -8.460  14.077  66.978  1.00  0.00    -0.168 A  
BRANCH   9  13
HETATM   13  C   UNL     1      -7.554  10.326  69.738  1.00  0.00    -0.162 C  
BRANCH  13  14
HETATM   14  C   UNL     1      -7.006   9.303  68.775  1.00  0.00    -0.061 A  
HETATM   15  C   UNL     1      -6.923   7.051  67.892  1.00  0.00    -0.083 A  
HETATM   16  C   UNL     1      -6.565   7.539  66.624  1.00  0.00    -0.054 A  
HETATM   17  C   UNL     1      -6.319   9.738  67.641  1.00  0.00    -0.060 A  
HETATM   18  C   UNL     1      -7.205   7.933  68.944  1.00  0.00    -0.076 A  
HETATM   19  C   UNL     1      -6.120   8.870  66.569  1.00  0.00    -0.060 A  
BRANCH  16  20
HETATM   20  C   UNL     1      -6.786   6.758  65.371  1.00  0.00    -0.051 A  
HETATM   21  C   UNL     1      -5.820   6.821  64.338  1.00  0.00    -0.032 A  
HETATM   22  C   UNL     1      -7.977   6.020  65.096  1.00  0.00    -0.123 A  
HETATM   23  C   UNL     1      -5.997   6.184  63.105  1.00  0.00    -0.022 A  
HETATM   24  C   UNL     1      -8.103   5.333  63.868  1.00  0.00    -0.117 A  
HETATM   25  C   UNL     1      -7.130   5.421  62.877  1.00  0.00    -0.038 A  
BRANCH  22  26
HETATM   26  C   UNL     1      -9.157   5.944  65.968  1.00  0.00    -0.142 A  
HETATM   27  N   UNL     1     -10.060   6.888  66.166  1.00  0.00    -0.404 NA 
HETATM   28  H   UNL     1     -10.080   7.811  65.732  1.00  0.00     0.000 HD 
HETATM   29  N   UNL     1     -10.968   6.387  67.066  1.00  0.00    -0.394 NA 
HETATM   30  N   UNL     1     -10.631   5.165  67.446  1.00  0.00    -0.106 NA 
HETATM   31  N   UNL     1      -9.484   4.907  66.803  1.00  0.00    -0.138 NA 
ENDBRANCH  22  26
ENDBRANCH  16  20
ENDBRANCH  13  14
ENDBRANCH   9  13
BRANCH   8  32
HETATM   32  C   UNL     1      -8.999  11.666  66.874  1.00  0.00    -0.191 C  
HETATM   33  O   UNL     1      -9.651  10.864  67.521  1.00  0.00    -0.154 OA 
BRANCH  32  34
HETATM   34  O   UNL     1      -9.059  11.798  65.524  1.00  0.00    -0.124 OA 
BRANCH  34  35
HETATM   35  C   UNL     1     -10.345  12.250  65.073  1.00  0.00    -0.291 C  
HETATM   36  C   UNL     1     -10.872  11.145  64.157  1.00  0.00    -0.355 C  
BRANCH  35  37
HETATM   37  O   UNL     1     -11.303  12.342  66.128  1.00  0.00    -0.315 OA 
BRANCH  37  38
HETATM   38  C   UNL     1     -12.057  13.464  66.148  1.00  0.00    -0.429 C  
HETATM   39  O   UNL     1     -12.373  14.140  65.185  1.00  0.00    -0.418 OA 
BRANCH  38  40
HETATM   40  O   UNL     1     -12.409  13.668  67.431  1.00  0.00    -0.297 OA 
BRANCH  40  41
HETATM   41  C   UNL     1     -11.475  13.721  68.534  1.00  0.00    -0.307 C  
HETATM   42  C   UNL     1     -12.569  14.752  71.102  1.00  0.00    -0.407 C  
HETATM   43  C   UNL     1     -11.364  15.189  68.950  1.00  0.00    -0.314 C  
HETATM   44  C   UNL     1     -12.526  15.609  69.845  1.00  0.00    -0.192 C  
HETATM   45  C   UNL     1     -12.674  13.263  70.787  1.00  0.00    -0.284 C  
HETATM   46  C   UNL     1     -11.674  12.784  69.730  1.00  0.00    -0.352 C  
ENDBRANCH  40  41
ENDBRANCH  38  40
ENDBRANCH  37  38
ENDBRANCH  35  37
ENDBRANCH  34  35
ENDBRANCH  32  34
ENDBRANCH   8  32
ENDBRANCH   3   4
ENDBRANCH   2   3
TORSDOF 13
ENDMDL
MODEL      273
REMARK 921   NORMALIZED FREE ENERGY PREDICTED BY IDOCK:   -3.28 KCAL/MOL
REMARK 922        TOTAL FREE ENERGY PREDICTED BY IDOCK:   -8.23 KCAL/MOL
REMARK 923 INTER-LIGAND FREE ENERGY PREDICTED BY IDOCK:   -7.94 KCAL/MOL
REMARK 924 INTRA-LIGAND FREE ENERGY PREDICTED BY IDOCK:   -0.28 KCAL/MOL
REMARK 927      BINDING AFFINITY PREDICTED BY RF-SCORE:    0.00 PKD
ROOT
HETATM    1  C   UNL     1      -6.309  12.313  67.665  1.00  0.00    -0.122 C  
HETATM    2  C   UNL     1      -6.256  11.049  66.826  1.00  0.00    -0.110 C  
ENDROOT
BRANCH   2   3
HETATM    3  O   UNL     1      -5.547  10.056  67.575  1.00  0.00    -0.042 OA 
BRANCH   3   4
HETATM    4  C   UNL     1      -6.180   9.616  68.659  1.00  0.00    -0.043 A  
HETATM    5  N   UNL     1      -5.670   9.610  69.868  1.00  0.00    -0.039 NA 
HETATM    6  C   UNL     1      -6.647   9.077  70.658  1.00  0.00    -0.060 A  
HETATM    7  C   UNL     1      -7.826   8.807  69.936  1.00  0.00    -0.093 A  
HETATM    8  C   UNL     1      -8.983   8.363  70.624  1.00  0.00    -0.168 A  
HETATM    9  N   UNL     1      -7.442   9.063  68.626  1.00  0.00    -0.083 NA 
HETATM   10  C   UNL     1      -7.668   8.302  72.702  1.00  0.00    -0.169 A  
HETATM   11  C   UNL     1      -6.556   8.795  72.031  1.00  0.00    -0.054 A  
HETATM   12  C   UNL     1      -8.861   8.122  72.012  1.00  0.00    -0.233 A  
BRANCH   9  13
HETATM   13  C   UNL     1      -8.079   8.678  67.366  1.00  0.00    -0.102 C  
BRANCH  13  14
HETATM   14  C   UNL     1      -7.326   7.603  66.624  1.00  0.00    -0.088 A  
HETATM   15  C   UNL     1      -6.466   5.348  66.453  1.00  0.00    -0.044 A  
HETATM   16  C   UNL     1      -6.558   5.396  65.052  1.00  0.00    -0.040 A  
HETATM   17  C   UNL     1      -7.080   7.766  65.259  1.00  0.00    -0.060 A  
HETATM   18  C   UNL     1      -6.908   6.422  67.236  1.00  0.00    -0.069 A  
HETATM   19  C   UNL     1      -6.721   6.667  64.479  1.00  0.00    -0.042 A  
BRANCH  16  20
HETATM   20  C   UNL     1      -6.641   4.165  64.210  1.00  0.00    -0.043 A  
HETATM   21  C   UNL     1      -5.476   3.697  63.555  1.00  0.00    -0.009 A  
HETATM   22  C   UNL     1      -7.860   3.476  63.931  1.00  0.00    -0.080 A  
HETATM   23  C   UNL     1      -5.495   2.602  62.685  1.00  0.00    -0.008 A  
HETATM   24  C   UNL     1      -7.839   2.334  63.099  1.00  0.00    -0.063 A  
HETATM   25  C   UNL     1      -6.673   1.905  62.473  1.00  0.00    -0.021 A  
BRANCH  22  26
HETATM   26  C   UNL     1      -9.196   3.879  64.391  1.00  0.00    -0.147 A  
HETATM   27  N   UNL     1     -10.262   4.096  63.639  1.00  0.00    -0.375 NA 
HETATM   28  H   UNL     1     -10.319   4.005  62.625  1.00  0.00     0.000 HD 
HETATM   29  N   UNL     1     -11.276   4.466  64.487  1.00  0.00    -0.091 NA 
HETATM   30  N   UNL     1     -10.853   4.506  65.741  1.00  0.00    -0.132 NA 
HETATM   31  N   UNL     1      -9.553   4.188  65.678  1.00  0.00    -0.174 NA 
ENDBRANCH  22  26
ENDBRANCH  16  20
ENDBRANCH  13  14
ENDBRANCH   9  13
BRANCH   8  32
HETATM   32  C   UNL     1     -10.264   7.986  69.980  1.00  0.00    -0.205 C  
HETATM   33  O   UNL     1     -10.892   6.984  70.277  1.00  0.00    -0.236 OA 
BRANCH  32  34
HETATM   34  O   UNL     1     -10.742   8.995  69.208  1.00  0.00    -0.227 OA 
BRANCH  34  35
HETATM   35  C   UNL     1     -10.615  10.277  69.839  1.00  0.00    -0.276 C  
HETATM   36  C   UNL     1     -10.168  11.237  68.736  1.00  0.00    -0.215 C  
BRANCH  35  37
HETATM   37  O   UNL     1     -11.864  10.798  70.297  1.00  0.00    -0.288 OA 
BRANCH  37  38
HETATM   38  C   UNL     1     -12.222  12.003  69.800  1.00  0.00    -0.159 C  
HETATM   39  O   UNL     1     -12.405  12.277  68.627  1.00  0.00    -0.119 OA 
BRANCH  38  40
HETATM   40  O   UNL     1     -12.360  12.828  70.855  1.00  0.00    -0.372 OA 
BRANCH  40  41
HETATM   41  C   UNL     1     -13.120  14.058  70.833  1.00  0.00    -0.228 C  
HETATM   42  C   UNL     1     -12.343  16.092  72.862  1.00  0.00    -0.609 C  
HETATM   43  C   UNL     1     -13.812  14.176  72.193  1.00  0.00    -0.613 C  
HETATM   44  C   UNL     1     -12.865  14.718  73.259  1.00  0.00    -0.621 C  
HETATM   45  C   UNL     1     -11.639  16.077  71.509  1.00  0.00    -0.529 C  
HETATM   46  C   UNL     1     -12.429  15.359  70.410  1.00  0.00    -0.447 C  
ENDBRANCH  40  41
ENDBRANCH  38  40
ENDBRANCH  37  38
ENDBRANCH  35  37
ENDBRANCH  34  35
ENDBRANCH  32  34
ENDBRANCH   8  32
ENDBRANCH   3   4
ENDBRANCH   2   3
TORSDOF 13
ENDMDL
MODEL      274
REMARK 921   NORMALIZED FREE ENERGY PREDICTED BY IDOCK:   -3.18 KCAL/MOL
REMARK 922        TOTAL FREE ENERGY PREDICTED BY IDOCK:   -8.05 KCAL/MOL
REMARK 923 INTER-LIGAND FREE ENERGY PREDICTED BY IDOCK:   -8.41 KCAL/MOL
REMARK 924 INTRA-LIGAND FREE ENERGY PREDICTED BY IDOCK:    0.36 KCAL/MOL
REMARK 927      BINDING AFFINITY PREDICTED BY RF-SCORE:    0.00 PKD
ROOT
HETATM    1  C   UNL     1      -8.583  10.220  64.566  1.00  0.00    -0.195 C  
HETATM    2  C   UNL     1      -9.917   9.951  65.240  1.00  0.00    -0.249 C  
ENDROOT
BRANCH   2   3
HETATM    3  O   UNL     1     -10.564  11.211  65.446  1.00  0.00    -0.265 OA 
BRANCH   3   4
HETATM    4  C   UNL     1      -9.937  12.032  66.284  1.00  0.00    -0.227 A  
HETATM    5  N   UNL     1      -8.699  12.444  66.136  1.00  0.00     0.096 NA 
HETATM    6  C   UNL     1      -8.467  13.251  67.211  1.00  0.00    -0.201 A  
HETATM    7  C   UNL     1      -9.612  13.404  68.019  1.00  0.00    -0.219 A  
HETATM    8  C   UNL     1      -9.583  14.305  69.112  1.00  0.00     0.074 A  
HETATM    9  N   UNL     1     -10.505  12.507  67.446  1.00  0.00    -0.218 NA 
HETATM   10  C   UNL     1      -7.203  14.719  68.649  1.00  0.00    -0.119 A  
HETATM   11  C   UNL     1      -7.256  13.881  67.543  1.00  0.00    -0.178 A  
HETATM   12  C   UNL     1      -8.354  14.945  69.394  1.00  0.00    -0.069 A  
BRANCH   9  13
HETATM   13  C   UNL     1     -11.745  11.943  67.981  1.00  0.00    -0.312 C  
BRANCH  13  14
HETATM   14  C   UNL     1     -11.514  10.792  68.927  1.00  0.00    -0.362 A  
HETATM   15  C   UNL     1     -10.399   8.731  69.529  1.00  0.00    -0.213 A  
HETATM   16  C   UNL     1     -10.541   9.028  70.896  1.00  0.00    -0.316 A  
HETATM   17  C   UNL     1     -11.958  10.900  70.247  1.00  0.00    -0.448 A  
HETATM   18  C   UNL     1     -10.826   9.639  68.552  1.00  0.00    -0.202 A  
HETATM   19  C   UNL     1     -11.458  10.039  71.223  1.00  0.00    -0.390 A  
BRANCH  16  20
HETATM   20  C   UNL     1      -9.663   8.429  71.944  1.00  0.00    -0.331 A  
HETATM   21  C   UNL     1     -10.250   7.917  73.127  1.00  0.00    -0.358 A  
HETATM   22  C   UNL     1      -8.237   8.431  71.879  1.00  0.00    -0.210 A  
HETATM   23  C   UNL     1      -9.486   7.417  74.186  1.00  0.00    -0.190 A  
HETATM   24  C   UNL     1      -7.491   7.861  72.936  1.00  0.00    -0.139 A  
HETATM   25  C   UNL     1      -8.106   7.369  74.083  1.00  0.00    -0.190 A  
BRANCH  22  26
HETATM   26  C   UNL     1      -7.429   9.038  70.813  1.00  0.00    -0.115 A  
HETATM   27  N   UNL     1      -6.735   8.403  69.884  1.00  0.00    -0.042 NA 
HETATM   28  H   UNL     1      -6.665   7.392  69.761  1.00  0.00     0.000 HD 
HETATM   29  N   UNL     1      -6.127   9.365  69.115  1.00  0.00    -0.041 NA 
HETATM   30  N   UNL     1      -6.411  10.577  69.565  1.00  0.00    -0.055 NA 
HETATM   31  N   UNL     1      -7.179  10.375  70.644  1.00  0.00    -0.159 NA 
ENDBRANCH  22  26
ENDBRANCH  16  20
ENDBRANCH  13  14
ENDBRANCH   9  13
BRANCH   8  32
HETATM   32  C   UNL     1     -10.693  14.513  70.072  1.00  0.00     0.075 C  
HETATM   33  O   UNL     1     -10.560  15.110  71.127  1.00  0.00    -0.071 OA 
BRANCH  32  34
HETATM   34  O   UNL     1     -11.887  14.165  69.529  1.00  0.00    -0.280 OA 
BRANCH  34  35
HETATM   35  C   UNL     1     -12.870  15.202  69.654  1.00  0.00     0.179 C  
HETATM   36  C   UNL     1     -12.947  15.520  71.148  1.00  0.00    -0.560 C  
BRANCH  35  37
HETATM   37  O   UNL     1     -12.469  16.426  69.037  1.00  0.00     0.301 OA 
BRANCH  37  38
HETATM   38  C   UNL     1     -11.766  16.309  67.889  1.00  0.00     0.201 C  
HETATM   39  O   UNL     1     -11.964  15.503  66.998  1.00  0.00     0.150 OA 
BRANCH  38  40
HETATM   40  O   UNL     1     -10.826  17.272  67.914  1.00  0.00    -0.369 OA 
BRANCH  40  41
HETATM   41  C   UNL     1     -10.228  17.858  66.735  1.00  0.00    -0.360 C  
HETATM   42  C   UNL     1      -7.958  19.719  67.228  1.00  0.00    -0.320 C  
HETATM   43  C   UNL     1     -10.410  19.373  66.851  1.00  0.00    -0.541 C  
HETATM   44  C   UNL     1      -9.357  19.997  67.760  1.00  0.00    -0.467 C  
HETATM   45  C   UNL     1      -7.683  18.227  67.071  1.00  0.00    -0.232 C  
HETATM   46  C   UNL     1      -8.798  17.467  66.346  1.00  0.00    -0.273 C  
ENDBRANCH  40  41
ENDBRANCH  38  40
ENDBRANCH  37  38
ENDBRANCH  35  37
ENDBRANCH  34  35
ENDBRANCH  32  34
ENDBRANCH   8  32
ENDBRANCH   3   4
ENDBRANCH   2   3
TORSDOF 13
ENDMDL
MODEL      275
REMARK 921   NORMALIZED FREE ENERGY PREDICTED BY IDOCK:   -3.09 KCAL/MOL
REMARK 922        TOTAL FREE ENERGY PREDICTED BY IDOCK:   -7.89 KCAL/MOL
REMARK 923 INTER-LIGAND FREE ENERGY PREDICTED BY IDOCK:   -7.20 KCAL/MOL
REMARK 924 INTRA-LIGAND FREE ENERGY PREDICTED BY IDOCK:   -0.69 KCAL/MOL
REMARK 927      BINDING AFFINITY PREDICTED BY RF-SCORE:    0.00 PKD
ROOT
HETATM    1  C   UNL     1     -11.378   8.589  71.048  1.00  0.00    -0.313 C  
HETATM    2  C   UNL     1     -10.965   8.279  69.620  1.00  0.00    -0.086 C  
ENDROOT
BRANCH   2   3
HETATM    3  O   UNL     1     -10.698   6.875  69.537  1.00  0.00    -0.224 OA 
BRANCH   3   4
HETATM    4  C   UNL     1     -10.250   6.461  68.355  1.00  0.00    -0.175 A  
HETATM    5  N   UNL     1     -10.799   5.504  67.643  1.00  0.00    -0.114 NA 
HETATM    6  C   UNL     1     -10.023   5.408  66.525  1.00  0.00    -0.196 A  
HETATM    7  C   UNL     1      -9.000   6.377  66.503  1.00  0.00    -0.145 A  
HETATM    8  C   UNL     1      -8.174   6.499  65.358  1.00  0.00    -0.135 A  
HETATM    9  N   UNL     1      -9.113   6.962  67.758  1.00  0.00    -0.119 NA 
HETATM   10  C   UNL     1      -9.315   4.549  64.385  1.00  0.00    -0.100 A  
HETATM   11  C   UNL     1     -10.160   4.475  65.484  1.00  0.00    -0.240 A  
HETATM   12  C   UNL     1      -8.366   5.562  64.316  1.00  0.00    -0.107 A  
BRANCH   9  13
HETATM   13  C   UNL     1      -8.166   7.802  68.494  1.00  0.00    -0.128 C  
BRANCH  13  14
HETATM   14  C   UNL     1      -7.402   7.047  69.553  1.00  0.00    -0.094 A  
HETATM   15  C   UNL     1      -6.806   6.654  71.864  1.00  0.00    -0.067 A  
HETATM   16  C   UNL     1      -6.575   5.294  71.596  1.00  0.00    -0.040 A  
HETATM   17  C   UNL     1      -6.838   5.811  69.230  1.00  0.00    -0.062 A  
HETATM   18  C   UNL     1      -7.279   7.510  70.861  1.00  0.00    -0.067 A  
HETATM   19  C   UNL     1      -6.449   4.936  70.244  1.00  0.00    -0.034 A  
BRANCH  16  20
HETATM   20  C   UNL     1      -6.615   4.247  72.659  1.00  0.00    -0.041 A  
HETATM   21  C   UNL     1      -5.596   3.264  72.700  1.00  0.00    -0.004 A  
HETATM   22  C   UNL     1      -7.687   4.104  73.591  1.00  0.00    -0.081 A  
HETATM   23  C   UNL     1      -5.612   2.205  73.614  1.00  0.00     0.000 A  
HETATM   24  C   UNL     1      -7.646   3.062  74.546  1.00  0.00    -0.056 A  
HETATM   25  C   UNL     1      -6.627   2.116  74.552  1.00  0.00    -0.017 A  
BRANCH  22  26
HETATM   26  C   UNL     1      -8.905   4.925  73.627  1.00  0.00    -0.108 A  
HETATM   27  N   UNL     1      -9.926   4.866  72.790  1.00  0.00    -0.157 NA 
HETATM   28  H   UNL     1     -10.028   4.232  71.997  1.00  0.00     0.000 HD 
HETATM   29  N   UNL     1     -10.826   5.821  73.194  1.00  0.00    -0.262 NA 
HETATM   30  N   UNL     1     -10.370   6.484  74.246  1.00  0.00    -0.343 NA 
HETATM   31  N   UNL     1      -9.160   5.961  74.487  1.00  0.00    -0.130 NA 
ENDBRANCH  22  26
ENDBRANCH  16  20
ENDBRANCH  13  14
ENDBRANCH   9  13
BRANCH   8  32
HETATM   32  C   UNL     1      -7.029   7.431  65.230  1.00  0.00    -0.059 C  
HETATM   33  O   UNL     1      -6.073   7.219  64.502  1.00  0.00    -0.037 OA 
BRANCH  32  34
HETATM   34  O   UNL     1      -7.290   8.619  65.832  1.00  0.00    -0.082 OA 
BRANCH  34  35
HETATM   35  C   UNL     1      -7.761   9.611  64.909  1.00  0.00    -0.120 C  
HETATM   36  C   UNL     1      -7.039   9.324  63.592  1.00  0.00    -0.094 C  
BRANCH  35  37
HETATM   37  O   UNL     1      -9.150   9.474  64.605  1.00  0.00    -0.227 OA 
BRANCH  37  38
HETATM   38  C   UNL     1     -10.007  10.064  65.468  1.00  0.00    -0.296 C  
HETATM   39  O   UNL     1     -10.620   9.516  66.367  1.00  0.00    -0.146 OA 
BRANCH  38  40
HETATM   40  O   UNL     1     -10.027  11.373  65.156  1.00  0.00    -0.240 OA 
BRANCH  40  41
HETATM   41  C   UNL     1     -11.223  12.185  65.124  1.00  0.00    -0.329 C  
HETATM   42  C   UNL     1     -11.004  14.856  66.418  1.00  0.00    -0.336 C  
HETATM   43  C   UNL     1     -11.626  12.436  66.579  1.00  0.00    -0.447 C  
HETATM   44  C   UNL     1     -10.812  13.565  67.201  1.00  0.00    -0.291 C  
HETATM   45  C   UNL     1     -10.632  14.704  64.946  1.00  0.00    -0.446 C  
HETATM   46  C   UNL     1     -11.240  13.465  64.282  1.00  0.00    -0.406 C  
ENDBRANCH  40  41
ENDBRANCH  38  40
ENDBRANCH  37  38
ENDBRANCH  35  37
ENDBRANCH  34  35
ENDBRANCH  32  34
ENDBRANCH   8  32
ENDBRANCH   3   4
ENDBRANCH   2   3
TORSDOF 13
ENDMDL
MODEL      276
REMARK 921   NORMALIZED FREE ENERGY PREDICTED BY IDOCK:   -3.02 KCAL/MOL
REMARK 922        TOTAL FREE ENERGY PREDICTED BY IDOCK:   -7.77 KCAL/MOL
REMARK 923 INTER-LIGAND FREE ENERGY PREDICTED BY IDOCK:   -7.46 KCAL/MOL
REMARK 924 INTRA-LIGAND FREE ENERGY PREDICTED BY IDOCK:   -0.31 KCAL/MOL
REMARK 927      BINDING AFFINITY PREDICTED BY RF-SCORE:    0.00 PKD
ROOT
HETATM    1  C   UNL     1     -13.421   8.907  72.013  1.00  0.00    -0.482 C  
HETATM    2  C   UNL     1     -12.319   9.785  71.449  1.00  0.00    -0.388 C  
ENDROOT
BRANCH   2   3
HETATM    3  O   UNL     1     -11.396   8.939  70.756  1.00  0.00    -0.267 OA 
BRANCH   3   4
HETATM    4  C   UNL     1     -10.733   9.529  69.765  1.00  0.00    -0.239 A  
HETATM    5  N   UNL     1     -11.190   9.670  68.542  1.00  0.00    -0.034 NA 
HETATM    6  C   UNL     1     -10.195  10.314  67.868  1.00  0.00    -0.183 A  
HETATM    7  C   UNL     1      -9.113  10.648  68.706  1.00  0.00    -0.169 A  
HETATM    8  C   UNL     1      -8.045  11.427  68.196  1.00  0.00    -0.137 A  
HETATM    9  N   UNL     1      -9.452  10.020  69.899  1.00  0.00    -0.215 NA 
HETATM   10  C   UNL     1      -9.104  11.343  65.978  1.00  0.00    -0.218 A  
HETATM   11  C   UNL     1     -10.177  10.632  66.499  1.00  0.00    -0.288 A  
HETATM   12  C   UNL     1      -8.080  11.756  66.821  1.00  0.00    -0.133 A  
BRANCH   9  13
HETATM   13  C   UNL     1      -8.625   9.700  71.063  1.00  0.00     0.424 C  
BRANCH  13  14
HETATM   14  C   UNL     1      -8.431   8.219  71.264  1.00  0.00    -0.164 A  
HETATM   15  C   UNL     1      -8.229   6.281  72.700  1.00  0.00    -0.106 A  
HETATM   16  C   UNL     1      -8.760   5.455  71.695  1.00  0.00    -0.139 A  
HETATM   17  C   UNL     1      -8.613   7.357  70.181  1.00  0.00    -0.139 A  
HETATM   18  C   UNL     1      -8.125   7.665  72.507  1.00  0.00    -0.140 A  
HETATM   19  C   UNL     1      -8.798   5.992  70.398  1.00  0.00    -0.148 A  
BRANCH  16  20
HETATM   20  C   UNL     1      -9.401   4.139  71.992  1.00  0.00    -0.184 A  
HETATM   21  C   UNL     1     -10.253   4.024  73.117  1.00  0.00    -0.220 A  
HETATM   22  C   UNL     1      -9.125   2.942  71.266  1.00  0.00    -0.179 A  
HETATM   23  C   UNL     1     -10.821   2.807  73.506  1.00  0.00    -0.299 A  
HETATM   24  C   UNL     1      -9.763   1.738  71.641  1.00  0.00    -0.207 A  
HETATM   25  C   UNL     1     -10.594   1.666  72.755  1.00  0.00    -0.234 A  
BRANCH  22  26
HETATM   26  C   UNL     1      -8.167   2.812  70.160  1.00  0.00    -0.041 A  
HETATM   27  N   UNL     1      -8.341   2.142  69.033  1.00  0.00    -0.051 NA 
HETATM   28  H   UNL     1      -9.174   1.622  68.757  1.00  0.00     0.000 HD 
HETATM   29  N   UNL     1      -7.185   2.283  68.306  1.00  0.00    -0.047 NA 
HETATM   30  N   UNL     1      -6.294   3.003  68.969  1.00  0.00    -0.029 NA 
HETATM   31  N   UNL     1      -6.883   3.292  70.137  1.00  0.00    -0.033 NA 
ENDBRANCH  22  26
ENDBRANCH  16  20
ENDBRANCH  13  14
ENDBRANCH   9  13
BRANCH   8  32
HETATM   32  C   UNL     1      -6.823  11.794  68.951  1.00  0.00    -0.102 C  
HETATM   33  O   UNL     1      -5.776  11.176  68.869  1.00  0.00    -0.040 OA 
BRANCH  32  34
HETATM   34  O   UNL     1      -6.957  13.007  69.545  1.00  0.00     0.023 OA 
BRANCH  34  35
HETATM   35  C   UNL     1      -6.062  13.988  69.000  1.00  0.00    -0.088 C  
HETATM   36  C   UNL     1      -5.239  13.251  67.941  1.00  0.00    -0.103 C  
BRANCH  35  37
HETATM   37  O   UNL     1      -6.738  15.023  68.286  1.00  0.00    -0.098 OA 
BRANCH  37  38
HETATM   38  C   UNL     1      -7.445  15.897  69.036  1.00  0.00    -0.194 C  
HETATM   39  O   UNL     1      -7.070  16.993  69.416  1.00  0.00    -0.225 OA 
BRANCH  38  40
HETATM   40  O   UNL     1      -8.646  15.332  69.257  1.00  0.00    -0.219 OA 
BRANCH  40  41
HETATM   41  C   UNL     1      -9.897  15.855  68.754  1.00  0.00    -0.216 C  
HETATM   42  C   UNL     1     -11.101  14.357  66.481  1.00  0.00    -0.331 C  
HETATM   43  C   UNL     1      -9.660  16.239  67.292  1.00  0.00    -0.231 C  
HETATM   44  C   UNL     1      -9.737  15.025  66.372  1.00  0.00    -0.305 C  
HETATM   45  C   UNL     1     -11.432  13.941  67.911  1.00  0.00    -0.350 C  
HETATM   46  C   UNL     1     -11.182  15.042  68.947  1.00  0.00    -0.288 C  
ENDBRANCH  40  41
ENDBRANCH  38  40
ENDBRANCH  37  38
ENDBRANCH  35  37
ENDBRANCH  34  35
ENDBRANCH  32  34
ENDBRANCH   8  32
ENDBRANCH   3   4
ENDBRANCH   2   3
TORSDOF 13
ENDMDL
MODEL      277
REMARK 921   NORMALIZED FREE ENERGY PREDICTED BY IDOCK:   -3.00 KCAL/MOL
REMARK 922        TOTAL FREE ENERGY PREDICTED BY IDOCK:   -7.74 KCAL/MOL
REMARK 923 INTER-LIGAND FREE ENERGY PREDICTED BY IDOCK:   -7.07 KCAL/MOL
REMARK 924 INTRA-LIGAND FREE ENERGY PREDICTED BY IDOCK:   -0.67 KCAL/MOL
REMARK 927      BINDING AFFINITY PREDICTED BY RF-SCORE:    0.00 PKD
ROOT
HETATM    1  C   UNL     1     -13.428   8.922  71.992  1.00  0.00    -0.482 C  
HETATM    2  C   UNL     1     -12.345   9.801  71.391  1.00  0.00    -0.388 C  
ENDROOT
BRANCH   2   3
HETATM    3  O   UNL     1     -11.498   8.968  70.593  1.00  0.00    -0.263 OA 
BRANCH   3   4
HETATM    4  C   UNL     1     -10.858   9.599  69.612  1.00  0.00    -0.244 A  
HETATM    5  N   UNL     1     -11.393   9.915  68.456  1.00  0.00    -0.070 NA 
HETATM    6  C   UNL     1     -10.394  10.535  67.764  1.00  0.00    -0.212 A  
HETATM    7  C   UNL     1      -9.221  10.674  68.533  1.00  0.00    -0.170 A  
HETATM    8  C   UNL     1      -8.123  11.402  68.012  1.00  0.00    -0.134 A  
HETATM    9  N   UNL     1      -9.528   9.953  69.681  1.00  0.00    -0.220 NA 
HETATM   10  C   UNL     1      -9.356  11.660  65.899  1.00  0.00    -0.232 A  
HETATM   11  C   UNL     1     -10.451  10.998  66.439  1.00  0.00    -0.312 A  
HETATM   12  C   UNL     1      -8.232  11.881  66.686  1.00  0.00    -0.088 A  
BRANCH   9  13
HETATM   13  C   UNL     1      -8.649   9.433  70.729  1.00  0.00    -0.145 C  
BRANCH  13  14
HETATM   14  C   UNL     1      -8.623   7.926  70.789  1.00  0.00    -0.132 A  
HETATM   15  C   UNL     1      -7.896   5.781  69.937  1.00  0.00    -0.088 A  
HETATM   16  C   UNL     1      -7.970   5.221  71.224  1.00  0.00    -0.109 A  
HETATM   17  C   UNL     1      -9.027   7.287  71.962  1.00  0.00    -0.143 A  
HETATM   18  C   UNL     1      -8.160   7.142  69.733  1.00  0.00    -0.129 A  
HETATM   19  C   UNL     1      -8.684   5.954  72.185  1.00  0.00    -0.136 A  
BRANCH  16  20
HETATM   20  C   UNL     1      -7.206   3.999  71.612  1.00  0.00    -0.053 A  
HETATM   21  C   UNL     1      -5.873   3.843  71.159  1.00  0.00    -0.013 A  
HETATM   22  C   UNL     1      -7.773   2.906  72.336  1.00  0.00    -0.054 A  
HETATM   23  C   UNL     1      -5.125   2.689  71.412  1.00  0.00     0.000 A  
HETATM   24  C   UNL     1      -6.974   1.779  72.634  1.00  0.00    -0.023 A  
HETATM   25  C   UNL     1      -5.668   1.664  72.170  1.00  0.00    -0.008 A  
BRANCH  22  26
HETATM   26  C   UNL     1      -9.171   2.803  72.773  1.00  0.00    -0.087 A  
HETATM   27  N   UNL     1     -10.127   2.083  72.211  1.00  0.00    -0.153 NA 
HETATM   28  H   UNL     1     -10.034   1.481  71.393  1.00  0.00     0.000 HD 
HETATM   29  N   UNL     1     -11.270   2.301  72.941  1.00  0.00     0.007 NA 
HETATM   30  N   UNL     1     -11.045   3.158  73.925  1.00  0.00    -0.191 NA 
HETATM   31  N   UNL     1      -9.758   3.505  73.794  1.00  0.00    -0.102 NA 
ENDBRANCH  22  26
ENDBRANCH  16  20
ENDBRANCH  13  14
ENDBRANCH   9  13
BRANCH   8  32
HETATM   32  C   UNL     1      -6.816  11.570  68.689  1.00  0.00    -0.077 C  
HETATM   33  O   UNL     1      -5.852  10.856  68.468  1.00  0.00    -0.044 OA 
BRANCH  32  34
HETATM   34  O   UNL     1      -6.770  12.731  69.391  1.00  0.00    -0.095 OA 
BRANCH  34  35
HETATM   35  C   UNL     1      -5.823  13.663  68.848  1.00  0.00    -0.083 C  
HETATM   36  C   UNL     1      -5.216  12.971  67.627  1.00  0.00    -0.071 C  
BRANCH  35  37
HETATM   37  O   UNL     1      -6.438  14.845  68.334  1.00  0.00    -0.093 OA 
BRANCH  37  38
HETATM   38  C   UNL     1      -6.945  15.697  69.252  1.00  0.00    -0.179 C  
HETATM   39  O   UNL     1      -6.402  16.696  69.690  1.00  0.00    -0.216 OA 
BRANCH  38  40
HETATM   40  O   UNL     1      -8.172  15.241  69.565  1.00  0.00    -0.234 OA 
BRANCH  40  41
HETATM   41  C   UNL     1      -9.402  15.940  69.265  1.00  0.00    -0.259 C  
HETATM   42  C   UNL     1     -11.009  14.821  67.024  1.00  0.00    -0.324 C  
HETATM   43  C   UNL     1      -9.283  16.449  67.827  1.00  0.00    -0.201 C  
HETATM   44  C   UNL     1      -9.598  15.352  66.815  1.00  0.00    -0.257 C  
HETATM   45  C   UNL     1     -11.228  14.294  68.439  1.00  0.00    -0.291 C  
HETATM   46  C   UNL     1     -10.743  15.249  69.534  1.00  0.00    -0.270 C  
ENDBRANCH  40  41
ENDBRANCH  38  40
ENDBRANCH  37  38
ENDBRANCH  35  37
ENDBRANCH  34  35
ENDBRANCH  32  34
ENDBRANCH   8  32
ENDBRANCH   3   4
ENDBRANCH   2   3
TORSDOF 13
ENDMDL
MODEL      278
REMARK 921   NORMALIZED FREE ENERGY PREDICTED BY IDOCK:   -2.98 KCAL/MOL
REMARK 922        TOTAL FREE ENERGY PREDICTED BY IDOCK:   -7.70 KCAL/MOL
REMARK 923 INTER-LIGAND FREE ENERGY PREDICTED BY IDOCK:   -8.31 KCAL/MOL
REMARK 924 INTRA-LIGAND FREE ENERGY PREDICTED BY IDOCK:    0.61 KCAL/MOL
REMARK 927      BINDING AFFINITY PREDICTED BY RF-SCORE:    0.00 PKD
ROOT
HETATM    1  C   UNL     1     -14.189   9.250  73.020  1.00  0.00     0.382 C  
HETATM    2  C   UNL     1     -13.649   9.492  71.621  1.00  0.00    -0.350 C  
ENDROOT
BRANCH   2   3
HETATM    3  O   UNL     1     -12.350  10.081  71.749  1.00  0.00    -0.390 OA 
BRANCH   3   4
HETATM    4  C   UNL     1     -12.320  11.403  71.605  1.00  0.00     0.036 A  
HETATM    5  N   UNL     1     -12.854  12.256  72.447  1.00  0.00     0.012 NA 
HETATM    6  C   UNL     1     -12.597  13.485  71.912  1.00  0.00    -0.111 A  
HETATM    7  C   UNL     1     -11.821  13.402  70.739  1.00  0.00     0.021 A  
HETATM    8  C   UNL     1     -11.361  14.590  70.119  1.00  0.00    -0.250 A  
HETATM    9  N   UNL     1     -11.762  12.033  70.513  1.00  0.00    -0.120 NA 
HETATM   10  C   UNL     1     -12.632  15.893  71.773  1.00  0.00    -0.489 A  
HETATM   11  C   UNL     1     -13.029  14.725  72.411  1.00  0.00    -0.445 A  
HETATM   12  C   UNL     1     -11.789  15.820  70.670  1.00  0.00    -0.415 A  
BRANCH   9  13
HETATM   13  C   UNL     1     -11.392  11.293  69.307  1.00  0.00    -0.287 C  
BRANCH  13  14
HETATM   14  C   UNL     1     -10.058  10.599  69.421  1.00  0.00    -0.199 A  
HETATM   15  C   UNL     1      -8.696   8.718  70.100  1.00  0.00    -0.153 A  
HETATM   16  C   UNL     1      -7.784   8.976  69.062  1.00  0.00    -0.089 A  
HETATM   17  C   UNL     1      -8.989  11.051  68.644  1.00  0.00    -0.167 A  
HETATM   18  C   UNL     1      -9.859   9.487  70.237  1.00  0.00    -0.313 A  
HETATM   19  C   UNL     1      -7.874  10.236  68.450  1.00  0.00    -0.102 A  
BRANCH  16  20
HETATM   20  C   UNL     1      -6.868   7.930  68.519  1.00  0.00    -0.067 A  
HETATM   21  C   UNL     1      -6.163   8.186  67.317  1.00  0.00    -0.055 A  
HETATM   22  C   UNL     1      -6.732   6.625  69.082  1.00  0.00    -0.052 A  
HETATM   23  C   UNL     1      -5.354   7.224  66.704  1.00  0.00    -0.023 A  
HETATM   24  C   UNL     1      -5.857   5.694  68.478  1.00  0.00    -0.016 A  
HETATM   25  C   UNL     1      -5.182   5.984  67.296  1.00  0.00    -0.005 A  
BRANCH  22  26
HETATM   26  C   UNL     1      -7.478   6.109  70.237  1.00  0.00    -0.090 A  
HETATM   27  N   UNL     1      -6.970   5.597  71.345  1.00  0.00    -0.068 NA 
HETATM   28  H   UNL     1      -5.980   5.493  71.570  1.00  0.00     0.000 HD 
HETATM   29  N   UNL     1      -8.032   5.234  72.137  1.00  0.00    -0.108 NA 
HETATM   30  N   UNL     1      -9.181   5.487  71.531  1.00  0.00    -0.146 NA 
HETATM   31  N   UNL     1      -8.840   5.986  70.336  1.00  0.00    -0.146 NA 
ENDBRANCH  22  26
ENDBRANCH  16  20
ENDBRANCH  13  14
ENDBRANCH   9  13
BRANCH   8  32
HETATM   32  C   UNL     1     -10.592  14.646  68.853  1.00  0.00    -0.253 C  
HETATM   33  O   UNL     1      -9.378  14.757  68.813  1.00  0.00    -0.194 OA 
BRANCH  32  34
HETATM   34  O   UNL     1     -11.372  14.333  67.787  1.00  0.00    -0.279 OA 
BRANCH  34  35
HETATM   35  C   UNL     1     -11.516  15.429  66.872  1.00  0.00    -0.071 C  
HETATM   36  C   UNL     1     -10.608  16.537  67.409  1.00  0.00    -0.300 C  
BRANCH  35  37
HETATM   37  O   UNL     1     -11.008  15.136  65.570  1.00  0.00    -0.335 OA 
BRANCH  37  38
HETATM   38  C   UNL     1     -11.923  14.776  64.643  1.00  0.00    -0.440 C  
HETATM   39  O   UNL     1     -12.918  15.404  64.326  1.00  0.00    -0.302 OA 
BRANCH  38  40
HETATM   40  O   UNL     1     -11.506  13.606  64.124  1.00  0.00    -0.377 OA 
BRANCH  40  41
HETATM   41  C   UNL     1     -11.928  12.307  64.599  1.00  0.00    -0.366 C  
HETATM   42  C   UNL     1      -9.810  10.218  64.693  1.00  0.00    -0.396 C  
HETATM   43  C   UNL     1     -11.689  11.318  63.456  1.00  0.00     0.171 C  
HETATM   44  C   UNL     1     -10.231  10.878  63.388  1.00  0.00    -0.356 C  
HETATM   45  C   UNL     1     -10.017  11.129  65.899  1.00  0.00    -0.285 C  
HETATM   46  C   UNL     1     -11.398  11.791  65.942  1.00  0.00    -0.324 C  
ENDBRANCH  40  41
ENDBRANCH  38  40
ENDBRANCH  37  38
ENDBRANCH  35  37
ENDBRANCH  34  35
ENDBRANCH  32  34
ENDBRANCH   8  32
ENDBRANCH   3   4
ENDBRANCH   2   3
TORSDOF 13
ENDMDL
MODEL      279
REMARK 921   NORMALIZED FREE ENERGY PREDICTED BY IDOCK:   -2.98 KCAL/MOL
REMARK 922        TOTAL FREE ENERGY PREDICTED BY IDOCK:   -7.70 KCAL/MOL
REMARK 923 INTER-LIGAND FREE ENERGY PREDICTED BY IDOCK:   -6.84 KCAL/MOL
REMARK 924 INTRA-LIGAND FREE ENERGY PREDICTED BY IDOCK:   -0.86 KCAL/MOL
REMARK 927      BINDING AFFINITY PREDICTED BY RF-SCORE:    0.00 PKD
ROOT
HETATM    1  C   UNL     1      -9.865   4.463  68.319  1.00  0.00    -0.132 C  
HETATM    2  C   UNL     1     -10.576   4.976  67.080  1.00  0.00    -0.078 C  
ENDROOT
BRANCH   2   3
HETATM    3  O   UNL     1     -11.328   6.135  67.455  1.00  0.00    -0.193 OA 
BRANCH   3   4
HETATM    4  C   UNL     1     -10.982   6.670  68.624  1.00  0.00    -0.251 A  
HETATM    5  N   UNL     1     -11.563   6.396  69.769  1.00  0.00    -0.412 NA 
HETATM    6  C   UNL     1     -10.905   7.161  70.687  1.00  0.00    -0.245 A  
HETATM    7  C   UNL     1      -9.838   7.881  70.114  1.00  0.00    -0.184 A  
HETATM    8  C   UNL     1      -8.973   8.633  70.947  1.00  0.00    -0.227 A  
HETATM    9  N   UNL     1      -9.996   7.623  68.758  1.00  0.00    -0.169 NA 
HETATM   10  C   UNL     1     -10.397   8.058  72.868  1.00  0.00    -0.397 A  
HETATM   11  C   UNL     1     -11.204   7.274  72.056  1.00  0.00    -0.285 A  
HETATM   12  C   UNL     1      -9.288   8.696  72.324  1.00  0.00    -0.322 A  
BRANCH   9  13
HETATM   13  C   UNL     1      -9.430   8.311  67.597  1.00  0.00    -0.149 C  
BRANCH  13  14
HETATM   14  C   UNL     1      -8.277   7.569  66.971  1.00  0.00    -0.124 A  
HETATM   15  C   UNL     1      -6.416   6.029  67.114  1.00  0.00    -0.047 A  
HETATM   16  C   UNL     1      -6.584   5.667  65.767  1.00  0.00    -0.041 A  
HETATM   17  C   UNL     1      -8.207   7.473  65.580  1.00  0.00    -0.135 A  
HETATM   18  C   UNL     1      -7.298   6.927  67.728  1.00  0.00    -0.097 A  
HETATM   19  C   UNL     1      -7.385   6.516  64.987  1.00  0.00    -0.078 A  
BRANCH  16  20
HETATM   20  C   UNL     1      -6.082   4.374  65.214  1.00  0.00    -0.023 A  
HETATM   21  C   UNL     1      -5.925   4.236  63.813  1.00  0.00    -0.018 A  
HETATM   22  C   UNL     1      -5.843   3.212  66.007  1.00  0.00    -0.023 A  
HETATM   23  C   UNL     1      -5.540   3.031  63.217  1.00  0.00    -0.009 A  
HETATM   24  C   UNL     1      -5.392   2.025  65.386  1.00  0.00    -0.005 A  
HETATM   25  C   UNL     1      -5.251   1.930  64.005  1.00  0.00    -0.004 A  
BRANCH  22  26
HETATM   26  C   UNL     1      -6.080   3.098  67.453  1.00  0.00    -0.028 A  
HETATM   27  N   UNL     1      -5.308   3.558  68.422  1.00  0.00    -0.012 NA 
HETATM   28  H   UNL     1      -4.434   4.072  68.312  1.00  0.00     0.000 HD 
HETATM   29  N   UNL     1      -5.910   3.212  69.607  1.00  0.00    -0.022 NA 
HETATM   30  N   UNL     1      -7.022   2.528  69.390  1.00  0.00    -0.036 NA 
HETATM   31  N   UNL     1      -7.105   2.417  68.057  1.00  0.00    -0.047 NA 
ENDBRANCH  22  26
ENDBRANCH  16  20
ENDBRANCH  13  14
ENDBRANCH   9  13
BRANCH   8  32
HETATM   32  C   UNL     1      -7.855   9.481  70.467  1.00  0.00    -0.157 C  
HETATM   33  O   UNL     1      -6.684   9.240  70.707  1.00  0.00    -0.074 OA 
BRANCH  32  34
HETATM   34  O   UNL     1      -8.285  10.397  69.563  1.00  0.00    -0.164 OA 
BRANCH  34  35
HETATM   35  C   UNL     1      -7.236  11.280  69.136  1.00  0.00    -0.115 C  
HETATM   36  C   UNL     1      -6.547  10.568  67.971  1.00  0.00    -0.060 C  
BRANCH  35  37
HETATM   37  O   UNL     1      -7.728  12.502  68.584  1.00  0.00    -0.120 OA 
BRANCH  37  38
HETATM   38  C   UNL     1      -8.773  12.390  67.734  1.00  0.00    -0.176 C  
HETATM   39  O   UNL     1      -8.891  11.576  66.836  1.00  0.00    -0.169 OA 
BRANCH  38  40
HETATM   40  O   UNL     1      -9.663  13.334  68.094  1.00  0.00    -0.217 OA 
BRANCH  40  41
HETATM   41  C   UNL     1     -10.238  14.299  67.184  1.00  0.00    -0.254 C  
HETATM   42  C   UNL     1     -10.964  16.926  68.380  1.00  0.00    -0.296 C  
HETATM   43  C   UNL     1     -11.644  14.613  67.702  1.00  0.00    -0.383 C  
HETATM   44  C   UNL     1     -11.610  15.627  68.841  1.00  0.00    -0.392 C  
HETATM   45  C   UNL     1      -9.554  16.714  67.837  1.00  0.00    -0.234 C  
HETATM   46  C   UNL     1      -9.447  15.563  66.832  1.00  0.00    -0.244 C  
ENDBRANCH  40  41
ENDBRANCH  38  40
ENDBRANCH  37  38
ENDBRANCH  35  37
ENDBRANCH  34  35
ENDBRANCH  32  34
ENDBRANCH   8  32
ENDBRANCH   3   4
ENDBRANCH   2   3
TORSDOF 13
ENDMDL
MODEL      280
REMARK 921   NORMALIZED FREE ENERGY PREDICTED BY IDOCK:   -2.96 KCAL/MOL
REMARK 922        TOTAL FREE ENERGY PREDICTED BY IDOCK:   -7.66 KCAL/MOL
REMARK 923 INTER-LIGAND FREE ENERGY PREDICTED BY IDOCK:   -6.65 KCAL/MOL
REMARK 924 INTRA-LIGAND FREE ENERGY PREDICTED BY IDOCK:   -1.01 KCAL/MOL
REMARK 927      BINDING AFFINITY PREDICTED BY RF-SCORE:    0.00 PKD
ROOT
HETATM    1  C   UNL     1     -13.633  14.339  72.870  1.00  0.00    -0.400 C  
HETATM    2  C   UNL     1     -12.384  14.125  72.033  1.00  0.00    -0.143 C  
ENDROOT
BRANCH   2   3
HETATM    3  O   UNL     1     -12.478  14.972  70.883  1.00  0.00    -0.297 OA 
BRANCH   3   4
HETATM    4  C   UNL     1     -11.344  15.118  70.203  1.00  0.00    -0.271 A  
HETATM    5  N   UNL     1     -10.514  16.126  70.346  1.00  0.00    -0.056 NA 
HETATM    6  C   UNL     1      -9.505  15.877  69.462  1.00  0.00    -0.219 A  
HETATM    7  C   UNL     1      -9.671  14.646  68.797  1.00  0.00    -0.217 A  
HETATM    8  C   UNL     1      -8.653  14.173  67.933  1.00  0.00    -0.178 A  
HETATM    9  N   UNL     1     -10.931  14.242  69.222  1.00  0.00    -0.254 NA 
HETATM   10  C   UNL     1      -7.432  16.278  68.295  1.00  0.00    -0.157 A  
HETATM   11  C   UNL     1      -8.405  16.707  69.188  1.00  0.00    -0.115 A  
HETATM   12  C   UNL     1      -7.545  15.023  67.708  1.00  0.00    -0.175 A  
BRANCH   9  13
HETATM   13  C   UNL     1     -11.830  13.228  68.671  1.00  0.00    -0.345 C  
BRANCH  13  14
HETATM   14  C   UNL     1     -11.649  11.869  69.297  1.00  0.00    -0.376 A  
HETATM   15  C   UNL     1     -10.449   9.779  69.522  1.00  0.00    -0.250 A  
HETATM   16  C   UNL     1     -10.850   9.669  70.865  1.00  0.00    -0.409 A  
HETATM   17  C   UNL     1     -12.318  11.576  70.487  1.00  0.00    -0.432 A  
HETATM   18  C   UNL     1     -10.795  10.905  68.764  1.00  0.00    -0.251 A  
HETATM   19  C   UNL     1     -11.906  10.499  71.272  1.00  0.00    -0.323 A  
BRANCH  16  20
HETATM   20  C   UNL     1     -10.106   8.841  71.860  1.00  0.00    -0.409 A  
HETATM   21  C   UNL     1      -8.705   9.004  71.984  1.00  0.00     0.143 A  
HETATM   22  C   UNL     1     -10.707   7.803  72.635  1.00  0.00    -0.402 A  
HETATM   23  C   UNL     1      -7.930   8.207  72.833  1.00  0.00    -0.211 A  
HETATM   24  C   UNL     1      -9.911   7.056  73.533  1.00  0.00    -0.321 A  
HETATM   25  C   UNL     1      -8.536   7.246  73.625  1.00  0.00    -0.193 A  
BRANCH  22  26
HETATM   26  C   UNL     1     -12.110   7.376  72.553  1.00  0.00    -0.073 A  
HETATM   27  N   UNL     1     -13.171   8.059  72.946  1.00  0.00    -0.218 NA 
HETATM   28  H   UNL     1     -13.176   8.992  73.358  1.00  0.00     0.000 HD 
HETATM   29  N   UNL     1     -14.267   7.270  72.694  1.00  0.00     0.418 NA 
HETATM   30  N   UNL     1     -13.902   6.107  72.177  1.00  0.00     0.405 NA 
HETATM   31  N   UNL     1     -12.563   6.153  72.131  1.00  0.00    -0.073 NA 
ENDBRANCH  22  26
ENDBRANCH  16  20
ENDBRANCH  13  14
ENDBRANCH   9  13
BRANCH   8  32
HETATM   32  C   UNL     1      -8.728  12.930  67.129  1.00  0.00    -0.205 C  
HETATM   33  O   UNL     1      -7.945  12.004  67.256  1.00  0.00    -0.157 OA 
BRANCH  32  34
HETATM   34  O   UNL     1      -9.886  12.868  66.423  1.00  0.00    -0.256 OA 
BRANCH  34  35
HETATM   35  C   UNL     1      -9.709  13.236  65.047  1.00  0.00     0.094 C  
HETATM   36  C   UNL     1     -10.886  12.609  64.298  1.00  0.00    -0.411 C  
BRANCH  35  37
HETATM   37  O   UNL     1      -9.838  14.641  64.825  1.00  0.00    -0.132 OA 
BRANCH  37  38
HETATM   38  C   UNL     1     -10.807  15.266  65.531  1.00  0.00    -0.372 C  
HETATM   39  O   UNL     1     -11.964  14.903  65.650  1.00  0.00    -0.221 OA 
BRANCH  38  40
HETATM   40  O   UNL     1     -10.236  16.347  66.094  1.00  0.00    -0.315 OA 
BRANCH  40  41
HETATM   41  C   UNL     1     -10.554  17.713  65.742  1.00  0.00    -0.177 C  
HETATM   42  C   UNL     1      -9.660  19.787  67.681  1.00  0.00    -0.470 C  
HETATM   43  C   UNL     1     -11.460  18.256  66.849  1.00  0.00     1.196 C  
HETATM   44  C   UNL     1     -10.656  18.702  68.066  1.00  0.00    -0.350 C  
HETATM   45  C   UNL     1      -8.712  19.339  66.573  1.00  0.00    -0.362 C  
HETATM   46  C   UNL     1      -9.419  18.679  65.385  1.00  0.00     1.291 C  
ENDBRANCH  40  41
ENDBRANCH  38  40
ENDBRANCH  37  38
ENDBRANCH  35  37
ENDBRANCH  34  35
ENDBRANCH  32  34
ENDBRANCH   8  32
ENDBRANCH   3   4
ENDBRANCH   2   3
TORSDOF 13
ENDMDL
MODEL      281
REMARK 921   NORMALIZED FREE ENERGY PREDICTED BY IDOCK:   -2.93 KCAL/MOL
REMARK 922        TOTAL FREE ENERGY PREDICTED BY IDOCK:   -7.61 KCAL/MOL
REMARK 923 INTER-LIGAND FREE ENERGY PREDICTED BY IDOCK:  -10.39 KCAL/MOL
REMARK 924 INTRA-LIGAND FREE ENERGY PREDICTED BY IDOCK:    2.78 KCAL/MOL
REMARK 927      BINDING AFFINITY PREDICTED BY RF-SCORE:    0.00 PKD
ROOT
HETATM    1  C   UNL     1     -11.179   9.750  71.376  1.00  0.00    -0.368 C  
HETATM    2  C   UNL     1     -12.622   9.397  71.062  1.00  0.00    -0.220 C  
ENDROOT
BRANCH   2   3
HETATM    3  O   UNL     1     -13.178  10.472  70.297  1.00  0.00    -0.175 OA 
BRANCH   3   4
HETATM    4  C   UNL     1     -12.886  11.689  70.750  1.00  0.00    -0.109 A  
HETATM    5  N   UNL     1     -13.101  12.096  71.980  1.00  0.00    -0.423 NA 
HETATM    6  C   UNL     1     -12.665  13.389  72.001  1.00  0.00    -0.134 A  
HETATM    7  C   UNL     1     -12.098  13.780  70.772  1.00  0.00    -0.319 A  
HETATM    8  C   UNL     1     -11.487  15.053  70.655  1.00  0.00    -0.338 A  
HETATM    9  N   UNL     1     -12.366  12.688  69.956  1.00  0.00    -0.158 NA 
HETATM   10  C   UNL     1     -12.202  15.557  72.954  1.00  0.00    -0.547 A  
HETATM   11  C   UNL     1     -12.746  14.286  73.080  1.00  0.00    -0.351 A  
HETATM   12  C   UNL     1     -11.560  15.914  71.775  1.00  0.00    -0.541 A  
BRANCH   9  13
HETATM   13  C   UNL     1     -12.337  12.572  68.498  1.00  0.00     0.358 C  
BRANCH  13  14
HETATM   14  C   UNL     1     -11.307  11.589  68.000  1.00  0.00    -0.368 A  
HETATM   15  C   UNL     1     -10.211  10.391  66.207  1.00  0.00    -0.286 A  
HETATM   16  C   UNL     1      -9.017  10.332  66.948  1.00  0.00    -0.149 A  
HETATM   17  C   UNL     1     -10.259  11.219  68.846  1.00  0.00    -0.195 A  
HETATM   18  C   UNL     1     -11.328  11.072  66.706  1.00  0.00    -0.052 A  
HETATM   19  C   UNL     1      -9.118  10.616  68.319  1.00  0.00    -0.153 A  
BRANCH  16  20
HETATM   20  C   UNL     1      -7.683  10.136  66.307  1.00  0.00    -0.110 A  
HETATM   21  C   UNL     1      -7.457   8.980  65.521  1.00  0.00    -0.086 A  
HETATM   22  C   UNL     1      -6.567  11.000  66.521  1.00  0.00    -0.132 A  
HETATM   23  C   UNL     1      -6.210   8.688  64.959  1.00  0.00    -0.060 A  
HETATM   24  C   UNL     1      -5.335  10.715  65.889  1.00  0.00    -0.111 A  
HETATM   25  C   UNL     1      -5.153   9.568  65.124  1.00  0.00    -0.039 A  
BRANCH  22  26
HETATM   26  C   UNL     1      -6.547  12.169  67.411  1.00  0.00    -0.147 A  
HETATM   27  N   UNL     1      -7.145  12.283  68.584  1.00  0.00    -0.099 NA 
HETATM   28  H   UNL     1      -7.703  11.570  69.054  1.00  0.00     0.000 HD 
HETATM   29  N   UNL     1      -6.869  13.545  69.049  1.00  0.00    -0.111 NA 
HETATM   30  N   UNL     1      -6.136  14.220  68.178  1.00  0.00    -0.124 NA 
HETATM   31  N   UNL     1      -5.974  13.384  67.142  1.00  0.00    -0.181 NA 
ENDBRANCH  22  26
ENDBRANCH  16  20
ENDBRANCH  13  14
ENDBRANCH   9  13
BRANCH   8  32
HETATM   32  C   UNL     1     -10.910  15.609  69.408  1.00  0.00    -0.264 C  
HETATM   33  O   UNL     1     -11.214  16.702  68.961  1.00  0.00    -0.271 OA 
BRANCH  32  34
HETATM   34  O   UNL     1      -9.863  14.863  68.973  1.00  0.00    -0.219 OA 
BRANCH  34  35
HETATM   35  C   UNL     1      -9.626  15.019  67.566  1.00  0.00    -0.203 C  
HETATM   36  C   UNL     1     -10.996  15.294  66.945  1.00  0.00    -0.315 C  
BRANCH  35  37
HETATM   37  O   UNL     1      -8.842  16.173  67.259  1.00  0.00    -0.180 OA 
BRANCH  37  38
HETATM   38  C   UNL     1      -9.117  16.780  66.083  1.00  0.00    -0.253 C  
HETATM   39  O   UNL     1     -10.192  16.793  65.509  1.00  0.00    -0.567 OA 
BRANCH  38  40
HETATM   40  O   UNL     1      -7.981  17.385  65.688  1.00  0.00    -0.477 OA 
BRANCH  40  41
HETATM   41  C   UNL     1      -7.446  18.585  66.291  1.00  0.00    -0.257 C  
HETATM   42  C   UNL     1      -9.040  19.725  68.531  1.00  0.00    -0.307 C  
HETATM   43  C   UNL     1      -8.489  19.686  66.088  1.00  0.00    -0.354 C  
HETATM   44  C   UNL     1      -9.605  19.601  67.123  1.00  0.00    -0.459 C  
HETATM   45  C   UNL     1      -7.981  18.668  68.827  1.00  0.00    -0.317 C  
HETATM   46  C   UNL     1      -6.921  18.532  67.730  1.00  0.00    -0.219 C  
ENDBRANCH  40  41
ENDBRANCH  38  40
ENDBRANCH  37  38
ENDBRANCH  35  37
ENDBRANCH  34  35
ENDBRANCH  32  34
ENDBRANCH   8  32
ENDBRANCH   3   4
ENDBRANCH   2   3
TORSDOF 13
ENDMDL
MODEL      282
REMARK 921   NORMALIZED FREE ENERGY PREDICTED BY IDOCK:   -2.90 KCAL/MOL
REMARK 922        TOTAL FREE ENERGY PREDICTED BY IDOCK:   -7.56 KCAL/MOL
REMARK 923 INTER-LIGAND FREE ENERGY PREDICTED BY IDOCK:   -9.50 KCAL/MOL
REMARK 924 INTRA-LIGAND FREE ENERGY PREDICTED BY IDOCK:    1.94 KCAL/MOL
REMARK 927      BINDING AFFINITY PREDICTED BY RF-SCORE:    0.00 PKD
ROOT
HETATM    1  C   UNL     1      -5.875   8.508  72.117  1.00  0.00    -0.059 C  
HETATM    2  C   UNL     1      -5.464   8.079  70.720  1.00  0.00    -0.029 C  
ENDROOT
BRANCH   2   3
HETATM    3  O   UNL     1      -6.099   8.960  69.788  1.00  0.00    -0.034 OA 
BRANCH   3   4
HETATM    4  C   UNL     1      -5.923  10.255  70.035  1.00  0.00    -0.063 A  
HETATM    5  N   UNL     1      -5.528  10.747  71.186  1.00  0.00    -0.239 NA 
HETATM    6  C   UNL     1      -5.491  12.098  70.997  1.00  0.00    -0.089 A  
HETATM    7  C   UNL     1      -5.805  12.458  69.671  1.00  0.00    -0.111 A  
HETATM    8  C   UNL     1      -5.697  13.812  69.269  1.00  0.00    -0.083 A  
HETATM    9  N   UNL     1      -6.189  11.245  69.113  1.00  0.00    -0.052 NA 
HETATM   10  C   UNL     1      -5.145  14.411  71.590  1.00  0.00    -0.160 A  
HETATM   11  C   UNL     1      -5.193  13.074  71.963  1.00  0.00    -0.009 A  
HETATM   12  C   UNL     1      -5.362  14.761  70.263  1.00  0.00    -0.115 A  
BRANCH   9  13
HETATM   13  C   UNL     1      -6.931  10.968  67.882  1.00  0.00    -0.073 C  
BRANCH  13  14
HETATM   14  C   UNL     1      -8.371  10.596  68.128  1.00  0.00    -0.121 A  
HETATM   15  C   UNL     1     -10.123   8.946  68.382  1.00  0.00    -0.215 A  
HETATM   16  C   UNL     1     -10.837   9.805  69.236  1.00  0.00    -0.240 A  
HETATM   17  C   UNL     1      -9.235  11.550  68.669  1.00  0.00    -0.136 A  
HETATM   18  C   UNL     1      -8.867   9.317  67.883  1.00  0.00    -0.124 A  
HETATM   19  C   UNL     1     -10.445  11.153  69.237  1.00  0.00    -0.183 A  
BRANCH  16  20
HETATM   20  C   UNL     1     -11.850   9.306  70.212  1.00  0.00    -0.015 A  
HETATM   21  C   UNL     1     -12.800  10.211  70.745  1.00  0.00    -0.388 A  
HETATM   22  C   UNL     1     -11.861   7.977  70.734  1.00  0.00    -0.171 A  
HETATM   23  C   UNL     1     -13.725   9.836  71.725  1.00  0.00    -0.309 A  
HETATM   24  C   UNL     1     -12.848   7.607  71.676  1.00  0.00    -0.378 A  
HETATM   25  C   UNL     1     -13.764   8.527  72.176  1.00  0.00    -0.418 A  
BRANCH  22  26
HETATM   26  C   UNL     1     -10.880   6.927  70.425  1.00  0.00    -0.261 A  
HETATM   27  N   UNL     1      -9.678   6.783  70.956  1.00  0.00    -0.175 NA 
HETATM   28  H   UNL     1      -9.254   7.375  71.671  1.00  0.00     0.000 HD 
HETATM   29  N   UNL     1      -9.111   5.683  70.361  1.00  0.00    -0.142 NA 
HETATM   30  N   UNL     1      -9.927   5.161  69.459  1.00  0.00    -0.211 NA 
HETATM   31  N   UNL     1     -11.004   5.958  69.464  1.00  0.00    -0.372 NA 
ENDBRANCH  22  26
ENDBRANCH  16  20
ENDBRANCH  13  14
ENDBRANCH   9  13
BRANCH   8  32
HETATM   32  C   UNL     1      -6.054  14.332  67.928  1.00  0.00    -0.148 C  
HETATM   33  O   UNL     1      -7.016  13.937  67.292  1.00  0.00    -0.166 OA 
BRANCH  32  34
HETATM   34  O   UNL     1      -5.324  15.434  67.616  1.00  0.00    -0.250 OA 
BRANCH  34  35
HETATM   35  C   UNL     1      -6.142  16.599  67.430  1.00  0.00    -0.161 C  
HETATM   36  C   UNL     1      -7.399  16.109  66.711  1.00  0.00    -0.220 C  
BRANCH  35  37
HETATM   37  O   UNL     1      -6.612  17.151  68.661  1.00  0.00    -0.164 OA 
BRANCH  37  38
HETATM   38  C   UNL     1      -7.936  17.027  68.899  1.00  0.00    -0.217 C  
HETATM   39  O   UNL     1      -8.509  16.028  69.297  1.00  0.00    -0.251 OA 
BRANCH  38  40
HETATM   40  O   UNL     1      -8.489  18.226  68.637  1.00  0.00    -0.317 OA 
BRANCH  40  41
HETATM   41  C   UNL     1      -9.901  18.441  68.413  1.00  0.00    -0.371 C  
HETATM   42  C   UNL     1     -10.599  19.996  65.974  1.00  0.00    -0.472 C  
HETATM   43  C   UNL     1     -10.127  19.954  68.434  1.00  0.00    -0.557 C  
HETATM   44  C   UNL     1      -9.765  20.594  67.098  1.00  0.00    -0.530 C  
HETATM   45  C   UNL     1     -10.444  18.482  65.878  1.00  0.00    -0.379 C  
HETATM   46  C   UNL     1     -10.584  17.761  67.222  1.00  0.00    -0.322 C  
ENDBRANCH  40  41
ENDBRANCH  38  40
ENDBRANCH  37  38
ENDBRANCH  35  37
ENDBRANCH  34  35
ENDBRANCH  32  34
ENDBRANCH   8  32
ENDBRANCH   3   4
ENDBRANCH   2   3
TORSDOF 13
ENDMDL
MODEL      283
REMARK 921   NORMALIZED FREE ENERGY PREDICTED BY IDOCK:   -2.87 KCAL/MOL
REMARK 922        TOTAL FREE ENERGY PREDICTED BY IDOCK:   -7.50 KCAL/MOL
REMARK 923 INTER-LIGAND FREE ENERGY PREDICTED BY IDOCK:   -5.72 KCAL/MOL
REMARK 924 INTRA-LIGAND FREE ENERGY PREDICTED BY IDOCK:   -1.78 KCAL/MOL
REMARK 927      BINDING AFFINITY PREDICTED BY RF-SCORE:    0.00 PKD
ROOT
HETATM    1  C   UNL     1     -12.057  14.568  69.294  1.00  0.00    -0.325 C  
HETATM    2  C   UNL     1     -12.343  13.099  69.040  1.00  0.00     0.098 C  
ENDROOT
BRANCH   2   3
HETATM    3  O   UNL     1     -11.609  12.706  67.875  1.00  0.00    -0.306 OA 
BRANCH   3   4
HETATM    4  C   UNL     1     -10.296  12.589  68.055  1.00  0.00    -0.222 A  
HETATM    5  N   UNL     1      -9.406  13.457  67.633  1.00  0.00    -0.208 NA 
HETATM    6  C   UNL     1      -8.204  12.945  68.023  1.00  0.00    -0.168 A  
HETATM    7  C   UNL     1      -8.348  11.759  68.771  1.00  0.00    -0.009 A  
HETATM    8  C   UNL     1      -7.207  11.158  69.358  1.00  0.00    -0.091 A  
HETATM    9  N   UNL     1      -9.710  11.504  68.670  1.00  0.00    -0.190 NA 
HETATM   10  C   UNL     1      -5.805  12.857  68.265  1.00  0.00    -0.079 A  
HETATM   11  C   UNL     1      -6.933  13.476  67.743  1.00  0.00    -0.164 A  
HETATM   12  C   UNL     1      -5.949  11.741  69.080  1.00  0.00    -0.070 A  
BRANCH   9  13
HETATM   13  C   UNL     1     -10.460  10.277  68.939  1.00  0.00    -0.211 C  
BRANCH  13  14
HETATM   14  C   UNL     1     -10.038   9.120  68.069  1.00  0.00    -0.238 A  
HETATM   15  C   UNL     1      -8.433   8.023  66.629  1.00  0.00    -0.133 A  
HETATM   16  C   UNL     1      -8.914   6.761  67.017  1.00  0.00    -0.118 A  
HETATM   17  C   UNL     1     -10.727   7.910  68.169  1.00  0.00    -0.101 A  
HETATM   18  C   UNL     1      -8.950   9.192  67.201  1.00  0.00    -0.137 A  
HETATM   19  C   UNL     1     -10.159   6.739  67.667  1.00  0.00    -0.201 A  
BRANCH  16  20
HETATM   20  C   UNL     1      -8.096   5.518  66.901  1.00  0.00    -0.101 A  
HETATM   21  C   UNL     1      -7.476   4.987  68.059  1.00  0.00    -0.075 A  
HETATM   22  C   UNL     1      -7.803   4.874  65.660  1.00  0.00    -0.095 A  
HETATM   23  C   UNL     1      -6.628   3.876  68.012  1.00  0.00    -0.042 A  
HETATM   24  C   UNL     1      -6.995   3.715  65.651  1.00  0.00    -0.058 A  
HETATM   25  C   UNL     1      -6.404   3.225  66.811  1.00  0.00    -0.036 A  
BRANCH  22  26
HETATM   26  C   UNL     1      -8.225   5.342  64.333  1.00  0.00    -0.133 A  
HETATM   27  N   UNL     1      -9.072   4.744  63.513  1.00  0.00    -0.308 NA 
HETATM   28  H   UNL     1      -9.569   3.870  63.684  1.00  0.00     0.000 HD 
HETATM   29  N   UNL     1      -9.154   5.526  62.387  1.00  0.00     0.083 NA 
HETATM   30  N   UNL     1      -8.358   6.579  62.485  1.00  0.00    -0.035 NA 
HETATM   31  N   UNL     1      -7.747   6.443  63.670  1.00  0.00    -0.109 NA 
ENDBRANCH  22  26
ENDBRANCH  16  20
ENDBRANCH  13  14
ENDBRANCH   9  13
BRANCH   8  32
HETATM   32  C   UNL     1      -7.211   9.883  70.114  1.00  0.00    -0.155 C  
HETATM   33  O   UNL     1      -8.156   9.509  70.789  1.00  0.00    -0.248 OA 
BRANCH  32  34
HETATM   34  O   UNL     1      -6.150   9.107  69.777  1.00  0.00    -0.037 OA 
BRANCH  34  35
HETATM   35  C   UNL     1      -5.367   8.722  70.917  1.00  0.00    -0.028 C  
HETATM   36  C   UNL     1      -5.244   9.981  71.776  1.00  0.00    -0.057 C  
BRANCH  35  37
HETATM   37  O   UNL     1      -6.030   7.770  71.751  1.00  0.00    -0.035 OA 
BRANCH  37  38
HETATM   38  C   UNL     1      -6.299   6.572  71.186  1.00  0.00    -0.048 C  
HETATM   39  O   UNL     1      -5.483   5.757  70.794  1.00  0.00    -0.012 OA 
BRANCH  38  40
HETATM   40  O   UNL     1      -7.639   6.448  71.167  1.00  0.00    -0.087 OA 
BRANCH  40  41
HETATM   41  C   UNL     1      -8.370   5.404  71.849  1.00  0.00    -0.123 C  
HETATM   42  C   UNL     1     -11.182   6.058  72.572  1.00  0.00    -0.333 C  
HETATM   43  C   UNL     1      -8.765   5.962  73.219  1.00  0.00    -0.117 C  
HETATM   44  C   UNL     1     -10.005   6.845  73.130  1.00  0.00    -0.227 C  
HETATM   45  C   UNL     1     -10.881   5.454  71.203  1.00  0.00    -0.188 C  
HETATM   46  C   UNL     1      -9.540   4.717  71.136  1.00  0.00    -0.235 C  
ENDBRANCH  40  41
ENDBRANCH  38  40
ENDBRANCH  37  38
ENDBRANCH  35  37
ENDBRANCH  34  35
ENDBRANCH  32  34
ENDBRANCH   8  32
ENDBRANCH   3   4
ENDBRANCH   2   3
TORSDOF 13
ENDMDL
MODEL      284
REMARK 921   NORMALIZED FREE ENERGY PREDICTED BY IDOCK:   -2.77 KCAL/MOL
REMARK 922        TOTAL FREE ENERGY PREDICTED BY IDOCK:   -7.33 KCAL/MOL
REMARK 923 INTER-LIGAND FREE ENERGY PREDICTED BY IDOCK:  -10.39 KCAL/MOL
REMARK 924 INTRA-LIGAND FREE ENERGY PREDICTED BY IDOCK:    3.07 KCAL/MOL
REMARK 927      BINDING AFFINITY PREDICTED BY RF-SCORE:    0.00 PKD
ROOT
HETATM    1  C   UNL     1     -14.173   8.539  72.229  1.00  0.00    -0.471 C  
HETATM    2  C   UNL     1     -13.830   9.054  70.843  1.00  0.00     0.187 C  
ENDROOT
BRANCH   2   3
HETATM    3  O   UNL     1     -12.555   9.701  70.920  1.00  0.00    -0.288 OA 
BRANCH   3   4
HETATM    4  C   UNL     1     -12.604  11.029  70.960  1.00  0.00    -0.411 A  
HETATM    5  N   UNL     1     -13.156  11.726  71.926  1.00  0.00    -0.445 NA 
HETATM    6  C   UNL     1     -12.987  13.029  71.560  1.00  0.00    -0.305 A  
HETATM    7  C   UNL     1     -12.248  13.155  70.367  1.00  0.00    -0.316 A  
HETATM    8  C   UNL     1     -11.875  14.442  69.905  1.00  0.00    -0.382 A  
HETATM    9  N   UNL     1     -12.119  11.835  69.952  1.00  0.00    -0.303 NA 
HETATM   10  C   UNL     1     -13.161  15.428  71.756  1.00  0.00    -0.544 A  
HETATM   11  C   UNL     1     -13.470  14.162  72.236  1.00  0.00    -0.578 A  
HETATM   12  C   UNL     1     -12.354  15.557  70.633  1.00  0.00    -0.462 A  
BRANCH   9  13
HETATM   13  C   UNL     1     -11.749  11.291  68.645  1.00  0.00    -0.324 C  
BRANCH  13  14
HETATM   14  C   UNL     1     -10.673  10.237  68.724  1.00  0.00    -0.247 A  
HETATM   15  C   UNL     1      -8.666   9.325  69.720  1.00  0.00    -0.168 A  
HETATM   16  C   UNL     1      -9.065   8.020  69.383  1.00  0.00    -0.148 A  
HETATM   17  C   UNL     1     -10.880   9.009  68.094  1.00  0.00    -0.085 A  
HETATM   18  C   UNL     1      -9.496  10.419  69.448  1.00  0.00    -0.204 A  
HETATM   19  C   UNL     1     -10.097   7.907  68.437  1.00  0.00    -0.218 A  
BRANCH  16  20
HETATM   20  C   UNL     1      -8.548   6.813  70.093  1.00  0.00    -0.140 A  
HETATM   21  C   UNL     1      -8.070   6.943  71.419  1.00  0.00    -0.109 A  
HETATM   22  C   UNL     1      -8.403   5.533  69.478  1.00  0.00    -0.102 A  
HETATM   23  C   UNL     1      -7.495   5.876  72.117  1.00  0.00    -0.096 A  
HETATM   24  C   UNL     1      -7.879   4.455  70.227  1.00  0.00    -0.059 A  
HETATM   25  C   UNL     1      -7.419   4.625  71.529  1.00  0.00    -0.073 A  
BRANCH  22  26
HETATM   26  C   UNL     1      -8.702   5.219  68.074  1.00  0.00    -0.102 A  
HETATM   27  N   UNL     1      -7.945   4.530  67.236  1.00  0.00    -0.100 NA 
HETATM   28  H   UNL     1      -7.042   4.104  67.443  1.00  0.00     0.000 HD 
HETATM   29  N   UNL     1      -8.610   4.500  66.035  1.00  0.00    -0.114 NA 
HETATM   30  N   UNL     1      -9.747   5.174  66.107  1.00  0.00    -0.167 NA 
HETATM   31  N   UNL     1      -9.783   5.659  67.355  1.00  0.00    -0.121 NA 
ENDBRANCH  22  26
ENDBRANCH  16  20
ENDBRANCH  13  14
ENDBRANCH   9  13
BRANCH   8  32
HETATM   32  C   UNL     1     -11.154  14.717  68.640  1.00  0.00    -0.262 C  
HETATM   33  O   UNL     1     -10.385  13.923  68.123  1.00  0.00    -0.234 OA 
BRANCH  32  34
HETATM   34  O   UNL     1     -11.627  15.836  68.036  1.00  0.00    -0.321 OA 
BRANCH  34  35
HETATM   35  C   UNL     1     -10.576  16.716  67.609  1.00  0.00    -0.321 C  
HETATM   36  C   UNL     1     -10.352  17.684  68.771  1.00  0.00    -0.348 C  
BRANCH  35  37
HETATM   37  O   UNL     1      -9.325  16.047  67.440  1.00  0.00    -0.214 OA 
BRANCH  37  38
HETATM   38  C   UNL     1      -8.254  16.638  68.013  1.00  0.00    -0.185 C  
HETATM   39  O   UNL     1      -7.807  16.406  69.123  1.00  0.00    -0.238 OA 
BRANCH  38  40
HETATM   40  O   UNL     1      -7.766  17.509  67.111  1.00  0.00    -0.194 OA 
BRANCH  40  41
HETATM   41  C   UNL     1      -6.565  18.292  67.300  1.00  0.00    -0.186 C  
HETATM   42  C   UNL     1      -5.754  18.745  70.128  1.00  0.00    -0.251 C  
HETATM   43  C   UNL     1      -6.970  19.540  68.088  1.00  0.00    -0.314 C  
HETATM   44  C   UNL     1      -7.081  19.252  69.581  1.00  0.00    -0.120 C  
HETATM   45  C   UNL     1      -5.262  17.499  69.398  1.00  0.00    -0.176 C  
HETATM   46  C   UNL     1      -5.313  17.618  67.872  1.00  0.00    -0.135 C  
ENDBRANCH  40  41
ENDBRANCH  38  40
ENDBRANCH  37  38
ENDBRANCH  35  37
ENDBRANCH  34  35
ENDBRANCH  32  34
ENDBRANCH   8  32
ENDBRANCH   3   4
ENDBRANCH   2   3
TORSDOF 13
ENDMDL
MODEL      285
REMARK 921   NORMALIZED FREE ENERGY PREDICTED BY IDOCK:   -2.63 KCAL/MOL
REMARK 922        TOTAL FREE ENERGY PREDICTED BY IDOCK:   -7.07 KCAL/MOL
REMARK 923 INTER-LIGAND FREE ENERGY PREDICTED BY IDOCK:   -5.73 KCAL/MOL
REMARK 924 INTRA-LIGAND FREE ENERGY PREDICTED BY IDOCK:   -1.34 KCAL/MOL
REMARK 927      BINDING AFFINITY PREDICTED BY RF-SCORE:    0.00 PKD
ROOT
HETATM    1  C   UNL     1      -8.785   3.318  63.931  1.00  0.00    -0.089 C  
HETATM    2  C   UNL     1      -7.836   4.298  64.598  1.00  0.00    -0.085 C  
ENDROOT
BRANCH   2   3
HETATM    3  O   UNL     1      -6.949   3.548  65.434  1.00  0.00    -0.055 OA 
BRANCH   3   4
HETATM    4  C   UNL     1      -7.464   3.178  66.604  1.00  0.00    -0.075 A  
HETATM    5  N   UNL     1      -8.428   2.299  66.749  1.00  0.00    -0.093 NA 
HETATM    6  C   UNL     1      -8.642   2.232  68.095  1.00  0.00    -0.082 A  
HETATM    7  C   UNL     1      -7.740   3.039  68.818  1.00  0.00    -0.047 A  
HETATM    8  C   UNL     1      -7.742   2.996  70.234  1.00  0.00    -0.043 A  
HETATM    9  N   UNL     1      -7.071   3.721  67.809  1.00  0.00    -0.055 NA 
HETATM   10  C   UNL     1      -9.676   1.479  70.141  1.00  0.00    -0.030 A  
HETATM   11  C   UNL     1      -9.629   1.479  68.753  1.00  0.00    -0.175 A  
HETATM   12  C   UNL     1      -8.730   2.200  70.859  1.00  0.00    -0.110 A  
BRANCH   9  13
HETATM   13  C   UNL     1      -6.247   4.928  67.875  1.00  0.00    -0.035 C  
BRANCH  13  14
HETATM   14  C   UNL     1      -6.990   6.178  67.475  1.00  0.00    -0.069 A  
HETATM   15  C   UNL     1      -9.039   7.348  66.940  1.00  0.00    -0.164 A  
HETATM   16  C   UNL     1      -8.498   8.556  67.412  1.00  0.00    -0.127 A  
HETATM   17  C   UNL     1      -6.355   7.414  67.602  1.00  0.00    -0.052 A  
HETATM   18  C   UNL     1      -8.311   6.154  67.031  1.00  0.00    -0.105 A  
HETATM   19  C   UNL     1      -7.106   8.589  67.592  1.00  0.00    -0.080 A  
BRANCH  16  20
HETATM   20  C   UNL     1      -9.350   9.699  67.855  1.00  0.00    -0.141 A  
HETATM   21  C   UNL     1     -10.694   9.770  67.414  1.00  0.00    -0.314 A  
HETATM   22  C   UNL     1      -8.863  10.800  68.621  1.00  0.00    -0.152 A  
HETATM   23  C   UNL     1     -11.526  10.852  67.719  1.00  0.00    -0.323 A  
HETATM   24  C   UNL     1      -9.744  11.850  68.970  1.00  0.00     0.159 A  
HETATM   25  C   UNL     1     -11.058  11.883  68.516  1.00  0.00    -0.290 A  
BRANCH  22  26
HETATM   26  C   UNL     1      -7.473  10.993  69.056  1.00  0.00    -0.129 A  
HETATM   27  N   UNL     1      -6.480  11.491  68.340  1.00  0.00    -0.050 NA 
HETATM   28  H   UNL     1      -6.532  11.827  67.378  1.00  0.00     0.000 HD 
HETATM   29  N   UNL     1      -5.364  11.469  69.140  1.00  0.00    -0.047 NA 
HETATM   30  N   UNL     1      -5.642  10.946  70.324  1.00  0.00    -0.077 NA 
HETATM   31  N   UNL     1      -6.937  10.608  70.257  1.00  0.00    -0.254 NA 
ENDBRANCH  22  26
ENDBRANCH  16  20
ENDBRANCH  13  14
ENDBRANCH   9  13
BRANCH   8  32
HETATM   32  C   UNL     1      -6.892   3.835  71.112  1.00  0.00    -0.032 C  
HETATM   33  O   UNL     1      -5.704   3.624  71.291  1.00  0.00    -0.011 OA 
BRANCH  32  34
HETATM   34  O   UNL     1      -7.540   4.966  71.491  1.00  0.00    -0.079 OA 
BRANCH  34  35
HETATM   35  C   UNL     1      -6.968   5.557  72.668  1.00  0.00    -0.083 C  
HETATM   36  C   UNL     1      -5.975   6.605  72.162  1.00  0.00    -0.038 C  
BRANCH  35  37
HETATM   37  O   UNL     1      -7.919   6.293  73.438  1.00  0.00    -0.102 OA 
BRANCH  37  38
HETATM   38  C   UNL     1      -8.401   7.420  72.868  1.00  0.00    -0.113 C  
HETATM   39  O   UNL     1      -8.012   8.556  73.069  1.00  0.00    -0.344 OA 
BRANCH  38  40
HETATM   40  O   UNL     1      -9.371   7.036  72.017  1.00  0.00    -0.141 OA 
BRANCH  40  41
HETATM   41  C   UNL     1      -9.969   7.897  71.021  1.00  0.00    -0.181 C  
HETATM   42  C   UNL     1     -12.941   7.833  70.876  1.00  0.00     0.055 C  
HETATM   43  C   UNL     1     -10.731   6.990  70.052  1.00  0.00    -0.267 C  
HETATM   44  C   UNL     1     -12.096   6.596  70.607  1.00  0.00    -0.342 C  
HETATM   45  C   UNL     1     -12.258   8.806  71.833  1.00  0.00    -0.429 C  
HETATM   46  C   UNL     1     -10.799   9.103  71.472  1.00  0.00    -0.436 C  
ENDBRANCH  40  41
ENDBRANCH  38  40
ENDBRANCH  37  38
ENDBRANCH  35  37
ENDBRANCH  34  35
ENDBRANCH  32  34
ENDBRANCH   8  32
ENDBRANCH   3   4
ENDBRANCH   2   3
TORSDOF 13
ENDMDL
MODEL      286
REMARK 921   NORMALIZED FREE ENERGY PREDICTED BY IDOCK:   -2.58 KCAL/MOL
REMARK 922        TOTAL FREE ENERGY PREDICTED BY IDOCK:   -6.99 KCAL/MOL
REMARK 923 INTER-LIGAND FREE ENERGY PREDICTED BY IDOCK:   -5.55 KCAL/MOL
REMARK 924 INTRA-LIGAND FREE ENERGY PREDICTED BY IDOCK:   -1.44 KCAL/MOL
REMARK 927      BINDING AFFINITY PREDICTED BY RF-SCORE:    0.00 PKD
ROOT
HETATM    1  C   UNL     1     -12.576  13.466  72.321  1.00  0.00    -0.025 C  
HETATM    2  C   UNL     1     -12.762  12.907  70.922  1.00  0.00    -0.207 C  
ENDROOT
BRANCH   2   3
HETATM    3  O   UNL     1     -11.643  13.324  70.132  1.00  0.00    -0.212 OA 
BRANCH   3   4
HETATM    4  C   UNL     1     -11.016  12.342  69.490  1.00  0.00     0.077 A  
HETATM    5  N   UNL     1     -10.260  11.438  70.067  1.00  0.00     0.822 NA 
HETATM    6  C   UNL     1      -9.822  10.644  69.047  1.00  0.00    -0.205 A  
HETATM    7  C   UNL     1     -10.374  11.019  67.806  1.00  0.00    -0.188 A  
HETATM    8  C   UNL     1     -10.120  10.228  66.659  1.00  0.00    -0.281 A  
HETATM    9  N   UNL     1     -11.050  12.192  68.120  1.00  0.00    -0.230 NA 
HETATM   10  C   UNL     1      -8.620   8.826  68.013  1.00  0.00    -0.134 A  
HETATM   11  C   UNL     1      -8.921   9.570  69.146  1.00  0.00    -0.148 A  
HETATM   12  C   UNL     1      -9.235   9.135  66.806  1.00  0.00    -0.195 A  
BRANCH   9  13
HETATM   13  C   UNL     1     -11.561  13.247  67.244  1.00  0.00    -0.359 C  
BRANCH  13  14
HETATM   14  C   UNL     1     -10.474  14.122  66.672  1.00  0.00    -0.278 A  
HETATM   15  C   UNL     1      -9.714  16.216  65.727  1.00  0.00    -0.325 A  
HETATM   16  C   UNL     1      -8.426  16.009  66.251  1.00  0.00    -0.337 A  
HETATM   17  C   UNL     1      -9.140  13.765  66.873  1.00  0.00    -0.253 A  
HETATM   18  C   UNL     1     -10.747  15.308  65.991  1.00  0.00    -0.324 A  
HETATM   19  C   UNL     1      -8.129  14.707  66.685  1.00  0.00     0.258 A  
BRANCH  16  20
HETATM   20  C   UNL     1      -7.467  17.128  66.489  1.00  0.00    -0.318 A  
HETATM   21  C   UNL     1      -6.087  16.838  66.624  1.00  0.00    -0.104 A  
HETATM   22  C   UNL     1      -7.865  18.483  66.699  1.00  0.00    -0.270 A  
HETATM   23  C   UNL     1      -5.141  17.821  66.931  1.00  0.00    -0.160 A  
HETATM   24  C   UNL     1      -6.882  19.468  66.944  1.00  0.00    -0.209 A  
HETATM   25  C   UNL     1      -5.535  19.142  67.070  1.00  0.00    -0.163 A  
BRANCH  22  26
HETATM   26  C   UNL     1      -9.250  18.970  66.745  1.00  0.00    -0.319 A  
HETATM   27  N   UNL     1      -9.904  19.595  65.780  1.00  0.00    -0.405 NA 
HETATM   28  H   UNL     1      -9.546  19.823  64.852  1.00  0.00     0.000 HD 
HETATM   29  N   UNL     1     -11.156  19.876  66.267  1.00  0.00    -0.070 NA 
HETATM   30  N   UNL     1     -11.281  19.462  67.518  1.00  0.00    -0.156 NA 
HETATM   31  N   UNL     1     -10.086  18.942  67.830  1.00  0.00    -0.352 NA 
ENDBRANCH  22  26
ENDBRANCH  16  20
ENDBRANCH  13  14
ENDBRANCH   9  13
BRANCH   8  32
HETATM   32  C   UNL     1     -10.588  10.543  65.288  1.00  0.00    -0.067 C  
HETATM   33  O   UNL     1     -11.762  10.517  64.960  1.00  0.00     1.345 OA 
BRANCH  32  34
HETATM   34  O   UNL     1      -9.589  11.071  64.535  1.00  0.00    -0.228 OA 
BRANCH  34  35
HETATM   35  C   UNL     1      -9.130  10.167  63.520  1.00  0.00    -0.275 C  
HETATM   36  C   UNL     1      -8.580  11.051  62.399  1.00  0.00    -0.341 C  
BRANCH  35  37
HETATM   37  O   UNL     1      -8.020   9.374  63.942  1.00  0.00    -0.127 OA 
BRANCH  37  38
HETATM   38  C   UNL     1      -7.481   8.562  63.005  1.00  0.00    -0.107 C  
HETATM   39  O   UNL     1      -6.488   8.789  62.335  1.00  0.00    -0.096 OA 
BRANCH  38  40
HETATM   40  O   UNL     1      -8.237   7.449  62.979  1.00  0.00    -0.087 OA 
BRANCH  40  41
HETATM   41  C   UNL     1      -7.733   6.116  63.225  1.00  0.00    -0.097 C  
HETATM   42  C   UNL     1      -8.077   5.099  66.001  1.00  0.00    -0.109 C  
HETATM   43  C   UNL     1      -6.645   6.244  64.295  1.00  0.00    -0.034 C  
HETATM   44  C   UNL     1      -7.242   6.335  65.695  1.00  0.00    -0.074 C  
HETATM   45  C   UNL     1      -9.190   4.882  64.981  1.00  0.00    -0.107 C  
HETATM   46  C   UNL     1      -8.721   4.984  63.526  1.00  0.00    -0.079 C  
ENDBRANCH  40  41
ENDBRANCH  38  40
ENDBRANCH  37  38
ENDBRANCH  35  37
ENDBRANCH  34  35
ENDBRANCH  32  34
ENDBRANCH   8  32
ENDBRANCH   3   4
ENDBRANCH   2   3
TORSDOF 13
ENDMDL
MODEL      287
REMARK 921   NORMALIZED FREE ENERGY PREDICTED BY IDOCK:   -2.42 KCAL/MOL
REMARK 922        TOTAL FREE ENERGY PREDICTED BY IDOCK:   -6.71 KCAL/MOL
REMARK 923 INTER-LIGAND FREE ENERGY PREDICTED BY IDOCK:   -6.86 KCAL/MOL
REMARK 924 INTRA-LIGAND FREE ENERGY PREDICTED BY IDOCK:    0.14 KCAL/MOL
REMARK 927      BINDING AFFINITY PREDICTED BY RF-SCORE:    0.00 PKD
ROOT
HETATM    1  C   UNL     1      -5.683  12.859  69.685  1.00  0.00    -0.104 C  
HETATM    2  C   UNL     1      -5.999  11.751  68.697  1.00  0.00    -0.050 C  
ENDROOT
BRANCH   2   3
HETATM    3  O   UNL     1      -5.630  10.507  69.301  1.00  0.00    -0.038 OA 
BRANCH   3   4
HETATM    4  C   UNL     1      -6.559   9.972  70.089  1.00  0.00    -0.117 A  
HETATM    5  N   UNL     1      -6.359   9.607  71.334  1.00  0.00    -0.281 NA 
HETATM    6  C   UNL     1      -7.560   9.112  71.752  1.00  0.00     0.264 A  
HETATM    7  C   UNL     1      -8.559   9.235  70.765  1.00  0.00    -0.203 A  
HETATM    8  C   UNL     1      -9.896   8.882  71.074  1.00  0.00    -0.321 A  
HETATM    9  N   UNL     1      -7.841   9.691  69.666  1.00  0.00    -0.112 NA 
HETATM   10  C   UNL     1      -9.137   8.123  73.287  1.00  0.00    -0.327 A  
HETATM   11  C   UNL     1      -7.840   8.528  72.999  1.00  0.00    -0.061 A  
HETATM   12  C   UNL     1     -10.144   8.328  72.351  1.00  0.00    -0.383 A  
BRANCH   9  13
HETATM   13  C   UNL     1      -8.204   9.716  68.249  1.00  0.00    -0.106 C  
BRANCH  13  14
HETATM   14  C   UNL     1      -7.970   8.400  67.552  1.00  0.00    -0.106 A  
HETATM   15  C   UNL     1      -6.491   6.706  66.657  1.00  0.00    -0.043 A  
HETATM   16  C   UNL     1      -7.450   5.709  66.901  1.00  0.00    -0.088 A  
HETATM   17  C   UNL     1      -9.021   7.485  67.459  1.00  0.00    -0.127 A  
HETATM   18  C   UNL     1      -6.726   8.033  67.041  1.00  0.00    -0.065 A  
HETATM   19  C   UNL     1      -8.759   6.149  67.157  1.00  0.00    -0.106 A  
BRANCH  16  20
HETATM   20  C   UNL     1      -7.092   4.267  67.042  1.00  0.00    -0.067 A  
HETATM   21  C   UNL     1      -6.398   3.621  65.989  1.00  0.00    -0.032 A  
HETATM   22  C   UNL     1      -7.499   3.452  68.141  1.00  0.00    -0.054 A  
HETATM   23  C   UNL     1      -6.102   2.255  66.014  1.00  0.00    -0.023 A  
HETATM   24  C   UNL     1      -7.131   2.088  68.171  1.00  0.00    -0.043 A  
HETATM   25  C   UNL     1      -6.449   1.490  67.116  1.00  0.00    -0.024 A  
BRANCH  22  26
HETATM   26  C   UNL     1      -8.343   3.887  69.263  1.00  0.00    -0.060 A  
HETATM   27  N   UNL     1      -9.594   3.531  69.498  1.00  0.00    -0.163 NA 
HETATM   28  H   UNL     1     -10.160   2.891  68.941  1.00  0.00     0.000 HD 
HETATM   29  N   UNL     1      -9.985   4.189  70.638  1.00  0.00    -0.173 NA 
HETATM   30  N   UNL     1      -9.012   4.960  71.096  1.00  0.00    -0.133 NA 
HETATM   31  N   UNL     1      -8.010   4.810  70.219  1.00  0.00    -0.067 NA 
ENDBRANCH  22  26
ENDBRANCH  16  20
ENDBRANCH  13  14
ENDBRANCH   9  13
BRANCH   8  32
HETATM   32  C   UNL     1     -11.025   8.905  70.113  1.00  0.00    -0.227 C  
HETATM   33  O   UNL     1     -12.073   8.311  70.300  1.00  0.00     0.153 OA 
BRANCH  32  34
HETATM   34  O   UNL     1     -10.828   9.834  69.143  1.00  0.00    -0.219 OA 
BRANCH  34  35
HETATM   35  C   UNL     1     -11.912  10.770  69.052  1.00  0.00    -0.186 C  
HETATM   36  C   UNL     1     -12.025  11.407  70.437  1.00  0.00    -0.465 C  
BRANCH  35  37
HETATM   37  O   UNL     1     -11.636  11.857  68.168  1.00  0.00    -0.296 OA 
BRANCH  37  38
HETATM   38  C   UNL     1     -10.483  12.525  68.392  1.00  0.00    -0.240 C  
HETATM   39  O   UNL     1      -9.578  12.179  69.131  1.00  0.00     0.202 OA 
BRANCH  38  40
HETATM   40  O   UNL     1     -10.520  13.628  67.621  1.00  0.00    -0.235 OA 
BRANCH  40  41
HETATM   41  C   UNL     1      -9.946  13.715  66.296  1.00  0.00    -0.300 C  
HETATM   42  C   UNL     1     -11.852  14.364  64.104  1.00  0.00    -0.316 C  
HETATM   43  C   UNL     1     -10.628  12.640  65.446  1.00  0.00    -0.307 C  
HETATM   44  C   UNL     1     -11.991  13.102  64.943  1.00  0.00    -0.431 C  
HETATM   45  C   UNL     1     -11.174  15.498  64.868  1.00  0.00    -0.396 C  
HETATM   46  C   UNL     1      -9.892  15.074  65.590  1.00  0.00    -0.380 C  
ENDBRANCH  40  41
ENDBRANCH  38  40
ENDBRANCH  37  38
ENDBRANCH  35  37
ENDBRANCH  34  35
ENDBRANCH  32  34
ENDBRANCH   8  32
ENDBRANCH   3   4
ENDBRANCH   2   3
TORSDOF 13
ENDMDL
MODEL      288
REMARK 921   NORMALIZED FREE ENERGY PREDICTED BY IDOCK:   -2.38 KCAL/MOL
REMARK 922        TOTAL FREE ENERGY PREDICTED BY IDOCK:   -6.64 KCAL/MOL
REMARK 923 INTER-LIGAND FREE ENERGY PREDICTED BY IDOCK:   -8.00 KCAL/MOL
REMARK 924 INTRA-LIGAND FREE ENERGY PREDICTED BY IDOCK:    1.36 KCAL/MOL
REMARK 927      BINDING AFFINITY PREDICTED BY RF-SCORE:    0.00 PKD
ROOT
HETATM    1  C   UNL     1      -5.517   8.797  70.734  1.00  0.00    -0.028 C  
HETATM    2  C   UNL     1      -5.629   8.659  69.226  1.00  0.00    -0.035 C  
ENDROOT
BRANCH   2   3
HETATM    3  O   UNL     1      -6.766   9.417  68.800  1.00  0.00    -0.052 OA 
BRANCH   3   4
HETATM    4  C   UNL     1      -6.619  10.737  68.878  1.00  0.00    -0.057 A  
HETATM    5  N   UNL     1      -5.716  11.343  69.613  1.00  0.00    -0.066 NA 
HETATM    6  C   UNL     1      -5.927  12.675  69.400  1.00  0.00    -0.101 A  
HETATM    7  C   UNL     1      -6.943  12.908  68.453  1.00  0.00    -0.096 A  
HETATM    8  C   UNL     1      -7.210  14.231  68.023  1.00  0.00    -0.146 A  
HETATM    9  N   UNL     1      -7.442  11.631  68.227  1.00  0.00    -0.091 NA 
HETATM   10  C   UNL     1      -5.554  15.045  69.649  1.00  0.00    -0.098 A  
HETATM   11  C   UNL     1      -5.255  13.741  70.021  1.00  0.00    -0.093 A  
HETATM   12  C   UNL     1      -6.490  15.275  68.648  1.00  0.00    -0.094 A  
BRANCH   9  13
HETATM   13  C   UNL     1      -8.699  11.206  67.609  1.00  0.00    -0.129 C  
BRANCH  13  14
HETATM   14  C   UNL     1      -9.511  10.287  68.485  1.00  0.00    -0.158 A  
HETATM   15  C   UNL     1     -10.752   8.240  68.838  1.00  0.00    -0.089 A  
HETATM   16  C   UNL     1     -10.418   8.247  70.203  1.00  0.00    -0.225 A  
HETATM   17  C   UNL     1      -9.488  10.473  69.869  1.00  0.00     0.188 A  
HETATM   18  C   UNL     1     -10.247   9.220  67.973  1.00  0.00    -0.255 A  
HETATM   19  C   UNL     1      -9.917   9.454  70.717  1.00  0.00    -0.358 A  
BRANCH  16  20
HETATM   20  C   UNL     1     -10.436   7.012  71.041  1.00  0.00    -0.231 A  
HETATM   21  C   UNL     1     -10.795   7.109  72.407  1.00  0.00    -0.280 A  
HETATM   22  C   UNL     1     -10.006   5.732  70.576  1.00  0.00    -0.252 A  
HETATM   23  C   UNL     1     -10.754   6.011  73.273  1.00  0.00    -0.284 A  
HETATM   24  C   UNL     1     -10.036   4.626  71.455  1.00  0.00    -0.265 A  
HETATM   25  C   UNL     1     -10.395   4.763  72.792  1.00  0.00    -0.244 A  
BRANCH  22  26
HETATM   26  C   UNL     1      -9.461   5.445  69.242  1.00  0.00    -0.133 A  
HETATM   27  N   UNL     1      -8.203   5.171  68.941  1.00  0.00    -0.088 NA 
HETATM   28  H   UNL     1      -7.421   5.109  69.593  1.00  0.00     0.000 HD 
HETATM   29  N   UNL     1      -8.152   4.988  67.581  1.00  0.00    -0.098 NA 
HETATM   30  N   UNL     1      -9.344   5.166  67.035  1.00  0.00    -0.120 NA 
HETATM   31  N   UNL     1     -10.147   5.494  68.056  1.00  0.00    -0.164 NA 
ENDBRANCH  22  26
ENDBRANCH  16  20
ENDBRANCH  13  14
ENDBRANCH   9  13
BRANCH   8  32
HETATM   32  C   UNL     1      -8.288  14.619  67.082  1.00  0.00    -0.211 C  
HETATM   33  O   UNL     1      -8.537  14.001  66.060  1.00  0.00     0.515 OA 
BRANCH  32  34
HETATM   34  O   UNL     1      -9.082  15.584  67.612  1.00  0.00    -0.180 OA 
BRANCH  34  35
HETATM   35  C   UNL     1     -10.478  15.289  67.461  1.00  0.00    -0.265 C  
HETATM   36  C   UNL     1     -10.645  13.838  67.915  1.00  0.00    -0.257 C  
BRANCH  35  37
HETATM   37  O   UNL     1     -11.305  16.048  68.344  1.00  0.00    -0.355 OA 
BRANCH  37  38
HETATM   38  C   UNL     1     -10.660  16.767  69.290  1.00  0.00    -0.336 C  
HETATM   39  O   UNL     1     -10.869  16.736  70.490  1.00  0.00    -0.094 OA 
BRANCH  38  40
HETATM   40  O   UNL     1      -9.729  17.498  68.649  1.00  0.00    -0.295 OA 
BRANCH  40  41
HETATM   41  C   UNL     1      -9.774  18.937  68.514  1.00  0.00    -0.387 C  
HETATM   42  C   UNL     1      -8.233  20.068  66.233  1.00  0.00    -0.324 C  
HETATM   43  C   UNL     1      -8.336  19.440  68.656  1.00  0.00    -0.397 C  
HETATM   44  C   UNL     1      -7.557  19.289  67.353  1.00  0.00    -0.260 C  
HETATM   45  C   UNL     1      -9.681  19.639  66.019  1.00  0.00    -0.421 C  
HETATM   46  C   UNL     1     -10.497  19.556  67.313  1.00  0.00    -0.590 C  
ENDBRANCH  40  41
ENDBRANCH  38  40
ENDBRANCH  37  38
ENDBRANCH  35  37
ENDBRANCH  34  35
ENDBRANCH  32  34
ENDBRANCH   8  32
ENDBRANCH   3   4
ENDBRANCH   2   3
TORSDOF 13
ENDMDL
MODEL      289
REMARK 921   NORMALIZED FREE ENERGY PREDICTED BY IDOCK:   -2.26 KCAL/MOL
REMARK 922        TOTAL FREE ENERGY PREDICTED BY IDOCK:   -6.42 KCAL/MOL
REMARK 923 INTER-LIGAND FREE ENERGY PREDICTED BY IDOCK:   -4.49 KCAL/MOL
REMARK 924 INTRA-LIGAND FREE ENERGY PREDICTED BY IDOCK:   -1.93 KCAL/MOL
REMARK 927      BINDING AFFINITY PREDICTED BY RF-SCORE:    0.00 PKD
ROOT
HETATM    1  C   UNL     1     -10.820  11.814  65.851  1.00  0.00    -0.339 C  
HETATM    2  C   UNL     1     -12.157  12.112  66.505  1.00  0.00     0.092 C  
ENDROOT
BRANCH   2   3
HETATM    3  O   UNL     1     -12.281  11.264  67.652  1.00  0.00    -0.423 OA 
BRANCH   3   4
HETATM    4  C   UNL     1     -11.320  10.353  67.779  1.00  0.00    -0.128 A  
HETATM    5  N   UNL     1     -11.336   9.169  67.212  1.00  0.00     0.681 NA 
HETATM    6  C   UNL     1     -10.176   8.573  67.612  1.00  0.00    -0.236 A  
HETATM    7  C   UNL     1      -9.378   9.433  68.393  1.00  0.00    -0.134 A  
HETATM    8  C   UNL     1      -8.084   9.017  68.792  1.00  0.00    -0.105 A  
HETATM    9  N   UNL     1     -10.207  10.533  68.572  1.00  0.00    -0.166 NA 
HETATM   10  C   UNL     1      -8.520   6.826  67.764  1.00  0.00    -0.122 A  
HETATM   11  C   UNL     1      -9.763   7.262  67.324  1.00  0.00    -0.204 A  
HETATM   12  C   UNL     1      -7.691   7.701  68.455  1.00  0.00    -0.119 A  
BRANCH   9  13
HETATM   13  C   UNL     1     -10.122  11.629  69.539  1.00  0.00     0.520 C  
BRANCH  13  14
HETATM   14  C   UNL     1      -9.640  12.921  68.930  1.00  0.00     0.215 A  
HETATM   15  C   UNL     1      -9.832  15.309  68.593  1.00  0.00    -0.211 A  
HETATM   16  C   UNL     1      -8.441  15.418  68.417  1.00  0.00    -0.160 A  
HETATM   17  C   UNL     1      -8.345  12.984  68.411  1.00  0.00    -0.118 A  
HETATM   18  C   UNL     1     -10.418  14.077  68.911  1.00  0.00    -0.210 A  
HETATM   19  C   UNL     1      -7.746  14.222  68.178  1.00  0.00    -0.141 A  
BRANCH  16  20
HETATM   20  C   UNL     1      -7.703  16.698  68.626  1.00  0.00    -0.224 A  
HETATM   21  C   UNL     1      -6.757  16.787  69.676  1.00  0.00    -0.093 A  
HETATM   22  C   UNL     1      -7.966  17.894  67.891  1.00  0.00    -0.235 A  
HETATM   23  C   UNL     1      -6.089  17.977  69.984  1.00  0.00    -0.110 A  
HETATM   24  C   UNL     1      -7.230  19.065  68.181  1.00  0.00    -0.289 A  
HETATM   25  C   UNL     1      -6.309  19.112  69.222  1.00  0.00    -0.320 A  
BRANCH  22  26
HETATM   26  C   UNL     1      -9.002  18.056  66.862  1.00  0.00    -0.262 A  
HETATM   27  N   UNL     1     -10.097  18.793  66.948  1.00  0.00    -0.336 NA 
HETATM   28  H   UNL     1     -10.381  19.370  67.740  1.00  0.00     0.000 HD 
HETATM   29  N   UNL     1     -10.776  18.633  65.765  1.00  0.00    -0.476 NA 
HETATM   30  N   UNL     1     -10.137  17.796  64.963  1.00  0.00     0.551 NA 
HETATM   31  N   UNL     1      -9.062  17.402  65.660  1.00  0.00    -0.317 NA 
ENDBRANCH  22  26
ENDBRANCH  16  20
ENDBRANCH  13  14
ENDBRANCH   9  13
BRANCH   8  32
HETATM   32  C   UNL     1      -7.170   9.796  69.662  1.00  0.00    -0.097 C  
HETATM   33  O   UNL     1      -7.400  10.023  70.838  1.00  0.00    -0.302 OA 
BRANCH  32  34
HETATM   34  O   UNL     1      -5.976  10.013  69.055  1.00  0.00    -0.038 OA 
BRANCH  34  35
HETATM   35  C   UNL     1      -6.123  10.580  67.744  1.00  0.00    -0.048 C  
HETATM   36  C   UNL     1      -5.142  11.752  67.690  1.00  0.00    -0.064 C  
BRANCH  35  37
HETATM   37  O   UNL     1      -5.699   9.696  66.705  1.00  0.00    -0.049 OA 
BRANCH  37  38
HETATM   38  C   UNL     1      -6.429   9.724  65.568  1.00  0.00    -0.084 C  
HETATM   39  O   UNL     1      -7.575  10.120  65.454  1.00  0.00    -0.133 OA 
BRANCH  38  40
HETATM   40  O   UNL     1      -5.632   9.257  64.588  1.00  0.00    -0.060 OA 
BRANCH  40  41
HETATM   41  C   UNL     1      -6.102   8.505  63.446  1.00  0.00    -0.077 C  
HETATM   42  C   UNL     1      -7.678   6.059  64.071  1.00  0.00    -0.105 C  
HETATM   43  C   UNL     1      -5.469   7.115  63.541  1.00  0.00    -0.033 C  
HETATM   44  C   UNL     1      -6.229   6.217  64.511  1.00  0.00    -0.030 C  
HETATM   45  C   UNL     1      -8.395   7.399  63.941  1.00  0.00     0.169 C  
HETATM   46  C   UNL     1      -7.605   8.448  63.152  1.00  0.00    -0.121 C  
ENDBRANCH  40  41
ENDBRANCH  38  40
ENDBRANCH  37  38
ENDBRANCH  35  37
ENDBRANCH  34  35
ENDBRANCH  32  34
ENDBRANCH   8  32
ENDBRANCH   3   4
ENDBRANCH   2   3
TORSDOF 13
ENDMDL
MODEL      290
REMARK 921   NORMALIZED FREE ENERGY PREDICTED BY IDOCK:   -2.25 KCAL/MOL
REMARK 922        TOTAL FREE ENERGY PREDICTED BY IDOCK:   -6.42 KCAL/MOL
REMARK 923 INTER-LIGAND FREE ENERGY PREDICTED BY IDOCK:   -7.71 KCAL/MOL
REMARK 924 INTRA-LIGAND FREE ENERGY PREDICTED BY IDOCK:    1.29 KCAL/MOL
REMARK 927      BINDING AFFINITY PREDICTED BY RF-SCORE:    0.00 PKD
ROOT
HETATM    1  C   UNL     1     -12.534  12.003  70.166  1.00  0.00    -0.122 C  
HETATM    2  C   UNL     1     -12.352  10.965  71.258  1.00  0.00    -0.343 C  
ENDROOT
BRANCH   2   3
HETATM    3  O   UNL     1     -10.969  10.595  71.283  1.00  0.00     0.498 OA 
BRANCH   3   4
HETATM    4  C   UNL     1     -10.715   9.352  70.883  1.00  0.00    -0.323 A  
HETATM    5  N   UNL     1     -11.420   8.300  71.229  1.00  0.00    -0.267 NA 
HETATM    6  C   UNL     1     -10.812   7.250  70.605  1.00  0.00    -0.242 A  
HETATM    7  C   UNL     1      -9.739   7.664  69.790  1.00  0.00    -0.171 A  
HETATM    8  C   UNL     1      -9.072   6.716  68.976  1.00  0.00    -0.133 A  
HETATM    9  N   UNL     1      -9.639   9.017  70.089  1.00  0.00    -0.181 NA 
HETATM   10  C   UNL     1     -10.463   4.948  69.971  1.00  0.00    -0.119 A  
HETATM   11  C   UNL     1     -11.153   5.892  70.721  1.00  0.00    -0.324 A  
HETATM   12  C   UNL     1      -9.466   5.363  69.096  1.00  0.00    -0.177 A  
BRANCH   9  13
HETATM   13  C   UNL     1      -8.547   9.958  69.839  1.00  0.00    -0.194 C  
BRANCH  13  14
HETATM   14  C   UNL     1      -8.779  10.831  68.632  1.00  0.00    -0.152 A  
HETATM   15  C   UNL     1      -8.955  11.138  66.238  1.00  0.00    -0.202 A  
HETATM   16  C   UNL     1      -9.856  12.200  66.419  1.00  0.00    -0.242 A  
HETATM   17  C   UNL     1      -9.375  12.082  68.803  1.00  0.00     0.044 A  
HETATM   18  C   UNL     1      -8.470  10.417  67.337  1.00  0.00    -0.121 A  
HETATM   19  C   UNL     1      -9.927  12.748  67.709  1.00  0.00    -0.219 A  
BRANCH  16  20
HETATM   20  C   UNL     1     -10.810  12.635  65.355  1.00  0.00    -0.318 A  
HETATM   21  C   UNL     1     -11.590  11.660  64.687  1.00  0.00    -0.199 A  
HETATM   22  C   UNL     1     -10.915  13.978  64.884  1.00  0.00    -0.398 A  
HETATM   23  C   UNL     1     -12.442  11.980  63.625  1.00  0.00    -0.637 A  
HETATM   24  C   UNL     1     -11.831  14.285  63.853  1.00  0.00    -0.153 A  
HETATM   25  C   UNL     1     -12.579  13.298  63.221  1.00  0.00    -0.054 A  
BRANCH  22  26
HETATM   26  C   UNL     1     -10.097  15.111  65.339  1.00  0.00    -0.350 A  
HETATM   27  N   UNL     1      -8.950  15.049  65.994  1.00  0.00    -0.474 NA 
HETATM   28  H   UNL     1      -8.454  14.203  66.273  1.00  0.00     0.000 HD 
HETATM   29  N   UNL     1      -8.555  16.344  66.225  1.00  0.00    -0.323 NA 
HETATM   30  N   UNL     1      -9.444  17.201  65.750  1.00  0.00    -0.531 NA 
HETATM   31  N   UNL     1     -10.423  16.439  65.242  1.00  0.00    -0.627 NA 
ENDBRANCH  22  26
ENDBRANCH  16  20
ENDBRANCH  13  14
ENDBRANCH   9  13
BRANCH   8  32
HETATM   32  C   UNL     1      -7.895   7.006  68.123  1.00  0.00    -0.118 C  
HETATM   33  O   UNL     1      -7.937   7.007  66.904  1.00  0.00    -0.111 OA 
BRANCH  32  34
HETATM   34  O   UNL     1      -6.858   7.481  68.858  1.00  0.00    -0.063 OA 
BRANCH  34  35
HETATM   35  C   UNL     1      -5.839   6.493  69.073  1.00  0.00    -0.021 C  
HETATM   36  C   UNL     1      -6.393   5.558  70.149  1.00  0.00    -0.030 C  
BRANCH  35  37
HETATM   37  O   UNL     1      -5.624   5.659  67.935  1.00  0.00    -0.011 OA 
BRANCH  37  38
HETATM   38  C   UNL     1      -6.203   4.438  67.976  1.00  0.00    -0.036 C  
HETATM   39  O   UNL     1      -7.109   4.043  67.264  1.00  0.00    -0.061 OA 
BRANCH  38  40
HETATM   40  O   UNL     1      -5.564   3.742  68.935  1.00  0.00    -0.016 OA 
BRANCH  40  41
HETATM   41  C   UNL     1      -5.795   2.342  69.216  1.00  0.00    -0.023 C  
HETATM   42  C   UNL     1      -7.735   1.767  71.398  1.00  0.00    -0.040 C  
HETATM   43  C   UNL     1      -5.364   2.105  70.665  1.00  0.00    -0.004 C  
HETATM   44  C   UNL     1      -6.445   2.535  71.651  1.00  0.00    -0.018 C  
HETATM   45  C   UNL     1      -8.243   1.938  69.970  1.00  0.00    -0.060 C  
HETATM   46  C   UNL     1      -7.164   1.730  68.903  1.00  0.00    -0.039 C  
ENDBRANCH  40  41
ENDBRANCH  38  40
ENDBRANCH  37  38
ENDBRANCH  35  37
ENDBRANCH  34  35
ENDBRANCH  32  34
ENDBRANCH   8  32
ENDBRANCH   3   4
ENDBRANCH   2   3
TORSDOF 13
ENDMDL
MODEL      291
REMARK 921   NORMALIZED FREE ENERGY PREDICTED BY IDOCK:   -2.08 KCAL/MOL
REMARK 922        TOTAL FREE ENERGY PREDICTED BY IDOCK:   -6.12 KCAL/MOL
REMARK 923 INTER-LIGAND FREE ENERGY PREDICTED BY IDOCK:   -3.94 KCAL/MOL
REMARK 924 INTRA-LIGAND FREE ENERGY PREDICTED BY IDOCK:   -2.18 KCAL/MOL
REMARK 927      BINDING AFFINITY PREDICTED BY RF-SCORE:    0.00 PKD
ROOT
HETATM    1  C   UNL     1     -11.002  10.722  65.440  1.00  0.00     0.040 C  
HETATM    2  C   UNL     1     -10.254  10.678  64.120  1.00  0.00    -0.295 C  
ENDROOT
BRANCH   2   3
HETATM    3  O   UNL     1      -8.853  10.709  64.410  1.00  0.00    -0.190 OA 
BRANCH   3   4
HETATM    4  C   UNL     1      -8.530  11.334  65.539  1.00  0.00     0.076 A  
HETATM    5  N   UNL     1      -8.823  12.585  65.808  1.00  0.00     0.350 NA 
HETATM    6  C   UNL     1      -8.304  12.807  67.050  1.00  0.00    -0.120 A  
HETATM    7  C   UNL     1      -7.732  11.645  67.604  1.00  0.00    -0.133 A  
HETATM    8  C   UNL     1      -7.253  11.666  68.937  1.00  0.00    -0.113 A  
HETATM    9  N   UNL     1      -7.797  10.745  66.547  1.00  0.00    -0.139 NA 
HETATM   10  C   UNL     1      -7.775  14.068  69.038  1.00  0.00    -0.006 A  
HETATM   11  C   UNL     1      -8.297  14.024  67.752  1.00  0.00    -0.176 A  
HETATM   12  C   UNL     1      -7.294  12.903  69.623  1.00  0.00     0.642 A  
BRANCH   9  13
HETATM   13  C   UNL     1      -7.095   9.477  66.346  1.00  0.00    -0.088 C  
BRANCH  13  14
HETATM   14  C   UNL     1      -7.938   8.272  66.678  1.00  0.00    -0.098 A  
HETATM   15  C   UNL     1      -9.066   6.229  66.038  1.00  0.00    -0.126 A  
HETATM   16  C   UNL     1      -8.895   5.704  67.330  1.00  0.00    -0.105 A  
HETATM   17  C   UNL     1      -8.090   7.899  68.015  1.00  0.00    -0.126 A  
HETATM   18  C   UNL     1      -8.533   7.480  65.698  1.00  0.00    -0.141 A  
HETATM   19  C   UNL     1      -8.543   6.619  68.335  1.00  0.00    -0.124 A  
BRANCH  16  20
HETATM   20  C   UNL     1      -8.924   4.239  67.612  1.00  0.00    -0.135 A  
HETATM   21  C   UNL     1      -9.551   3.775  68.794  1.00  0.00    -0.172 A  
HETATM   22  C   UNL     1      -8.259   3.263  66.809  1.00  0.00    -0.092 A  
HETATM   23  C   UNL     1      -9.545   2.427  69.166  1.00  0.00    -0.045 A  
HETATM   24  C   UNL     1      -8.324   1.899  67.174  1.00  0.00    -0.084 A  
HETATM   25  C   UNL     1      -8.950   1.484  68.344  1.00  0.00    -0.157 A  
BRANCH  22  26
HETATM   26  C   UNL     1      -7.435   3.546  65.626  1.00  0.00    -0.077 A  
HETATM   27  N   UNL     1      -6.153   3.869  65.611  1.00  0.00    -0.023 NA 
HETATM   28  H   UNL     1      -5.540   3.961  66.421  1.00  0.00     0.000 HD 
HETATM   29  N   UNL     1      -5.807   4.058  64.296  1.00  0.00    -0.014 NA 
HETATM   30  N   UNL     1      -6.851   3.882  63.502  1.00  0.00    -0.042 NA 
HETATM   31  N   UNL     1      -7.871   3.610  64.328  1.00  0.00    -0.084 NA 
ENDBRANCH  22  26
ENDBRANCH  16  20
ENDBRANCH  13  14
ENDBRANCH   9  13
BRANCH   8  32
HETATM   32  C   UNL     1      -6.577  10.536  69.617  1.00  0.00    -0.098 C  
HETATM   33  O   UNL     1      -5.530  10.049  69.223  1.00  0.00    -0.035 OA 
BRANCH  32  34
HETATM   34  O   UNL     1      -7.139  10.279  70.825  1.00  0.00    -0.315 OA 
BRANCH  34  35
HETATM   35  C   UNL     1      -8.220   9.339  70.739  1.00  0.00    -0.169 C  
HETATM   36  C   UNL     1      -8.399   8.787  72.154  1.00  0.00    -0.056 C  
BRANCH  35  37
HETATM   37  O   UNL     1      -9.469   9.956  70.423  1.00  0.00    -0.205 OA 
BRANCH  37  38
HETATM   38  C   UNL     1     -10.577   9.258  70.759  1.00  0.00    -0.285 C  
HETATM   39  O   UNL     1     -10.803   8.090  70.497  1.00  0.00    -0.233 OA 
BRANCH  38  40
HETATM   40  O   UNL     1     -11.362  10.097  71.461  1.00  0.00    -0.233 OA 
BRANCH  40  41
HETATM   41  C   UNL     1     -12.522  10.770  70.920  1.00  0.00    -0.402 C  
HETATM   42  C   UNL     1     -11.958  13.155  69.231  1.00  0.00    -0.344 C  
HETATM   43  C   UNL     1     -12.506  12.195  71.478  1.00  0.00    -0.144 C  
HETATM   44  C   UNL     1     -11.554  13.095  70.697  1.00  0.00     0.313 C  
HETATM   45  C   UNL     1     -12.008  11.774  68.585  1.00  0.00    -0.299 C  
HETATM   46  C   UNL     1     -12.774  10.734  69.409  1.00  0.00     0.368 C  
ENDBRANCH  40  41
ENDBRANCH  38  40
ENDBRANCH  37  38
ENDBRANCH  35  37
ENDBRANCH  34  35
ENDBRANCH  32  34
ENDBRANCH   8  32
ENDBRANCH   3   4
ENDBRANCH   2   3
TORSDOF 13
ENDMDL
MODEL      292
REMARK 921   NORMALIZED FREE ENERGY PREDICTED BY IDOCK:   -2.08 KCAL/MOL
REMARK 922        TOTAL FREE ENERGY PREDICTED BY IDOCK:   -6.11 KCAL/MOL
REMARK 923 INTER-LIGAND FREE ENERGY PREDICTED BY IDOCK:   -5.13 KCAL/MOL
REMARK 924 INTRA-LIGAND FREE ENERGY PREDICTED BY IDOCK:   -0.99 KCAL/MOL
REMARK 927      BINDING AFFINITY PREDICTED BY RF-SCORE:    0.00 PKD
ROOT
HETATM    1  C   UNL     1     -11.783  11.263  65.004  1.00  0.00     0.338 C  
HETATM    2  C   UNL     1     -10.965  11.362  63.729  1.00  0.00    -0.370 C  
ENDROOT
BRANCH   2   3
HETATM    3  O   UNL     1      -9.590  11.168  64.076  1.00  0.00    -0.231 OA 
BRANCH   3   4
HETATM    4  C   UNL     1      -9.196  11.807  65.174  1.00  0.00     0.076 A  
HETATM    5  N   UNL     1      -9.602  13.006  65.525  1.00  0.00    -0.041 NA 
HETATM    6  C   UNL     1      -8.951  13.268  66.695  1.00  0.00    -0.126 A  
HETATM    7  C   UNL     1      -8.169  12.178  67.125  1.00  0.00    -0.182 A  
HETATM    8  C   UNL     1      -7.520  12.234  68.383  1.00  0.00    -0.122 A  
HETATM    9  N   UNL     1      -8.266  11.297  66.054  1.00  0.00    -0.102 NA 
HETATM   10  C   UNL     1      -8.315  14.547  68.639  1.00  0.00    -0.164 A  
HETATM   11  C   UNL     1      -8.998  14.463  67.433  1.00  0.00    -0.204 A  
HETATM   12  C   UNL     1      -7.619  13.441  69.112  1.00  0.00     0.200 A  
BRANCH   9  13
HETATM   13  C   UNL     1      -7.447  10.133  65.716  1.00  0.00    -0.131 C  
BRANCH  13  14
HETATM   14  C   UNL     1      -8.164   8.823  65.919  1.00  0.00    -0.118 A  
HETATM   15  C   UNL     1      -8.756   6.592  65.190  1.00  0.00     0.105 A  
HETATM   16  C   UNL     1      -8.881   6.167  66.524  1.00  0.00    -0.134 A  
HETATM   17  C   UNL     1      -8.629   8.495  67.194  1.00  0.00    -0.123 A  
HETATM   18  C   UNL     1      -8.338   7.896  64.892  1.00  0.00    -0.087 A  
HETATM   19  C   UNL     1      -8.963   7.175  67.497  1.00  0.00    -0.121 A  
BRANCH  16  20
HETATM   20  C   UNL     1      -8.774   4.732  66.922  1.00  0.00    -0.107 A  
HETATM   21  C   UNL     1      -9.601   4.240  67.960  1.00  0.00    -0.204 A  
HETATM   22  C   UNL     1      -7.803   3.831  66.389  1.00  0.00    -0.089 A  
HETATM   23  C   UNL     1      -9.499   2.931  68.443  1.00  0.00    -0.207 A  
HETATM   24  C   UNL     1      -7.764   2.496  66.850  1.00  0.00    -0.071 A  
HETATM   25  C   UNL     1      -8.595   2.051  67.873  1.00  0.00    -0.106 A  
BRANCH  22  26
HETATM   26  C   UNL     1      -6.760   4.176  65.412  1.00  0.00    -0.052 A  
HETATM   27  N   UNL     1      -5.954   5.223  65.449  1.00  0.00    -0.025 NA 
HETATM   28  H   UNL     1      -5.928   5.946  66.168  1.00  0.00     0.000 HD 
HETATM   29  N   UNL     1      -5.159   5.150  64.332  1.00  0.00    -0.009 NA 
HETATM   30  N   UNL     1      -5.473   4.096  63.596  1.00  0.00    -0.012 NA 
HETATM   31  N   UNL     1      -6.496   3.517  64.240  1.00  0.00    -0.033 NA 
ENDBRANCH  22  26
ENDBRANCH  16  20
ENDBRANCH  13  14
ENDBRANCH   9  13
BRANCH   8  32
HETATM   32  C   UNL     1      -6.623  11.186  68.925  1.00  0.00    -0.065 C  
HETATM   33  O   UNL     1      -5.627  10.791  68.342  1.00  0.00    -0.044 OA 
BRANCH  32  34
HETATM   34  O   UNL     1      -6.921  10.902  70.219  1.00  0.00    -0.213 OA 
BRANCH  34  35
HETATM   35  C   UNL     1      -7.683   9.694  70.354  1.00  0.00    -0.160 C  
HETATM   36  C   UNL     1      -6.675   8.553  70.204  1.00  0.00    -0.039 C  
BRANCH  35  37
HETATM   37  O   UNL     1      -8.236   9.528  71.660  1.00  0.00    -0.133 OA 
BRANCH  37  38
HETATM   38  C   UNL     1      -8.778   8.319  71.925  1.00  0.00    -0.171 C  
HETATM   39  O   UNL     1      -8.379   7.511  72.746  1.00  0.00    -0.107 OA 
BRANCH  38  40
HETATM   40  O   UNL     1      -9.855   8.196  71.127  1.00  0.00    -0.164 OA 
BRANCH  40  41
HETATM   41  C   UNL     1     -11.071   7.507  71.499  1.00  0.00    -0.236 C  
HETATM   42  C   UNL     1     -10.701   4.915  72.916  1.00  0.00    -0.297 C  
HETATM   43  C   UNL     1     -11.056   6.160  70.772  1.00  0.00    -0.375 C  
HETATM   44  C   UNL     1     -10.190   5.137  71.499  1.00  0.00    -0.274 C  
HETATM   45  C   UNL     1     -10.758   6.209  73.723  1.00  0.00    -0.188 C  
HETATM   46  C   UNL     1     -11.431   7.369  72.982  1.00  0.00    -0.210 C  
ENDBRANCH  40  41
ENDBRANCH  38  40
ENDBRANCH  37  38
ENDBRANCH  35  37
ENDBRANCH  34  35
ENDBRANCH  32  34
ENDBRANCH   8  32
ENDBRANCH   3   4
ENDBRANCH   2   3
TORSDOF 13
ENDMDL
MODEL      293
REMARK 921   NORMALIZED FREE ENERGY PREDICTED BY IDOCK:   -1.75 KCAL/MOL
REMARK 922        TOTAL FREE ENERGY PREDICTED BY IDOCK:   -5.54 KCAL/MOL
REMARK 923 INTER-LIGAND FREE ENERGY PREDICTED BY IDOCK:   -4.25 KCAL/MOL
REMARK 924 INTRA-LIGAND FREE ENERGY PREDICTED BY IDOCK:   -1.29 KCAL/MOL
REMARK 927      BINDING AFFINITY PREDICTED BY RF-SCORE:    0.00 PKD
ROOT
HETATM    1  C   UNL     1     -11.164  15.333  70.982  1.00  0.00    -0.378 C  
HETATM    2  C   UNL     1     -10.639  14.412  69.895  1.00  0.00     0.165 C  
ENDROOT
BRANCH   2   3
HETATM    3  O   UNL     1      -9.224  14.603  69.805  1.00  0.00     0.209 OA 
BRANCH   3   4
HETATM    4  C   UNL     1      -8.551  13.570  69.305  1.00  0.00     0.720 A  
HETATM    5  N   UNL     1      -7.626  12.900  69.952  1.00  0.00     1.206 NA 
HETATM    6  C   UNL     1      -7.205  11.945  69.073  1.00  0.00    -0.068 A  
HETATM    7  C   UNL     1      -7.935  11.972  67.868  1.00  0.00    -0.147 A  
HETATM    8  C   UNL     1      -7.710  10.972  66.890  1.00  0.00    -0.140 A  
HETATM    9  N   UNL     1      -8.717  13.111  68.016  1.00  0.00    -0.182 NA 
HETATM   10  C   UNL     1      -5.902  10.070  68.293  1.00  0.00    -0.042 A  
HETATM   11  C   UNL     1      -6.169  11.017  69.273  1.00  0.00    -0.059 A  
HETATM   12  C   UNL     1      -6.681  10.035  67.143  1.00  0.00    -0.074 A  
BRANCH   9  13
HETATM   13  C   UNL     1      -9.452  13.885  67.015  1.00  0.00    -0.254 C  
BRANCH  13  14
HETATM   14  C   UNL     1      -8.834  15.231  66.733  1.00  0.00    -0.302 A  
HETATM   15  C   UNL     1      -8.948  17.647  66.674  1.00  0.00    -0.283 A  
HETATM   16  C   UNL     1      -7.563  17.739  66.891  1.00  0.00    -0.238 A  
HETATM   17  C   UNL     1      -7.449  15.325  66.591  1.00  0.00     0.437 A  
HETATM   18  C   UNL     1      -9.588  16.401  66.659  1.00  0.00    -0.273 A  
HETATM   19  C   UNL     1      -6.819  16.565  66.691  1.00  0.00    -0.161 A  
BRANCH  16  20
HETATM   20  C   UNL     1      -6.918  18.961  67.455  1.00  0.00    -0.214 A  
HETATM   21  C   UNL     1      -6.981  19.194  68.851  1.00  0.00    -0.371 A  
HETATM   22  C   UNL     1      -6.321  19.984  66.657  1.00  0.00    -0.213 A  
HETATM   23  C   UNL     1      -6.473  20.356  69.441  1.00  0.00    -0.220 A  
HETATM   24  C   UNL     1      -5.758  21.118  67.285  1.00  0.00    -0.365 A  
HETATM   25  C   UNL     1      -5.841  21.310  68.661  1.00  0.00    -0.154 A  
BRANCH  22  26
HETATM   26  C   UNL     1      -6.278  20.008  65.189  1.00  0.00    -0.256 A  
HETATM   27  N   UNL     1      -7.062  20.706  64.384  1.00  0.00    -0.297 NA 
HETATM   28  H   UNL     1      -7.809  21.342  64.663  1.00  0.00     0.000 HD 
HETATM   29  N   UNL     1      -6.675  20.409  63.100  1.00  0.00     0.193 NA 
HETATM   30  N   UNL     1      -5.689  19.527  63.095  1.00  0.00    -0.373 NA 
HETATM   31  N   UNL     1      -5.473  19.242  64.387  1.00  0.00    -0.222 NA 
ENDBRANCH  22  26
ENDBRANCH  16  20
ENDBRANCH  13  14
ENDBRANCH   9  13
BRANCH   8  32
HETATM   32  C   UNL     1      -8.363  10.921  65.560  1.00  0.00    -0.079 C  
HETATM   33  O   UNL     1      -9.116  11.788  65.151  1.00  0.00    -0.017 OA 
BRANCH  32  34
HETATM   34  O   UNL     1      -7.843   9.928  64.794  1.00  0.00    -0.129 OA 
BRANCH  34  35
HETATM   35  C   UNL     1      -8.807   8.910  64.487  1.00  0.00    -0.026 C  
HETATM   36  C   UNL     1      -8.525   8.498  63.041  1.00  0.00    -0.076 C  
BRANCH  35  37
HETATM   37  O   UNL     1      -8.621   7.719  65.252  1.00  0.00    -0.130 OA 
BRANCH  37  38
HETATM   38  C   UNL     1      -9.412   7.583  66.339  1.00  0.00    -0.147 C  
HETATM   39  O   UNL     1     -10.585   7.254  66.344  1.00  0.00    -0.026 OA 
BRANCH  38  40
HETATM   40  O   UNL     1      -8.643   7.855  67.411  1.00  0.00    -0.124 OA 
BRANCH  40  41
HETATM   41  C   UNL     1      -8.245   6.876  68.398  1.00  0.00    -0.120 C  
HETATM   42  C   UNL     1     -10.469   5.491  69.811  1.00  0.00    -0.389 C  
HETATM   43  C   UNL     1      -8.796   7.354  69.743  1.00  0.00    -0.141 C  
HETATM   44  C   UNL     1     -10.270   6.997  69.906  1.00  0.00    -0.213 C  
HETATM   45  C   UNL     1      -9.942   4.917  68.499  1.00  0.00    -0.185 C  
HETATM   46  C   UNL     1      -8.531   5.392  68.140  1.00  0.00    -0.097 C  
ENDBRANCH  40  41
ENDBRANCH  38  40
ENDBRANCH  37  38
ENDBRANCH  35  37
ENDBRANCH  34  35
ENDBRANCH  32  34
ENDBRANCH   8  32
ENDBRANCH   3   4
ENDBRANCH   2   3
TORSDOF 13
ENDMDL
MODEL      294
REMARK 921   NORMALIZED FREE ENERGY PREDICTED BY IDOCK:   -1.74 KCAL/MOL
REMARK 922        TOTAL FREE ENERGY PREDICTED BY IDOCK:   -5.51 KCAL/MOL
REMARK 923 INTER-LIGAND FREE ENERGY PREDICTED BY IDOCK:   -5.51 KCAL/MOL
REMARK 924 INTRA-LIGAND FREE ENERGY PREDICTED BY IDOCK:    0.01 KCAL/MOL
REMARK 927      BINDING AFFINITY PREDICTED BY RF-SCORE:    0.00 PKD
ROOT
HETATM    1  C   UNL     1     -11.203  12.300  66.715  1.00  0.00    -0.371 C  
HETATM    2  C   UNL     1     -11.138  10.941  67.389  1.00  0.00    -0.307 C  
ENDROOT
BRANCH   2   3
HETATM    3  O   UNL     1      -9.960  10.277  66.919  1.00  0.00    -0.191 OA 
BRANCH   3   4
HETATM    4  C   UNL     1      -8.927  10.315  67.757  1.00  0.00    -0.134 A  
HETATM    5  N   UNL     1      -8.169  11.368  67.958  1.00  0.00    -0.133 NA 
HETATM    6  C   UNL     1      -7.243  10.964  68.875  1.00  0.00    -0.095 A  
HETATM    7  C   UNL     1      -7.469   9.643  69.313  1.00  0.00    -0.085 A  
HETATM    8  C   UNL     1      -6.673   9.105  70.354  1.00  0.00    -0.058 A  
HETATM    9  N   UNL     1      -8.498   9.222  68.480  1.00  0.00    -0.122 NA 
HETATM   10  C   UNL     1      -5.340  11.172  70.343  1.00  0.00    -0.104 A  
HETATM   11  C   UNL     1      -6.162  11.716  69.365  1.00  0.00    -0.100 A  
HETATM   12  C   UNL     1      -5.615   9.905  70.844  1.00  0.00    -0.078 A  
BRANCH   9  13
HETATM   13  C   UNL     1      -8.980   7.872  68.189  1.00  0.00    -0.131 C  
BRANCH  13  14
HETATM   14  C   UNL     1      -8.165   7.163  67.137  1.00  0.00    -0.118 A  
HETATM   15  C   UNL     1      -6.341   5.712  66.487  1.00  0.00    -0.039 A  
HETATM   16  C   UNL     1      -7.047   5.302  65.343  1.00  0.00    -0.066 A  
HETATM   17  C   UNL     1      -8.689   7.027  65.850  1.00  0.00    -0.140 A  
HETATM   18  C   UNL     1      -6.925   6.589  67.411  1.00  0.00    -0.078 A  
HETATM   19  C   UNL     1      -8.147   6.090  64.971  1.00  0.00    -0.133 A  
BRANCH  16  20
HETATM   20  C   UNL     1      -6.759   4.016  64.640  1.00  0.00    -0.044 A  
HETATM   21  C   UNL     1      -6.891   3.954  63.232  1.00  0.00    -0.043 A  
HETATM   22  C   UNL     1      -6.455   2.795  65.314  1.00  0.00    -0.031 A  
HETATM   23  C   UNL     1      -6.720   2.766  62.514  1.00  0.00    -0.026 A  
HETATM   24  C   UNL     1      -6.223   1.622  64.559  1.00  0.00    -0.018 A  
HETATM   25  C   UNL     1      -6.364   1.603  63.176  1.00  0.00    -0.013 A  
BRANCH  22  26
HETATM   26  C   UNL     1      -6.411   2.608  66.771  1.00  0.00    -0.035 A  
HETATM   27  N   UNL     1      -7.401   2.204  67.549  1.00  0.00    -0.055 NA 
HETATM   28  H   UNL     1      -8.343   1.950  67.252  1.00  0.00     0.000 HD 
HETATM   29  N   UNL     1      -6.915   2.192  68.833  1.00  0.00    -0.039 NA 
HETATM   30  N   UNL     1      -5.657   2.602  68.867  1.00  0.00    -0.021 NA 
HETATM   31  N   UNL     1      -5.358   2.905  67.596  1.00  0.00    -0.012 NA 
ENDBRANCH  22  26
ENDBRANCH  16  20
ENDBRANCH  13  14
ENDBRANCH   9  13
BRANCH   8  32
HETATM   32  C   UNL     1      -6.765   7.716  70.864  1.00  0.00    -0.042 C  
HETATM   33  O   UNL     1      -5.790   7.015  71.073  1.00  0.00    -0.031 OA 
BRANCH  32  34
HETATM   34  O   UNL     1      -8.026   7.424  71.273  1.00  0.00    -0.094 OA 
BRANCH  34  35
HETATM   35  C   UNL     1      -8.117   6.130  71.889  1.00  0.00    -0.107 C  
HETATM   36  C   UNL     1      -8.127   6.392  73.396  1.00  0.00    -0.109 C  
BRANCH  35  37
HETATM   37  O   UNL     1      -9.356   5.472  71.621  1.00  0.00    -0.145 OA 
BRANCH  37  38
HETATM   38  C   UNL     1      -9.742   5.440  70.326  1.00  0.00    -0.192 C  
HETATM   39  O   UNL     1      -9.010   5.370  69.354  1.00  0.00    -0.103 OA 
BRANCH  38  40
HETATM   40  O   UNL     1     -11.088   5.472  70.325  1.00  0.00    -0.231 OA 
BRANCH  40  41
HETATM   41  C   UNL     1     -11.874   6.681  70.435  1.00  0.00    -0.346 C  
HETATM   42  C   UNL     1     -11.039   8.572  72.576  1.00  0.00    -0.328 C  
HETATM   43  C   UNL     1     -12.499   6.678  71.832  1.00  0.00    -0.334 C  
HETATM   44  C   UNL     1     -11.512   7.160  72.890  1.00  0.00    -0.190 C  
HETATM   45  C   UNL     1     -10.403   8.679  71.193  1.00  0.00    -0.294 C  
HETATM   46  C   UNL     1     -11.232   8.028  70.082  1.00  0.00    -0.145 C  
ENDBRANCH  40  41
ENDBRANCH  38  40
ENDBRANCH  37  38
ENDBRANCH  35  37
ENDBRANCH  34  35
ENDBRANCH  32  34
ENDBRANCH   8  32
ENDBRANCH   3   4
ENDBRANCH   2   3
TORSDOF 13
ENDMDL
MODEL      295
REMARK 921   NORMALIZED FREE ENERGY PREDICTED BY IDOCK:   -1.61 KCAL/MOL
REMARK 922        TOTAL FREE ENERGY PREDICTED BY IDOCK:   -5.29 KCAL/MOL
REMARK 923 INTER-LIGAND FREE ENERGY PREDICTED BY IDOCK:   -4.43 KCAL/MOL
REMARK 924 INTRA-LIGAND FREE ENERGY PREDICTED BY IDOCK:   -0.85 KCAL/MOL
REMARK 927      BINDING AFFINITY PREDICTED BY RF-SCORE:    0.00 PKD
ROOT
HETATM    1  C   UNL     1     -10.607  10.067  65.563  1.00  0.00     0.161 C  
HETATM    2  C   UNL     1     -10.132  10.351  64.149  1.00  0.00    -0.191 C  
ENDROOT
BRANCH   2   3
HETATM    3  O   UNL     1      -8.772  10.791  64.225  1.00  0.00    -0.161 OA 
BRANCH   3   4
HETATM    4  C   UNL     1      -8.462  11.457  65.334  1.00  0.00     0.224 A  
HETATM    5  N   UNL     1      -8.837  12.688  65.593  1.00  0.00     0.525 NA 
HETATM    6  C   UNL     1      -8.299  12.969  66.815  1.00  0.00     0.061 A  
HETATM    7  C   UNL     1      -7.627  11.861  67.368  1.00  0.00    -0.151 A  
HETATM    8  C   UNL     1      -7.111  11.940  68.685  1.00  0.00    -0.102 A  
HETATM    9  N   UNL     1      -7.658  10.941  66.328  1.00  0.00    -0.145 NA 
HETATM   10  C   UNL     1      -7.803  14.299  68.766  1.00  0.00    -0.128 A  
HETATM   11  C   UNL     1      -8.360  14.196  67.498  1.00  0.00    -0.194 A  
HETATM   12  C   UNL     1      -7.222  13.182  69.353  1.00  0.00     0.247 A  
BRANCH   9  13
HETATM   13  C   UNL     1      -6.871   9.724  66.123  1.00  0.00    -0.090 C  
BRANCH  13  14
HETATM   14  C   UNL     1      -7.680   8.461  66.280  1.00  0.00    -0.094 A  
HETATM   15  C   UNL     1      -8.556   6.381  65.407  1.00  0.00    -0.088 A  
HETATM   16  C   UNL     1      -8.568   5.820  66.696  1.00  0.00    -0.118 A  
HETATM   17  C   UNL     1      -8.026   8.031  67.562  1.00  0.00    -0.122 A  
HETATM   18  C   UNL     1      -8.055   7.672  65.194  1.00  0.00    -0.134 A  
HETATM   19  C   UNL     1      -8.444   6.717  67.769  1.00  0.00    -0.122 A  
BRANCH  16  20
HETATM   20  C   UNL     1      -8.550   4.346  66.931  1.00  0.00    -0.104 A  
HETATM   21  C   UNL     1      -8.182   3.482  65.871  1.00  0.00    -0.097 A  
HETATM   22  C   UNL     1      -8.988   3.731  68.142  1.00  0.00    -0.165 A  
HETATM   23  C   UNL     1      -8.222   2.089  65.991  1.00  0.00    -0.089 A  
HETATM   24  C   UNL     1      -8.958   2.323  68.259  1.00  0.00    -0.186 A  
HETATM   25  C   UNL     1      -8.590   1.508  67.193  1.00  0.00    -0.108 A  
BRANCH  22  26
HETATM   26  C   UNL     1      -9.543   4.434  69.307  1.00  0.00    -0.191 A  
HETATM   27  N   UNL     1      -9.045   4.454  70.532  1.00  0.00    -0.105 NA 
HETATM   28  H   UNL     1      -8.193   3.992  70.851  1.00  0.00     0.000 HD 
HETATM   29  N   UNL     1      -9.896   5.218  71.293  1.00  0.00    -0.165 NA 
HETATM   30  N   UNL     1     -10.919   5.647  70.571  1.00  0.00    -0.246 NA 
HETATM   31  N   UNL     1     -10.726   5.124  69.352  1.00  0.00    -0.056 NA 
ENDBRANCH  22  26
ENDBRANCH  16  20
ENDBRANCH  13  14
ENDBRANCH   9  13
BRANCH   8  32
HETATM   32  C   UNL     1      -6.334  10.874  69.360  1.00  0.00    -0.070 C  
HETATM   33  O   UNL     1      -5.226  10.520  68.992  1.00  0.00    -0.042 OA 
BRANCH  32  34
HETATM   34  O   UNL     1      -6.903  10.520  70.541  1.00  0.00    -0.312 OA 
BRANCH  34  35
HETATM   35  C   UNL     1      -7.946   9.548  70.378  1.00  0.00    -0.178 C  
HETATM   36  C   UNL     1      -8.482   9.278  71.785  1.00  0.00     0.448 C  
BRANCH  35  37
HETATM   37  O   UNL     1      -9.066  10.051  69.647  1.00  0.00    -0.206 OA 
BRANCH  37  38
HETATM   38  C   UNL     1     -10.273   9.902  70.236  1.00  0.00    -0.264 C  
HETATM   39  O   UNL     1     -10.769   8.855  70.615  1.00  0.00    -0.212 OA 
BRANCH  38  40
HETATM   40  O   UNL     1     -10.804  11.134  70.343  1.00  0.00     0.141 OA 
BRANCH  40  41
HETATM   41  C   UNL     1     -11.940  11.601  69.579  1.00  0.00    -0.317 C  
HETATM   42  C   UNL     1     -12.596  14.489  69.878  1.00  0.00    -0.226 C  
HETATM   43  C   UNL     1     -12.970  12.116  70.587  1.00  0.00     0.121 C  
HETATM   44  C   UNL     1     -12.638  13.528  71.058  1.00  0.00    -0.438 C  
HETATM   45  C   UNL     1     -11.596  14.054  68.810  1.00  0.00    -0.366 C  
HETATM   46  C   UNL     1     -11.714  12.578  68.420  1.00  0.00    -0.375 C  
ENDBRANCH  40  41
ENDBRANCH  38  40
ENDBRANCH  37  38
ENDBRANCH  35  37
ENDBRANCH  34  35
ENDBRANCH  32  34
ENDBRANCH   8  32
ENDBRANCH   3   4
ENDBRANCH   2   3
TORSDOF 13
ENDMDL
MODEL      296
REMARK 921   NORMALIZED FREE ENERGY PREDICTED BY IDOCK:   -1.56 KCAL/MOL
REMARK 922        TOTAL FREE ENERGY PREDICTED BY IDOCK:   -5.20 KCAL/MOL
REMARK 923 INTER-LIGAND FREE ENERGY PREDICTED BY IDOCK:   -5.46 KCAL/MOL
REMARK 924 INTRA-LIGAND FREE ENERGY PREDICTED BY IDOCK:    0.26 KCAL/MOL
REMARK 927      BINDING AFFINITY PREDICTED BY RF-SCORE:    0.00 PKD
ROOT
HETATM    1  C   UNL     1     -14.131  15.504  71.842  1.00  0.00    -0.586 C  
HETATM    2  C   UNL     1     -12.907  16.045  72.560  1.00  0.00    -0.406 C  
ENDROOT
BRANCH   2   3
HETATM    3  O   UNL     1     -11.854  15.086  72.413  1.00  0.00    -0.370 OA 
BRANCH   3   4
HETATM    4  C   UNL     1     -12.245  13.889  71.985  1.00  0.00     0.135 A  
HETATM    5  N   UNL     1     -13.164  13.153  72.566  1.00  0.00    -0.423 NA 
HETATM    6  C   UNL     1     -13.239  12.022  71.807  1.00  0.00    -0.317 A  
HETATM    7  C   UNL     1     -12.396  12.080  70.680  1.00  0.00    -0.304 A  
HETATM    8  C   UNL     1     -12.438  11.040  69.719  1.00  0.00    -0.251 A  
HETATM    9  N   UNL     1     -11.686  13.255  70.896  1.00  0.00     0.201 NA 
HETATM   10  C   UNL     1     -14.035   9.840  71.154  1.00  0.00     0.082 A  
HETATM   11  C   UNL     1     -14.033  10.891  72.062  1.00  0.00     0.434 A  
HETATM   12  C   UNL     1     -13.275   9.934  69.994  1.00  0.00     0.686 A  
BRANCH   9  13
HETATM   13  C   UNL     1     -10.446  13.731  70.283  1.00  0.00     1.431 C  
BRANCH  13  14
HETATM   14  C   UNL     1     -10.672  14.770  69.214  1.00  0.00    -0.263 A  
HETATM   15  C   UNL     1     -11.461  16.943  68.499  1.00  0.00     0.178 A  
HETATM   16  C   UNL     1     -10.504  16.976  67.471  1.00  0.00    -0.334 A  
HETATM   17  C   UNL     1      -9.987  14.656  68.003  1.00  0.00    -0.220 A  
HETATM   18  C   UNL     1     -11.501  15.874  69.404  1.00  0.00    -0.351 A  
HETATM   19  C   UNL     1      -9.887  15.756  67.152  1.00  0.00    -0.227 A  
BRANCH  16  20
HETATM   20  C   UNL     1     -10.039  18.251  66.848  1.00  0.00    -0.377 A  
HETATM   21  C   UNL     1     -10.896  18.936  65.953  1.00  0.00    -0.229 A  
HETATM   22  C   UNL     1      -8.724  18.781  67.016  1.00  0.00    -0.291 A  
HETATM   23  C   UNL     1     -10.498  20.088  65.268  1.00  0.00     0.047 A  
HETATM   24  C   UNL     1      -8.370  19.983  66.362  1.00  0.00    -0.338 A  
HETATM   25  C   UNL     1      -9.241  20.626  65.489  1.00  0.00     0.701 A  
BRANCH  22  26
HETATM   26  C   UNL     1      -7.639  18.154  67.782  1.00  0.00    -0.222 A  
HETATM   27  N   UNL     1      -7.746  17.527  68.941  1.00  0.00    -0.245 NA 
HETATM   28  H   UNL     1      -8.603  17.375  69.474  1.00  0.00     0.000 HD 
HETATM   29  N   UNL     1      -6.482  17.119  69.290  1.00  0.00    -0.226 NA 
HETATM   30  N   UNL     1      -5.596  17.502  68.384  1.00  0.00    -0.149 NA 
HETATM   31  N   UNL     1      -6.304  18.183  67.473  1.00  0.00    -0.174 NA 
ENDBRANCH  22  26
ENDBRANCH  16  20
ENDBRANCH  13  14
ENDBRANCH   9  13
BRANCH   8  32
HETATM   32  C   UNL     1     -11.564  10.948  68.525  1.00  0.00    -0.290 C  
HETATM   33  O   UNL     1     -11.870  11.405  67.436  1.00  0.00    -0.609 OA 
BRANCH  32  34
HETATM   34  O   UNL     1     -10.323  10.509  68.855  1.00  0.00    -0.185 OA 
BRANCH  34  35
HETATM   35  C   UNL     1      -9.667   9.846  67.764  1.00  0.00    -0.150 C  
HETATM   36  C   UNL     1      -9.528  10.901  66.665  1.00  0.00    -0.204 C  
BRANCH  35  37
HETATM   37  O   UNL     1      -8.328   9.457  68.073  1.00  0.00    -0.118 OA 
BRANCH  37  38
HETATM   38  C   UNL     1      -8.169   8.199  68.540  1.00  0.00    -0.125 C  
HETATM   39  O   UNL     1      -7.475   7.327  68.047  1.00  0.00    -0.097 OA 
BRANCH  38  40
HETATM   40  O   UNL     1      -8.903   8.110  69.665  1.00  0.00    -0.140 OA 
BRANCH  40  41
HETATM   41  C   UNL     1      -8.697   7.116  70.695  1.00  0.00    -0.148 C  
HETATM   42  C   UNL     1     -11.007   5.318  71.231  1.00  0.00    -0.059 C  
HETATM   43  C   UNL     1      -9.727   7.396  71.792  1.00  0.00    -0.172 C  
HETATM   44  C   UNL     1     -11.095   6.824  71.438  1.00  0.00    -0.293 C  
HETATM   45  C   UNL     1      -9.996   4.937  70.155  1.00  0.00    -0.325 C  
HETATM   46  C   UNL     1      -8.641   5.635  70.307  1.00  0.00    -0.131 C  
ENDBRANCH  40  41
ENDBRANCH  38  40
ENDBRANCH  37  38
ENDBRANCH  35  37
ENDBRANCH  34  35
ENDBRANCH  32  34
ENDBRANCH   8  32
ENDBRANCH   3   4
ENDBRANCH   2   3
TORSDOF 13
ENDMDL
MODEL      297
REMARK 921   NORMALIZED FREE ENERGY PREDICTED BY IDOCK:   -1.49 KCAL/MOL
REMARK 922        TOTAL FREE ENERGY PREDICTED BY IDOCK:   -5.08 KCAL/MOL
REMARK 923 INTER-LIGAND FREE ENERGY PREDICTED BY IDOCK:   -6.00 KCAL/MOL
REMARK 924 INTRA-LIGAND FREE ENERGY PREDICTED BY IDOCK:    0.91 KCAL/MOL
REMARK 927      BINDING AFFINITY PREDICTED BY RF-SCORE:    0.00 PKD
ROOT
HETATM    1  C   UNL     1      -5.205   9.201  71.953  1.00  0.00    -0.055 C  
HETATM    2  C   UNL     1      -5.168   8.628  70.548  1.00  0.00    -0.021 C  
ENDROOT
BRANCH   2   3
HETATM    3  O   UNL     1      -6.160   9.308  69.772  1.00  0.00    -0.037 OA 
BRANCH   3   4
HETATM    4  C   UNL     1      -6.170  10.631  69.914  1.00  0.00    -0.098 A  
HETATM    5  N   UNL     1      -5.832  11.264  71.014  1.00  0.00    -0.363 NA 
HETATM    6  C   UNL     1      -5.994  12.587  70.720  1.00  0.00     0.127 A  
HETATM    7  C   UNL     1      -6.377  12.792  69.380  1.00  0.00    -0.110 A  
HETATM    8  C   UNL     1      -6.472  14.111  68.872  1.00  0.00    -0.094 A  
HETATM    9  N   UNL     1      -6.590  11.496  68.927  1.00  0.00    -0.066 NA 
HETATM   10  C   UNL     1      -5.977  14.965  71.125  1.00  0.00     0.109 A  
HETATM   11  C   UNL     1      -5.826  13.669  71.600  1.00  0.00     0.040 A  
HETATM   12  C   UNL     1      -6.263  15.174  69.781  1.00  0.00    -0.147 A  
BRANCH   9  13
HETATM   13  C   UNL     1      -7.302  11.018  67.741  1.00  0.00    -0.093 C  
BRANCH  13  14
HETATM   14  C   UNL     1      -8.597  10.317  68.067  1.00  0.00    -0.118 A  
HETATM   15  C   UNL     1      -9.901   8.301  68.365  1.00  0.00    -0.187 A  
HETATM   16  C   UNL     1     -10.723   8.946  69.305  1.00  0.00    -0.177 A  
HETATM   17  C   UNL     1      -9.610  11.029  68.711  1.00  0.00    -0.194 A  
HETATM   18  C   UNL     1      -8.805   8.966  67.799  1.00  0.00    -0.136 A  
HETATM   19  C   UNL     1     -10.650  10.348  69.342  1.00  0.00    -0.267 A  
BRANCH  16  20
HETATM   20  C   UNL     1     -11.517   8.198  70.325  1.00  0.00    -0.066 A  
HETATM   21  C   UNL     1     -12.700   8.780  70.841  1.00  0.00     0.053 A  
HETATM   22  C   UNL     1     -11.100   6.961  70.903  1.00  0.00    -0.313 A  
HETATM   23  C   UNL     1     -13.450   8.178  71.857  1.00  0.00    -0.354 A  
HETATM   24  C   UNL     1     -11.910   6.342  71.882  1.00  0.00    -0.380 A  
HETATM   25  C   UNL     1     -13.067   6.947  72.364  1.00  0.00     0.266 A  
BRANCH  22  26
HETATM   26  C   UNL     1      -9.840   6.263  70.615  1.00  0.00    -0.184 A  
HETATM   27  N   UNL     1      -9.655   5.286  69.744  1.00  0.00    -0.154 NA 
HETATM   28  H   UNL     1     -10.360   4.876  69.132  1.00  0.00     0.000 HD 
HETATM   29  N   UNL     1      -8.331   4.930  69.823  1.00  0.00    -0.076 NA 
HETATM   30  N   UNL     1      -7.702   5.648  70.739  1.00  0.00    -0.090 NA 
HETATM   31  N   UNL     1      -8.646   6.443  71.264  1.00  0.00    -0.127 NA 
ENDBRANCH  22  26
ENDBRANCH  16  20
ENDBRANCH  13  14
ENDBRANCH   9  13
BRANCH   8  32
HETATM   32  C   UNL     1      -6.921  14.466  67.505  1.00  0.00    -0.159 C  
HETATM   33  O   UNL     1      -7.012  13.655  66.600  1.00  0.00     0.658 OA 
BRANCH  32  34
HETATM   34  O   UNL     1      -7.421  15.727  67.462  1.00  0.00    -0.139 OA 
BRANCH  34  35
HETATM   35  C   UNL     1      -8.575  15.832  66.616  1.00  0.00    -0.287 C  
HETATM   36  C   UNL     1      -9.170  14.424  66.554  1.00  0.00    -0.269 C  
BRANCH  35  37
HETATM   37  O   UNL     1      -9.607  16.643  67.179  1.00  0.00    -0.234 OA 
BRANCH  37  38
HETATM   38  C   UNL     1      -9.487  16.926  68.495  1.00  0.00    -0.266 C  
HETATM   39  O   UNL     1      -8.568  17.525  69.025  1.00  0.00    -0.175 OA 
BRANCH  38  40
HETATM   40  O   UNL     1     -10.590  16.441  69.095  1.00  0.00    -0.265 OA 
BRANCH  40  41
HETATM   41  C   UNL     1     -10.574  15.493  70.186  1.00  0.00    -0.320 C  
HETATM   42  C   UNL     1     -13.231  14.455  71.034  1.00  0.00    -0.395 C  
HETATM   43  C   UNL     1     -11.381  16.117  71.327  1.00  0.00    -0.347 C  
HETATM   44  C   UNL     1     -12.880  15.934  71.121  1.00  0.00    -0.281 C  
HETATM   45  C   UNL     1     -12.468  13.741  69.923  1.00  0.00    -0.259 C  
HETATM   46  C   UNL     1     -10.964  14.035  69.920  1.00  0.00     0.055 C  
ENDBRANCH  40  41
ENDBRANCH  38  40
ENDBRANCH  37  38
ENDBRANCH  35  37
ENDBRANCH  34  35
ENDBRANCH  32  34
ENDBRANCH   8  32
ENDBRANCH   3   4
ENDBRANCH   2   3
TORSDOF 13
ENDMDL
MODEL      298
REMARK 921   NORMALIZED FREE ENERGY PREDICTED BY IDOCK:   -1.44 KCAL/MOL
REMARK 922        TOTAL FREE ENERGY PREDICTED BY IDOCK:   -4.99 KCAL/MOL
REMARK 923 INTER-LIGAND FREE ENERGY PREDICTED BY IDOCK:   -7.58 KCAL/MOL
REMARK 924 INTRA-LIGAND FREE ENERGY PREDICTED BY IDOCK:    2.59 KCAL/MOL
REMARK 927      BINDING AFFINITY PREDICTED BY RF-SCORE:    0.00 PKD
ROOT
HETATM    1  C   UNL     1     -11.380   7.690  71.204  1.00  0.00    -0.286 C  
HETATM    2  C   UNL     1     -10.800   6.912  70.037  1.00  0.00    -0.262 C  
ENDROOT
BRANCH   2   3
HETATM    3  O   UNL     1     -10.228   7.854  69.124  1.00  0.00    -0.206 OA 
BRANCH   3   4
HETATM    4  C   UNL     1     -10.626   9.112  69.298  1.00  0.00    -0.216 A  
HETATM    5  N   UNL     1     -11.637   9.476  70.052  1.00  0.00    -0.120 NA 
HETATM    6  C   UNL     1     -11.690  10.834  69.936  1.00  0.00    -0.333 A  
HETATM    7  C   UNL     1     -10.641  11.342  69.143  1.00  0.00    -0.187 A  
HETATM    8  C   UNL     1     -10.475  12.743  69.015  1.00  0.00    -0.019 A  
HETATM    9  N   UNL     1     -10.045  10.185  68.657  1.00  0.00    -0.165 NA 
HETATM   10  C   UNL     1     -12.528  13.062  70.332  1.00  0.00    -0.266 A  
HETATM   11  C   UNL     1     -12.650  11.689  70.503  1.00  0.00    -0.264 A  
HETATM   12  C   UNL     1     -11.443  13.571  69.629  1.00  0.00    -0.283 A  
BRANCH   9  13
HETATM   13  C   UNL     1      -9.119  10.002  67.539  1.00  0.00    -0.134 C  
BRANCH  13  14
HETATM   14  C   UNL     1      -8.027   9.003  67.829  1.00  0.00    -0.101 A  
HETATM   15  C   UNL     1      -6.122   8.258  69.122  1.00  0.00    -0.039 A  
HETATM   16  C   UNL     1      -6.438   6.915  68.853  1.00  0.00    -0.036 A  
HETATM   17  C   UNL     1      -8.119   7.720  67.286  1.00  0.00    -0.119 A  
HETATM   18  C   UNL     1      -6.950   9.292  68.665  1.00  0.00    -0.062 A  
HETATM   19  C   UNL     1      -7.347   6.684  67.809  1.00  0.00    -0.096 A  
BRANCH  16  20
HETATM   20  C   UNL     1      -5.970   5.791  69.718  1.00  0.00    -0.025 A  
HETATM   21  C   UNL     1      -5.551   4.582  69.112  1.00  0.00    -0.016 A  
HETATM   22  C   UNL     1      -6.015   5.817  71.144  1.00  0.00    -0.029 A  
HETATM   23  C   UNL     1      -5.179   3.459  69.858  1.00  0.00    -0.008 A  
HETATM   24  C   UNL     1      -5.572   4.691  71.875  1.00  0.00    -0.008 A  
HETATM   25  C   UNL     1      -5.168   3.520  71.242  1.00  0.00    -0.004 A  
BRANCH  22  26
HETATM   26  C   UNL     1      -6.547   6.913  71.965  1.00  0.00    -0.053 A  
HETATM   27  N   UNL     1      -5.919   7.554  72.936  1.00  0.00    -0.047 NA 
HETATM   28  H   UNL     1      -4.965   7.390  73.256  1.00  0.00     0.000 HD 
HETATM   29  N   UNL     1      -6.800   8.484  73.432  1.00  0.00    -0.268 NA 
HETATM   30  N   UNL     1      -7.964   8.413  72.804  1.00  0.00    -0.311 NA 
HETATM   31  N   UNL     1      -7.824   7.410  71.927  1.00  0.00    -0.089 NA 
ENDBRANCH  22  26
ENDBRANCH  16  20
ENDBRANCH  13  14
ENDBRANCH   9  13
BRANCH   8  32
HETATM   32  C   UNL     1      -9.455  13.405  68.167  1.00  0.00    -0.218 C  
HETATM   33  O   UNL     1      -8.271  13.116  68.196  1.00  0.00    -0.145 OA 
BRANCH  32  34
HETATM   34  O   UNL     1     -10.034  14.186  67.219  1.00  0.00    -0.243 OA 
BRANCH  34  35
HETATM   35  C   UNL     1      -9.443  15.492  67.148  1.00  0.00    -0.215 C  
HETATM   36  C   UNL     1      -9.424  16.015  68.585  1.00  0.00    -0.224 C  
BRANCH  35  37
HETATM   37  O   UNL     1      -8.072  15.460  66.749  1.00  0.00    -0.231 OA 
BRANCH  37  38
HETATM   38  C   UNL     1      -7.265  16.379  67.325  1.00  0.00    -0.175 C  
HETATM   39  O   UNL     1      -6.574  16.216  68.316  1.00  0.00    -0.117 OA 
BRANCH  38  40
HETATM   40  O   UNL     1      -7.356  17.494  66.576  1.00  0.00    -0.217 OA 
BRANCH  40  41
HETATM   41  C   UNL     1      -7.952  18.732  67.028  1.00  0.00    -0.245 C  
HETATM   42  C   UNL     1      -6.077  21.020  67.361  1.00  0.00    -0.376 C  
HETATM   43  C   UNL     1      -7.296  19.077  68.367  1.00  0.00    -0.328 C  
HETATM   44  C   UNL     1      -5.936  19.740  68.173  1.00  0.00    -0.259 C  
HETATM   45  C   UNL     1      -6.730  20.778  66.003  1.00  0.00    -0.208 C  
HETATM   46  C   UNL     1      -8.005  19.931  66.074  1.00  0.00    -0.328 C  
ENDBRANCH  40  41
ENDBRANCH  38  40
ENDBRANCH  37  38
ENDBRANCH  35  37
ENDBRANCH  34  35
ENDBRANCH  32  34
ENDBRANCH   8  32
ENDBRANCH   3   4
ENDBRANCH   2   3
TORSDOF 13
ENDMDL
MODEL      299
REMARK 921   NORMALIZED FREE ENERGY PREDICTED BY IDOCK:   -1.39 KCAL/MOL
REMARK 922        TOTAL FREE ENERGY PREDICTED BY IDOCK:   -4.90 KCAL/MOL
REMARK 923 INTER-LIGAND FREE ENERGY PREDICTED BY IDOCK:   -3.75 KCAL/MOL
REMARK 924 INTRA-LIGAND FREE ENERGY PREDICTED BY IDOCK:   -1.15 KCAL/MOL
REMARK 927      BINDING AFFINITY PREDICTED BY RF-SCORE:    0.00 PKD
ROOT
HETATM    1  C   UNL     1     -11.773  12.967  66.548  1.00  0.00    -0.437 C  
HETATM    2  C   UNL     1     -11.361  11.746  67.350  1.00  0.00    -0.311 C  
ENDROOT
BRANCH   2   3
HETATM    3  O   UNL     1     -10.143  11.245  66.790  1.00  0.00    -0.208 OA 
BRANCH   3   4
HETATM    4  C   UNL     1      -9.057  11.466  67.526  1.00  0.00    -0.157 A  
HETATM    5  N   UNL     1      -8.415  12.609  67.582  1.00  0.00    -0.161 NA 
HETATM    6  C   UNL     1      -7.377  12.387  68.439  1.00  0.00    -0.113 A  
HETATM    7  C   UNL     1      -7.410  11.090  68.989  1.00  0.00    -0.123 A  
HETATM    8  C   UNL     1      -6.474  10.731  69.991  1.00  0.00    -0.151 A  
HETATM    9  N   UNL     1      -8.446  10.490  68.284  1.00  0.00    -0.119 NA 
HETATM   10  C   UNL     1      -5.399  12.925  69.711  1.00  0.00    -0.087 A  
HETATM   11  C   UNL     1      -6.356  13.292  68.774  1.00  0.00    -0.094 A  
HETATM   12  C   UNL     1      -5.482  11.681  70.325  1.00  0.00    -0.125 A  
BRANCH   9  13
HETATM   13  C   UNL     1      -8.788   9.076  68.136  1.00  0.00    -0.133 C  
BRANCH  13  14
HETATM   14  C   UNL     1      -7.974   8.375  67.078  1.00  0.00    -0.100 A  
HETATM   15  C   UNL     1      -6.246   6.815  66.418  1.00  0.00    -0.044 A  
HETATM   16  C   UNL     1      -6.912   6.556  65.208  1.00  0.00    -0.052 A  
HETATM   17  C   UNL     1      -8.427   8.382  65.758  1.00  0.00    -0.169 A  
HETATM   18  C   UNL     1      -6.807   7.671  67.374  1.00  0.00    -0.069 A  
HETATM   19  C   UNL     1      -7.915   7.467  64.839  1.00  0.00    -0.128 A  
BRANCH  16  20
HETATM   20  C   UNL     1      -6.694   5.305  64.423  1.00  0.00    -0.047 A  
HETATM   21  C   UNL     1      -5.757   5.310  63.361  1.00  0.00    -0.014 A  
HETATM   22  C   UNL     1      -7.456   4.111  64.606  1.00  0.00    -0.072 A  
HETATM   23  C   UNL     1      -5.560   4.203  62.530  1.00  0.00    -0.009 A  
HETATM   24  C   UNL     1      -7.191   2.985  63.794  1.00  0.00    -0.053 A  
HETATM   25  C   UNL     1      -6.262   3.031  62.759  1.00  0.00    -0.014 A  
BRANCH  22  26
HETATM   26  C   UNL     1      -8.568   3.942  65.550  1.00  0.00    -0.111 A  
HETATM   27  N   UNL     1      -9.854   3.858  65.254  1.00  0.00    -0.253 NA 
HETATM   28  H   UNL     1     -10.267   3.888  64.322  1.00  0.00     0.000 HD 
HETATM   29  N   UNL     1     -10.527   3.722  66.444  1.00  0.00     0.714 NA 
HETATM   30  N   UNL     1      -9.687   3.745  67.467  1.00  0.00    -0.153 NA 
HETATM   31  N   UNL     1      -8.478   3.928  66.918  1.00  0.00    -0.103 NA 
ENDBRANCH  22  26
ENDBRANCH  16  20
ENDBRANCH  13  14
ENDBRANCH   9  13
BRANCH   8  32
HETATM   32  C   UNL     1      -6.361   9.387  70.606  1.00  0.00    -0.075 C  
HETATM   33  O   UNL     1      -5.533   8.561  70.260  1.00  0.00    -0.022 OA 
BRANCH  32  34
HETATM   34  O   UNL     1      -7.124   9.290  71.724  1.00  0.00    -0.318 OA 
BRANCH  34  35
HETATM   35  C   UNL     1      -6.401   8.745  72.837  1.00  0.00    -0.005 C  
HETATM   36  C   UNL     1      -5.958   9.948  73.671  1.00  0.00     0.693 C  
BRANCH  35  37
HETATM   37  O   UNL     1      -7.224   7.973  73.712  1.00  0.00    -0.125 OA 
BRANCH  37  38
HETATM   38  C   UNL     1      -7.575   6.746  73.268  1.00  0.00    -0.089 C  
HETATM   39  O   UNL     1      -6.944   5.715  73.419  1.00  0.00    -0.082 OA 
BRANCH  38  40
HETATM   40  O   UNL     1      -8.765   6.885  72.654  1.00  0.00    -0.121 OA 
BRANCH  40  41
HETATM   41  C   UNL     1      -9.438   5.827  71.933  1.00  0.00    -0.151 C  
HETATM   42  C   UNL     1      -7.923   4.650  69.658  1.00  0.00    -0.065 C  
HETATM   43  C   UNL     1      -9.604   6.310  70.491  1.00  0.00    -0.183 C  
HETATM   44  C   UNL     1      -8.324   6.118  69.683  1.00  0.00    -0.124 C  
HETATM   45  C   UNL     1      -7.739   4.073  71.058  1.00  0.00    -0.055 C  
HETATM   46  C   UNL     1      -8.891   4.397  72.015  1.00  0.00    -0.136 C  
ENDBRANCH  40  41
ENDBRANCH  38  40
ENDBRANCH  37  38
ENDBRANCH  35  37
ENDBRANCH  34  35
ENDBRANCH  32  34
ENDBRANCH   8  32
ENDBRANCH   3   4
ENDBRANCH   2   3
TORSDOF 13
ENDMDL
MODEL      300
REMARK 921   NORMALIZED FREE ENERGY PREDICTED BY IDOCK:   -1.23 KCAL/MOL
REMARK 922        TOTAL FREE ENERGY PREDICTED BY IDOCK:   -4.62 KCAL/MOL
REMARK 923 INTER-LIGAND FREE ENERGY PREDICTED BY IDOCK:   -4.71 KCAL/MOL
REMARK 924 INTRA-LIGAND FREE ENERGY PREDICTED BY IDOCK:    0.09 KCAL/MOL
REMARK 927      BINDING AFFINITY PREDICTED BY RF-SCORE:    0.00 PKD
ROOT
HETATM    1  C   UNL     1      -6.681  10.217  71.458  1.00  0.00     1.081 C  
HETATM    2  C   UNL     1      -7.075   9.269  72.576  1.00  0.00     0.715 C  
ENDROOT
BRANCH   2   3
HETATM    3  O   UNL     1      -7.190   7.957  72.016  1.00  0.00    -0.066 OA 
BRANCH   3   4
HETATM    4  C   UNL     1      -6.994   7.891  70.701  1.00  0.00    -0.041 A  
HETATM    5  N   UNL     1      -5.815   7.836  70.126  1.00  0.00    -0.023 NA 
HETATM    6  C   UNL     1      -6.080   7.788  68.788  1.00  0.00    -0.039 A  
HETATM    7  C   UNL     1      -7.462   7.742  68.521  1.00  0.00    -0.103 A  
HETATM    8  C   UNL     1      -7.913   7.568  67.188  1.00  0.00    -0.117 A  
HETATM    9  N   UNL     1      -8.019   7.927  69.780  1.00  0.00    -0.111 NA 
HETATM   10  C   UNL     1      -5.575   7.681  66.431  1.00  0.00    -0.028 A  
HETATM   11  C   UNL     1      -5.138   7.790  67.745  1.00  0.00    -0.031 A  
HETATM   12  C   UNL     1      -6.933   7.541  66.169  1.00  0.00    -0.065 A  
BRANCH   9  13
HETATM   13  C   UNL     1      -9.381   8.300  70.162  1.00  0.00    -0.159 C  
BRANCH  13  14
HETATM   14  C   UNL     1      -9.768   9.684  69.707  1.00  0.00    -0.247 A  
HETATM   15  C   UNL     1      -9.293  11.735  68.514  1.00  0.00    -0.158 A  
HETATM   16  C   UNL     1     -10.663  11.937  68.272  1.00  0.00    -0.253 A  
HETATM   17  C   UNL     1     -11.108  10.070  69.772  1.00  0.00    -0.319 A  
HETATM   18  C   UNL     1      -8.846  10.582  69.172  1.00  0.00    -0.161 A  
HETATM   19  C   UNL     1     -11.553  11.173  69.044  1.00  0.00    -0.392 A  
BRANCH  16  20
HETATM   20  C   UNL     1     -11.164  12.791  67.155  1.00  0.00    -0.336 A  
HETATM   21  C   UNL     1     -10.967  12.366  65.819  1.00  0.00    -0.333 A  
HETATM   22  C   UNL     1     -11.746  14.081  67.343  1.00  0.00    -0.421 A  
HETATM   23  C   UNL     1     -11.334  13.151  64.721  1.00  0.00    -0.352 A  
HETATM   24  C   UNL     1     -12.167  14.826  66.218  1.00  0.00    -0.034 A  
HETATM   25  C   UNL     1     -11.954  14.373  64.920  1.00  0.00    -0.430 A  
BRANCH  22  26
HETATM   26  C   UNL     1     -11.909  14.768  68.632  1.00  0.00    -0.300 A  
HETATM   27  N   UNL     1     -12.976  14.749  69.411  1.00  0.00    -0.168 NA 
HETATM   28  H   UNL     1     -13.846  14.245  69.239  1.00  0.00     0.000 HD 
HETATM   29  N   UNL     1     -12.688  15.538  70.497  1.00  0.00    -0.431 NA 
HETATM   30  N   UNL     1     -11.477  16.062  70.392  1.00  0.00    -0.372 NA 
HETATM   31  N   UNL     1     -11.011  15.623  69.215  1.00  0.00    -0.247 NA 
ENDBRANCH  22  26
ENDBRANCH  16  20
ENDBRANCH  13  14
ENDBRANCH   9  13
BRANCH   8  32
HETATM   32  C   UNL     1      -9.333   7.564  66.764  1.00  0.00    -0.165 C  
HETATM   33  O   UNL     1     -10.079   8.516  66.918  1.00  0.00    -0.239 OA 
BRANCH  32  34
HETATM   34  O   UNL     1      -9.615   6.479  65.998  1.00  0.00    -0.048 OA 
BRANCH  34  35
HETATM   35  C   UNL     1      -9.319   5.244  66.666  1.00  0.00    -0.138 C  
HETATM   36  C   UNL     1     -10.625   4.449  66.661  1.00  0.00     0.344 C  
BRANCH  35  37
HETATM   37  O   UNL     1      -8.390   4.431  65.946  1.00  0.00    -0.112 OA 
BRANCH  37  38
HETATM   38  C   UNL     1      -8.013   3.283  66.552  1.00  0.00    -0.081 C  
HETATM   39  O   UNL     1      -8.154   3.006  67.730  1.00  0.00    -0.077 OA 
BRANCH  38  40
HETATM   40  O   UNL     1      -7.479   2.501  65.595  1.00  0.00    -0.066 OA 
BRANCH  40  41
HETATM   41  C   UNL     1      -7.690   2.690  64.177  1.00  0.00    -0.076 C  
HETATM   42  C   UNL     1      -5.242   3.198  62.564  1.00  0.00    -0.004 C  
HETATM   43  C   UNL     1      -7.200   4.099  63.840  1.00  0.00    -0.051 C  
HETATM   44  C   UNL     1      -5.684   4.142  63.673  1.00  0.00    -0.014 C  
HETATM   45  C   UNL     1      -5.692   1.762  62.809  1.00  0.00    -0.008 C  
HETATM   46  C   UNL     1      -7.169   1.636  63.194  1.00  0.00    -0.035 C  
ENDBRANCH  40  41
ENDBRANCH  38  40
ENDBRANCH  37  38
ENDBRANCH  35  37
ENDBRANCH  34  35
ENDBRANCH  32  34
ENDBRANCH   8  32
ENDBRANCH   3   4
ENDBRANCH   2   3
TORSDOF 13
ENDMDL
MODEL      301
REMARK 921   NORMALIZED FREE ENERGY PREDICTED BY IDOCK:   -0.99 KCAL/MOL
REMARK 922        TOTAL FREE ENERGY PREDICTED BY IDOCK:   -4.20 KCAL/MOL
REMARK 923 INTER-LIGAND FREE ENERGY PREDICTED BY IDOCK:   -3.36 KCAL/MOL
REMARK 924 INTRA-LIGAND FREE ENERGY PREDICTED BY IDOCK:   -0.84 KCAL/MOL
REMARK 927      BINDING AFFINITY PREDICTED BY RF-SCORE:    0.00 PKD
ROOT
HETATM    1  C   UNL     1     -10.761  15.401  70.604  1.00  0.00    -0.255 C  
HETATM    2  C   UNL     1     -10.140  14.369  69.680  1.00  0.00     0.268 C  
ENDROOT
BRANCH   2   3
HETATM    3  O   UNL     1      -8.717  14.464  69.811  1.00  0.00     0.441 OA 
BRANCH   3   4
HETATM    4  C   UNL     1      -8.042  13.416  69.349  1.00  0.00     0.773 A  
HETATM    5  N   UNL     1      -7.151  12.741  70.037  1.00  0.00     0.666 NA 
HETATM    6  C   UNL     1      -6.712  11.769  69.185  1.00  0.00    -0.110 A  
HETATM    7  C   UNL     1      -7.398  11.792  67.954  1.00  0.00    -0.098 A  
HETATM    8  C   UNL     1      -7.153  10.776  66.997  1.00  0.00    -0.104 A  
HETATM    9  N   UNL     1      -8.168  12.943  68.060  1.00  0.00    -0.157 NA 
HETATM   10  C   UNL     1      -5.409   9.867  68.475  1.00  0.00    -0.035 A  
HETATM   11  C   UNL     1      -5.698  10.830  69.434  1.00  0.00    -0.038 A  
HETATM   12  C   UNL     1      -6.147   9.828  67.298  1.00  0.00    -0.055 A  
BRANCH   9  13
HETATM   13  C   UNL     1      -8.856  13.714  67.023  1.00  0.00    -0.223 C  
BRANCH  13  14
HETATM   14  C   UNL     1      -8.199  15.040  66.734  1.00  0.00    -0.124 A  
HETATM   15  C   UNL     1      -8.306  17.436  66.413  1.00  0.00    -0.302 A  
HETATM   16  C   UNL     1      -6.991  17.580  66.887  1.00  0.00    -0.219 A  
HETATM   17  C   UNL     1      -6.813  15.151  66.858  1.00  0.00     0.586 A  
HETATM   18  C   UNL     1      -8.927  16.180  66.398  1.00  0.00    -0.353 A  
HETATM   19  C   UNL     1      -6.219  16.409  66.955  1.00  0.00    -0.155 A  
BRANCH  16  20
HETATM   20  C   UNL     1      -6.474  18.866  67.442  1.00  0.00    -0.195 A  
HETATM   21  C   UNL     1      -6.550  19.096  68.837  1.00  0.00    -0.315 A  
HETATM   22  C   UNL     1      -5.995  19.942  66.635  1.00  0.00    -0.179 A  
HETATM   23  C   UNL     1      -6.164  20.308  69.419  1.00  0.00    -0.355 A  
HETATM   24  C   UNL     1      -5.550  21.132  67.255  1.00  0.00    -0.341 A  
HETATM   25  C   UNL     1      -5.642  21.320  68.630  1.00  0.00    -0.236 A  
BRANCH  22  26
HETATM   26  C   UNL     1      -5.966  19.964  65.167  1.00  0.00    -0.219 A  
HETATM   27  N   UNL     1      -5.331  19.119  64.372  1.00  0.00    -0.209 NA 
HETATM   28  H   UNL     1      -4.773  18.316  64.661  1.00  0.00     0.000 HD 
HETATM   29  N   UNL     1      -5.570  19.530  63.084  1.00  0.00    -0.326 NA 
HETATM   30  N   UNL     1      -6.317  20.623  63.068  1.00  0.00    -0.075 NA 
HETATM   31  N   UNL     1      -6.525  20.920  64.358  1.00  0.00    -0.294 NA 
ENDBRANCH  22  26
ENDBRANCH  16  20
ENDBRANCH  13  14
ENDBRANCH   9  13
BRANCH   8  32
HETATM   32  C   UNL     1      -7.758  10.716  65.645  1.00  0.00    -0.109 C  
HETATM   33  O   UNL     1      -8.488  11.586  65.201  1.00  0.00     0.230 OA 
BRANCH  32  34
HETATM   34  O   UNL     1      -7.221   9.711  64.908  1.00  0.00    -0.106 OA 
BRANCH  34  35
HETATM   35  C   UNL     1      -8.112   8.595  64.771  1.00  0.00    -0.149 C  
HETATM   36  C   UNL     1      -8.531   8.581  63.300  1.00  0.00    -0.051 C  
BRANCH  35  37
HETATM   37  O   UNL     1      -7.467   7.338  64.982  1.00  0.00    -0.077 OA 
BRANCH  37  38
HETATM   38  C   UNL     1      -8.124   6.460  65.772  1.00  0.00    -0.127 C  
HETATM   39  O   UNL     1      -9.272   6.560  66.167  1.00  0.00    -0.156 OA 
BRANCH  38  40
HETATM   40  O   UNL     1      -7.271   5.446  66.012  1.00  0.00    -0.073 OA 
BRANCH  40  41
HETATM   41  C   UNL     1      -7.072   4.322  65.124  1.00  0.00    -0.063 C  
HETATM   42  C   UNL     1      -8.474   1.810  65.887  1.00  0.00    -0.105 C  
HETATM   43  C   UNL     1      -6.404   3.219  65.949  1.00  0.00    -0.032 C  
HETATM   44  C   UNL     1      -7.421   2.448  66.783  1.00  0.00    -0.066 C  
HETATM   45  C   UNL     1      -9.194   2.836  65.016  1.00  0.00    -0.145 C  
HETATM   46  C   UNL     1      -8.251   3.803  64.294  1.00  0.00    -0.090 C  
ENDBRANCH  40  41
ENDBRANCH  38  40
ENDBRANCH  37  38
ENDBRANCH  35  37
ENDBRANCH  34  35
ENDBRANCH  32  34
ENDBRANCH   8  32
ENDBRANCH   3   4
ENDBRANCH   2   3
TORSDOF 13
ENDMDL
MODEL      302
REMARK 921   NORMALIZED FREE ENERGY PREDICTED BY IDOCK:   -0.95 KCAL/MOL
REMARK 922        TOTAL FREE ENERGY PREDICTED BY IDOCK:   -4.12 KCAL/MOL
REMARK 923 INTER-LIGAND FREE ENERGY PREDICTED BY IDOCK:   -5.74 KCAL/MOL
REMARK 924 INTRA-LIGAND FREE ENERGY PREDICTED BY IDOCK:    1.61 KCAL/MOL
REMARK 927      BINDING AFFINITY PREDICTED BY RF-SCORE:    0.00 PKD
ROOT
HETATM    1  C   UNL     1     -14.411   9.814  72.319  1.00  0.00     0.296 C  
HETATM    2  C   UNL     1     -13.464  10.330  71.250  1.00  0.00    -0.188 C  
ENDROOT
BRANCH   2   3
HETATM    3  O   UNL     1     -12.351  10.941  71.909  1.00  0.00    -0.144 OA 
BRANCH   3   4
HETATM    4  C   UNL     1     -12.163  12.225  71.613  1.00  0.00     0.562 A  
HETATM    5  N   UNL     1     -12.536  13.227  72.374  1.00  0.00     0.073 NA 
HETATM    6  C   UNL     1     -12.157  14.346  71.692  1.00  0.00    -0.262 A  
HETATM    7  C   UNL     1     -11.465  14.036  70.504  1.00  0.00     0.004 A  
HETATM    8  C   UNL     1     -10.894  15.078  69.733  1.00  0.00    -0.277 A  
HETATM    9  N   UNL     1     -11.592  12.654  70.434  1.00  0.00    -0.002 NA 
HETATM   10  C   UNL     1     -11.895  16.709  71.279  1.00  0.00     0.331 A  
HETATM   11  C   UNL     1     -12.400  15.679  72.063  1.00  0.00    -0.505 A  
HETATM   12  C   UNL     1     -11.132  16.406  70.158  1.00  0.00    -0.285 A  
BRANCH   9  13
HETATM   13  C   UNL     1     -11.386  11.745  69.306  1.00  0.00    -0.286 C  
BRANCH  13  14
HETATM   14  C   UNL     1     -10.757  10.434  69.706  1.00  0.00    -0.325 A  
HETATM   15  C   UNL     1      -9.291   9.128  71.120  1.00  0.00    -0.313 A  
HETATM   16  C   UNL     1     -10.089   7.987  70.930  1.00  0.00    -0.211 A  
HETATM   17  C   UNL     1     -11.323   9.243  69.247  1.00  0.00     0.176 A  
HETATM   18  C   UNL     1      -9.660  10.359  70.562  1.00  0.00     0.816 A  
HETATM   19  C   UNL     1     -11.007   8.036  69.868  1.00  0.00    -0.172 A  
BRANCH  16  20
HETATM   20  C   UNL     1     -10.091   6.840  71.885  1.00  0.00    -0.195 A  
HETATM   21  C   UNL     1     -11.276   6.084  72.055  1.00  0.00    -0.341 A  
HETATM   22  C   UNL     1      -8.989   6.512  72.733  1.00  0.00    -0.127 A  
HETATM   23  C   UNL     1     -11.378   5.050  72.991  1.00  0.00    -0.374 A  
HETATM   24  C   UNL     1      -9.098   5.421  73.625  1.00  0.00    -0.124 A  
HETATM   25  C   UNL     1     -10.281   4.703  73.762  1.00  0.00    -0.234 A  
BRANCH  22  26
HETATM   26  C   UNL     1      -7.724   7.255  72.818  1.00  0.00    -0.087 A  
HETATM   27  N   UNL     1      -6.673   7.125  72.027  1.00  0.00    -0.056 NA 
HETATM   28  H   UNL     1      -6.586   6.495  71.229  1.00  0.00     0.000 HD 
HETATM   29  N   UNL     1      -5.721   8.002  72.486  1.00  0.00    -0.040 NA 
HETATM   30  N   UNL     1      -6.152   8.651  73.556  1.00  0.00    -0.137 NA 
HETATM   31  N   UNL     1      -7.376   8.156  73.791  1.00  0.00    -0.147 NA 
ENDBRANCH  22  26
ENDBRANCH  16  20
ENDBRANCH  13  14
ENDBRANCH   9  13
BRANCH   8  32
HETATM   32  C   UNL     1     -10.196  14.895  68.438  1.00  0.00    -0.231 C  
HETATM   33  O   UNL     1      -9.012  14.618  68.350  1.00  0.00    -0.168 OA 
BRANCH  32  34
HETATM   34  O   UNL     1     -11.077  14.850  67.406  1.00  0.00    -0.305 OA 
BRANCH  34  35
HETATM   35  C   UNL     1     -10.971  15.992  66.544  1.00  0.00    -0.080 C  
HETATM   36  C   UNL     1      -9.878  16.870  67.155  1.00  0.00    -0.270 C  
BRANCH  35  37
HETATM   37  O   UNL     1     -10.492  15.662  65.239  1.00  0.00    -0.379 OA 
BRANCH  37  38
HETATM   38  C   UNL     1     -11.417  15.642  64.255  1.00  0.00    -0.193 C  
HETATM   39  O   UNL     1     -11.924  16.611  63.719  1.00  0.00    -0.743 OA 
BRANCH  38  40
HETATM   40  O   UNL     1     -11.646  14.347  63.968  1.00  0.00    -0.218 OA 
BRANCH  40  41
HETATM   41  C   UNL     1     -11.249  13.243  64.814  1.00  0.00    -0.331 C  
HETATM   42  C   UNL     1     -10.525  10.728  63.396  1.00  0.00    -0.089 C  
HETATM   43  C   UNL     1     -12.252  12.113  64.567  1.00  0.00    -0.404 C  
HETATM   44  C   UNL     1     -11.918  11.332  63.300  1.00  0.00     0.410 C  
HETATM   45  C   UNL     1      -9.451  11.782  63.649  1.00  0.00    -0.106 C  
HETATM   46  C   UNL     1      -9.796  12.756  64.779  1.00  0.00    -0.055 C  
ENDBRANCH  40  41
ENDBRANCH  38  40
ENDBRANCH  37  38
ENDBRANCH  35  37
ENDBRANCH  34  35
ENDBRANCH  32  34
ENDBRANCH   8  32
ENDBRANCH   3   4
ENDBRANCH   2   3
TORSDOF 13
ENDMDL
MODEL      303
REMARK 921   NORMALIZED FREE ENERGY PREDICTED BY IDOCK:   -0.88 KCAL/MOL
REMARK 922        TOTAL FREE ENERGY PREDICTED BY IDOCK:   -4.00 KCAL/MOL
REMARK 923 INTER-LIGAND FREE ENERGY PREDICTED BY IDOCK:   -3.73 KCAL/MOL
REMARK 924 INTRA-LIGAND FREE ENERGY PREDICTED BY IDOCK:   -0.27 KCAL/MOL
REMARK 927      BINDING AFFINITY PREDICTED BY RF-SCORE:    0.00 PKD
ROOT
HETATM    1  C   UNL     1     -12.055  10.544  68.696  1.00  0.00     0.258 C  
HETATM    2  C   UNL     1     -11.362   9.915  67.500  1.00  0.00     0.332 C  
ENDROOT
BRANCH   2   3
HETATM    3  O   UNL     1     -10.906   8.617  67.891  1.00  0.00    -0.138 OA 
BRANCH   3   4
HETATM    4  C   UNL     1     -10.163   7.989  66.983  1.00  0.00    -0.303 A  
HETATM    5  N   UNL     1     -10.384   6.767  66.556  1.00  0.00    -0.110 NA 
HETATM    6  C   UNL     1      -9.393   6.528  65.649  1.00  0.00     0.262 A  
HETATM    7  C   UNL     1      -8.570   7.655  65.451  1.00  0.00    -0.053 A  
HETATM    8  C   UNL     1      -7.564   7.621  64.454  1.00  0.00    -0.107 A  
HETATM    9  N   UNL     1      -9.033   8.539  66.417  1.00  0.00    -0.154 NA 
HETATM   10  C   UNL     1      -8.130   5.266  64.026  1.00  0.00    -0.121 A  
HETATM   11  C   UNL     1      -9.154   5.326  64.963  1.00  0.00    -0.029 A  
HETATM   12  C   UNL     1      -7.376   6.403  63.761  1.00  0.00    -0.073 A  
BRANCH   9  13
HETATM   13  C   UNL     1      -8.415   9.749  66.960  1.00  0.00    -0.117 C  
BRANCH  13  14
HETATM   14  C   UNL     1      -7.827   9.550  68.335  1.00  0.00    -0.086 A  
HETATM   15  C   UNL     1      -7.997   9.635  70.747  1.00  0.00     0.024 A  
HETATM   16  C   UNL     1      -7.078   8.578  70.870  1.00  0.00    -0.063 A  
HETATM   17  C   UNL     1      -6.679   8.769  68.475  1.00  0.00    -0.060 A  
HETATM   18  C   UNL     1      -8.416  10.074  69.484  1.00  0.00    -0.186 A  
HETATM   19  C   UNL     1      -6.322   8.271  69.727  1.00  0.00    -0.036 A  
BRANCH  16  20
HETATM   20  C   UNL     1      -7.006   7.714  72.085  1.00  0.00    -0.065 A  
HETATM   21  C   UNL     1      -5.749   7.486  72.697  1.00  0.00    -0.040 A  
HETATM   22  C   UNL     1      -8.123   7.005  72.621  1.00  0.00    -0.115 A  
HETATM   23  C   UNL     1      -5.591   6.623  73.786  1.00  0.00    -0.050 A  
HETATM   24  C   UNL     1      -7.947   6.189  73.762  1.00  0.00    -0.097 A  
HETATM   25  C   UNL     1      -6.695   5.990  74.334  1.00  0.00    -0.076 A  
BRANCH  22  26
HETATM   26  C   UNL     1      -9.478   6.988  72.055  1.00  0.00    -0.138 A  
HETATM   27  N   UNL     1      -9.993   6.069  71.255  1.00  0.00    -0.181 NA 
HETATM   28  H   UNL     1      -9.528   5.226  70.919  1.00  0.00     0.000 HD 
HETATM   29  N   UNL     1     -11.274   6.468  70.965  1.00  0.00    -0.292 NA 
HETATM   30  N   UNL     1     -11.552   7.624  71.548  1.00  0.00    -0.266 NA 
HETATM   31  N   UNL     1     -10.425   7.970  72.185  1.00  0.00    -0.244 NA 
ENDBRANCH  22  26
ENDBRANCH  16  20
ENDBRANCH  13  14
ENDBRANCH   9  13
BRANCH   8  32
HETATM   32  C   UNL     1      -6.595   8.710  64.185  1.00  0.00    -0.071 C  
HETATM   33  O   UNL     1      -5.633   8.582  63.447  1.00  0.00    -0.066 OA 
BRANCH  32  34
HETATM   34  O   UNL     1      -7.039   9.897  64.672  1.00  0.00    -0.125 OA 
BRANCH  34  35
HETATM   35  C   UNL     1      -7.049  10.930  63.676  1.00  0.00     0.551 C  
HETATM   36  C   UNL     1      -5.761  10.740  62.874  1.00  0.00    -0.110 C  
BRANCH  35  37
HETATM   37  O   UNL     1      -8.103  10.775  62.724  1.00  0.00    -0.149 OA 
BRANCH  37  38
HETATM   38  C   UNL     1      -9.358  10.761  63.226  1.00  0.00    -0.304 C  
HETATM   39  O   UNL     1     -10.116   9.808  63.251  1.00  0.00     0.685 OA 
BRANCH  38  40
HETATM   40  O   UNL     1      -9.591  11.994  63.713  1.00  0.00    -0.194 OA 
BRANCH  40  41
HETATM   41  C   UNL     1     -10.437  12.272  64.853  1.00  0.00    -0.289 C  
HETATM   42  C   UNL     1     -10.987  15.150  65.378  1.00  0.00    -0.381 C  
HETATM   43  C   UNL     1      -9.605  13.110  65.827  1.00  0.00    -0.075 C  
HETATM   44  C   UNL     1      -9.576  14.580  65.421  1.00  0.00    -0.023 C  
HETATM   45  C   UNL     1     -11.898  14.373  64.432  1.00  0.00    -0.433 C  
HETATM   46  C   UNL     1     -11.836  12.855  64.624  1.00  0.00    -0.422 C  
ENDBRANCH  40  41
ENDBRANCH  38  40
ENDBRANCH  37  38
ENDBRANCH  35  37
ENDBRANCH  34  35
ENDBRANCH  32  34
ENDBRANCH   8  32
ENDBRANCH   3   4
ENDBRANCH   2   3
TORSDOF 13
ENDMDL
MODEL      304
REMARK 921   NORMALIZED FREE ENERGY PREDICTED BY IDOCK:   -0.73 KCAL/MOL
REMARK 922        TOTAL FREE ENERGY PREDICTED BY IDOCK:   -3.74 KCAL/MOL
REMARK 923 INTER-LIGAND FREE ENERGY PREDICTED BY IDOCK:   -7.14 KCAL/MOL
REMARK 924 INTRA-LIGAND FREE ENERGY PREDICTED BY IDOCK:    3.39 KCAL/MOL
REMARK 927      BINDING AFFINITY PREDICTED BY RF-SCORE:    0.00 PKD
ROOT
HETATM    1  C   UNL     1      -5.391   7.008  71.979  1.00  0.00    -0.036 C  
HETATM    2  C   UNL     1      -5.804   8.446  71.717  1.00  0.00    -0.043 C  
ENDROOT
BRANCH   2   3
HETATM    3  O   UNL     1      -6.642   8.864  72.800  1.00  0.00    -0.288 OA 
BRANCH   3   4
HETATM    4  C   UNL     1      -7.934   8.585  72.645  1.00  0.00    -0.029 A  
HETATM    5  N   UNL     1      -8.594   7.699  73.353  1.00  0.00    -0.166 NA 
HETATM    6  C   UNL     1      -9.867   7.735  72.862  1.00  0.00    -0.264 A  
HETATM    7  C   UNL     1     -10.025   8.721  71.867  1.00  0.00    -0.331 A  
HETATM    8  C   UNL     1     -11.312   8.977  71.333  1.00  0.00    -0.394 A  
HETATM    9  N   UNL     1      -8.723   9.168  71.677  1.00  0.00    -0.326 NA 
HETATM   10  C   UNL     1     -12.193   7.120  72.684  1.00  0.00     0.145 A  
HETATM   11  C   UNL     1     -10.940   6.914  73.247  1.00  0.00    -0.270 A  
HETATM   12  C   UNL     1     -12.374   8.152  71.771  1.00  0.00    -0.357 A  
BRANCH   9  13
HETATM   13  C   UNL     1      -8.145   9.942  70.579  1.00  0.00     0.142 C  
BRANCH  13  14
HETATM   14  C   UNL     1      -8.169   9.212  69.259  1.00  0.00    -0.118 A  
HETATM   15  C   UNL     1      -8.197   9.202  66.840  1.00  0.00    -0.116 A  
HETATM   16  C   UNL     1      -7.530   7.965  66.816  1.00  0.00    -0.090 A  
HETATM   17  C   UNL     1      -7.841   7.855  69.229  1.00  0.00    -0.115 A  
HETATM   18  C   UNL     1      -8.457   9.851  68.054  1.00  0.00    -0.117 A  
HETATM   19  C   UNL     1      -7.504   7.246  68.021  1.00  0.00    -0.102 A  
BRANCH  16  20
HETATM   20  C   UNL     1      -6.751   7.496  65.632  1.00  0.00    -0.045 A  
HETATM   21  C   UNL     1      -5.932   8.418  64.935  1.00  0.00    -0.052 A  
HETATM   22  C   UNL     1      -6.857   6.183  65.082  1.00  0.00    -0.051 A  
HETATM   23  C   UNL     1      -5.239   8.073  63.771  1.00  0.00    -0.041 A  
HETATM   24  C   UNL     1      -6.095   5.842  63.942  1.00  0.00    -0.025 A  
HETATM   25  C   UNL     1      -5.303   6.777  63.285  1.00  0.00    -0.031 A  
BRANCH  22  26
HETATM   26  C   UNL     1      -7.754   5.124  65.564  1.00  0.00    -0.087 A  
HETATM   27  N   UNL     1      -8.859   4.693  64.980  1.00  0.00    -0.145 NA 
HETATM   28  H   UNL     1      -9.250   5.026  64.099  1.00  0.00     0.000 HD 
HETATM   29  N   UNL     1      -9.378   3.711  65.787  1.00  0.00    -0.159 NA 
HETATM   30  N   UNL     1      -8.631   3.544  66.867  1.00  0.00    -0.107 NA 
HETATM   31  N   UNL     1      -7.650   4.450  66.753  1.00  0.00    -0.085 NA 
ENDBRANCH  22  26
ENDBRANCH  16  20
ENDBRANCH  13  14
ENDBRANCH   9  13
BRANCH   8  32
HETATM   32  C   UNL     1     -11.606   9.939  70.244  1.00  0.00    -0.250 C  
HETATM   33  O   UNL     1     -12.737  10.218  69.886  1.00  0.00    -0.086 OA 
BRANCH  32  34
HETATM   34  O   UNL     1     -10.490  10.617  69.872  1.00  0.00    -0.207 OA 
BRANCH  34  35
HETATM   35  C   UNL     1     -10.792  11.905  69.314  1.00  0.00    -0.104 C  
HETATM   36  C   UNL     1     -11.807  11.644  68.201  1.00  0.00    -0.315 C  
BRANCH  35  37
HETATM   37  O   UNL     1     -11.465  12.766  70.233  1.00  0.00    -0.060 OA 
BRANCH  37  38
HETATM   38  C   UNL     1     -12.064  13.853  69.698  1.00  0.00    -0.349 C  
HETATM   39  O   UNL     1     -13.037  14.435  70.143  1.00  0.00    -0.134 OA 
BRANCH  38  40
HETATM   40  O   UNL     1     -11.359  14.178  68.598  1.00  0.00    -0.247 OA 
BRANCH  40  41
HETATM   41  C   UNL     1     -10.125  14.931  68.615  1.00  0.00    -0.237 C  
HETATM   42  C   UNL     1      -9.402  16.281  66.063  1.00  0.00    -0.361 C  
HETATM   43  C   UNL     1      -9.202  14.293  67.574  1.00  0.00    -0.197 C  
HETATM   44  C   UNL     1      -9.534  14.768  66.163  1.00  0.00    -0.324 C  
HETATM   45  C   UNL     1     -10.284  17.010  67.073  1.00  0.00    -0.303 C  
HETATM   46  C   UNL     1     -10.175  16.458  68.498  1.00  0.00    -0.257 C  
ENDBRANCH  40  41
ENDBRANCH  38  40
ENDBRANCH  37  38
ENDBRANCH  35  37
ENDBRANCH  34  35
ENDBRANCH  32  34
ENDBRANCH   8  32
ENDBRANCH   3   4
ENDBRANCH   2   3
TORSDOF 13
ENDMDL
MODEL      305
REMARK 921   NORMALIZED FREE ENERGY PREDICTED BY IDOCK:   -0.58 KCAL/MOL
REMARK 922        TOTAL FREE ENERGY PREDICTED BY IDOCK:   -3.48 KCAL/MOL
REMARK 923 INTER-LIGAND FREE ENERGY PREDICTED BY IDOCK:   -5.59 KCAL/MOL
REMARK 924 INTRA-LIGAND FREE ENERGY PREDICTED BY IDOCK:    2.11 KCAL/MOL
REMARK 927      BINDING AFFINITY PREDICTED BY RF-SCORE:    0.00 PKD
ROOT
HETATM    1  C   UNL     1      -6.573  12.918  70.098  1.00  0.00     0.311 C  
HETATM    2  C   UNL     1      -7.119  12.085  68.952  1.00  0.00    -0.104 C  
ENDROOT
BRANCH   2   3
HETATM    3  O   UNL     1      -6.722  10.727  69.171  1.00  0.00    -0.059 OA 
BRANCH   3   4
HETATM    4  C   UNL     1      -7.450  10.071  70.070  1.00  0.00    -0.173 A  
HETATM    5  N   UNL     1      -6.962   9.486  71.140  1.00  0.00    -0.308 NA 
HETATM    6  C   UNL     1      -8.044   8.939  71.765  1.00  0.00     0.022 A  
HETATM    7  C   UNL     1      -9.252   9.248  71.107  1.00  0.00    -0.155 A  
HETATM    8  C   UNL     1     -10.485   8.861  71.687  1.00  0.00    -0.408 A  
HETATM    9  N   UNL     1      -8.811   9.885  69.953  1.00  0.00    -0.210 NA 
HETATM   10  C   UNL     1      -9.235   7.709  73.465  1.00  0.00    -0.331 A  
HETATM   11  C   UNL     1      -8.033   8.144  72.924  1.00  0.00    -0.211 A  
HETATM   12  C   UNL     1     -10.432   8.091  72.872  1.00  0.00    -0.402 A  
BRANCH   9  13
HETATM   13  C   UNL     1      -9.520  10.168  68.705  1.00  0.00    -0.171 C  
BRANCH  13  14
HETATM   14  C   UNL     1      -9.018   9.353  67.539  1.00  0.00    -0.130 A  
HETATM   15  C   UNL     1      -7.230   8.583  66.103  1.00  0.00    -0.081 A  
HETATM   16  C   UNL     1      -7.913   7.379  65.862  1.00  0.00    -0.118 A  
HETATM   17  C   UNL     1      -9.827   8.341  67.021  1.00  0.00    -0.298 A  
HETATM   18  C   UNL     1      -7.751   9.536  66.988  1.00  0.00    -0.091 A  
HETATM   19  C   UNL     1      -9.274   7.352  66.208  1.00  0.00    -0.182 A  
BRANCH  16  20
HETATM   20  C   UNL     1      -7.218   6.137  65.412  1.00  0.00    -0.070 A  
HETATM   21  C   UNL     1      -5.833   6.187  65.120  1.00  0.00    -0.025 A  
HETATM   22  C   UNL     1      -7.888   4.903  65.151  1.00  0.00    -0.092 A  
HETATM   23  C   UNL     1      -5.133   5.086  64.616  1.00  0.00    -0.009 A  
HETATM   24  C   UNL     1      -7.145   3.788  64.702  1.00  0.00    -0.061 A  
HETATM   25  C   UNL     1      -5.784   3.879  64.427  1.00  0.00    -0.014 A  
BRANCH  22  26
HETATM   26  C   UNL     1      -9.337   4.678  65.250  1.00  0.00    -0.157 A  
HETATM   27  N   UNL     1     -10.058   4.628  66.356  1.00  0.00    -0.243 NA 
HETATM   28  H   UNL     1      -9.718   4.749  67.310  1.00  0.00     0.000 HD 
HETATM   29  N   UNL     1     -11.354   4.383  65.974  1.00  0.00     1.310 NA 
HETATM   30  N   UNL     1     -11.443   4.256  64.659  1.00  0.00     0.003 NA 
HETATM   31  N   UNL     1     -10.187   4.393  64.213  1.00  0.00     0.002 NA 
ENDBRANCH  22  26
ENDBRANCH  16  20
ENDBRANCH  13  14
ENDBRANCH   9  13
BRANCH   8  32
HETATM   32  C   UNL     1     -11.817   9.069  71.072  1.00  0.00    -0.285 C  
HETATM   33  O   UNL     1     -12.799   8.406  71.363  1.00  0.00    -0.303 OA 
BRANCH  32  34
HETATM   34  O   UNL     1     -11.849  10.211  70.339  1.00  0.00    -0.267 OA 
BRANCH  34  35
HETATM   35  C   UNL     1     -13.034  10.985  70.578  1.00  0.00    -0.085 C  
HETATM   36  C   UNL     1     -13.094  11.188  72.092  1.00  0.00    -0.288 C  
BRANCH  35  37
HETATM   37  O   UNL     1     -12.957  12.302  70.032  1.00  0.00     0.393 OA 
BRANCH  37  38
HETATM   38  C   UNL     1     -12.296  12.421  68.859  1.00  0.00     0.256 C  
HETATM   39  O   UNL     1     -12.246  11.590  67.969  1.00  0.00    -0.582 OA 
BRANCH  38  40
HETATM   40  O   UNL     1     -11.731  13.642  68.858  1.00  0.00    -0.291 OA 
BRANCH  40  41
HETATM   41  C   UNL     1     -10.416  13.931  68.330  1.00  0.00    -0.247 C  
HETATM   42  C   UNL     1     -10.351  15.631  65.888  1.00  0.00    -0.368 C  
HETATM   43  C   UNL     1     -10.369  13.347  66.916  1.00  0.00    -0.257 C  
HETATM   44  C   UNL     1     -11.036  14.272  65.904  1.00  0.00    -0.310 C  
HETATM   45  C   UNL     1     -10.342  16.293  67.262  1.00  0.00    -0.285 C  
HETATM   46  C   UNL     1      -9.881  15.366  68.391  1.00  0.00    -0.215 C  
ENDBRANCH  40  41
ENDBRANCH  38  40
ENDBRANCH  37  38
ENDBRANCH  35  37
ENDBRANCH  34  35
ENDBRANCH  32  34
ENDBRANCH   8  32
ENDBRANCH   3   4
ENDBRANCH   2   3
TORSDOF 13
ENDMDL
MODEL      306
REMARK 921   NORMALIZED FREE ENERGY PREDICTED BY IDOCK:   -0.56 KCAL/MOL
REMARK 922        TOTAL FREE ENERGY PREDICTED BY IDOCK:   -3.44 KCAL/MOL
REMARK 923 INTER-LIGAND FREE ENERGY PREDICTED BY IDOCK:   -6.65 KCAL/MOL
REMARK 924 INTRA-LIGAND FREE ENERGY PREDICTED BY IDOCK:    3.21 KCAL/MOL
REMARK 927      BINDING AFFINITY PREDICTED BY RF-SCORE:    0.00 PKD
ROOT
HETATM    1  C   UNL     1     -10.228   6.245  65.979  1.00  0.00     0.301 C  
HETATM    2  C   UNL     1     -10.420   7.621  66.593  1.00  0.00    -0.128 C  
ENDROOT
BRANCH   2   3
HETATM    3  O   UNL     1      -9.249   7.927  67.357  1.00  0.00    -0.137 OA 
BRANCH   3   4
HETATM    4  C   UNL     1      -8.992   9.225  67.488  1.00  0.00    -0.118 A  
HETATM    5  N   UNL     1      -7.943   9.832  66.983  1.00  0.00    -0.105 NA 
HETATM    6  C   UNL     1      -8.075  11.136  67.361  1.00  0.00    -0.132 A  
HETATM    7  C   UNL     1      -9.275  11.367  68.062  1.00  0.00    -0.171 A  
HETATM    8  C   UNL     1      -9.631  12.690  68.425  1.00  0.00    -0.173 A  
HETATM    9  N   UNL     1      -9.782  10.083  68.222  1.00  0.00    -0.139 NA 
HETATM   10  C   UNL     1      -7.476  13.467  67.529  1.00  0.00    -0.177 A  
HETATM   11  C   UNL     1      -7.162  12.177  67.122  1.00  0.00    -0.117 A  
HETATM   12  C   UNL     1      -8.701  13.715  68.138  1.00  0.00    -0.177 A  
BRANCH   9  13
HETATM   13  C   UNL     1     -10.819   9.587  69.127  1.00  0.00    -0.173 C  
BRANCH  13  14
HETATM   14  C   UNL     1     -10.527   8.209  69.666  1.00  0.00    -0.224 A  
HETATM   15  C   UNL     1     -10.949   5.828  69.743  1.00  0.00    -0.397 A  
HETATM   16  C   UNL     1      -9.609   5.580  70.088  1.00  0.00    -0.223 A  
HETATM   17  C   UNL     1      -9.326   7.986  70.341  1.00  0.00    -0.158 A  
HETATM   18  C   UNL     1     -11.388   7.130  69.472  1.00  0.00    -0.056 A  
HETATM   19  C   UNL     1      -8.863   6.684  70.530  1.00  0.00    -0.152 A  
BRANCH  16  20
HETATM   20  C   UNL     1      -8.951   4.260  69.855  1.00  0.00    -0.153 A  
HETATM   21  C   UNL     1      -9.060   3.649  68.583  1.00  0.00    -0.199 A  
HETATM   22  C   UNL     1      -8.294   3.510  70.877  1.00  0.00    -0.089 A  
HETATM   23  C   UNL     1      -8.542   2.378  68.315  1.00  0.00    -0.109 A  
HETATM   24  C   UNL     1      -7.723   2.257  70.563  1.00  0.00    -0.042 A  
HETATM   25  C   UNL     1      -7.853   1.689  69.299  1.00  0.00    -0.048 A  
BRANCH  22  26
HETATM   26  C   UNL     1      -8.195   3.895  72.292  1.00  0.00    -0.092 A  
HETATM   27  N   UNL     1      -7.440   4.853  72.802  1.00  0.00    -0.089 NA 
HETATM   28  H   UNL     1      -6.819   5.478  72.288  1.00  0.00     0.000 HD 
HETATM   29  N   UNL     1      -7.653   4.846  74.159  1.00  0.00    -0.093 NA 
HETATM   30  N   UNL     1      -8.503   3.889  74.498  1.00  0.00    -0.091 NA 
HETATM   31  N   UNL     1      -8.804   3.270  73.348  1.00  0.00    -0.080 NA 
ENDBRANCH  22  26
ENDBRANCH  16  20
ENDBRANCH  13  14
ENDBRANCH   9  13
BRANCH   8  32
HETATM   32  C   UNL     1     -10.829  13.062  69.214  1.00  0.00     0.003 C  
HETATM   33  O   UNL     1     -11.093  12.574  70.300  1.00  0.00     0.405 OA 
BRANCH  32  34
HETATM   34  O   UNL     1     -11.446  14.152  68.690  1.00  0.00    -0.263 OA 
BRANCH  34  35
HETATM   35  C   UNL     1     -11.656  15.185  69.663  1.00  0.00    -0.311 C  
HETATM   36  C   UNL     1     -10.327  15.329  70.406  1.00  0.00    -0.088 C  
BRANCH  35  37
HETATM   37  O   UNL     1     -11.890  16.465  69.074  1.00  0.00    -0.197 OA 
BRANCH  37  38
HETATM   38  C   UNL     1     -10.894  16.953  68.301  1.00  0.00    -0.357 C  
HETATM   39  O   UNL     1     -10.948  17.169  67.103  1.00  0.00    -0.143 OA 
BRANCH  38  40
HETATM   40  O   UNL     1      -9.847  17.177  69.117  1.00  0.00    -0.258 OA 
BRANCH  40  41
HETATM   41  C   UNL     1      -8.922  18.279  68.972  1.00  0.00    -0.022 C  
HETATM   42  C   UNL     1      -8.288  19.071  66.174  1.00  0.00    -0.230 C  
HETATM   43  C   UNL     1      -7.707  17.739  68.214  1.00  0.00    -0.266 C  
HETATM   44  C   UNL     1      -7.960  17.685  66.712  1.00  0.00    -0.268 C  
HETATM   45  C   UNL     1      -9.489  19.697  66.877  1.00  0.00    -0.456 C  
HETATM   46  C   UNL     1      -9.425  19.610  68.405  1.00  0.00    -0.452 C  
ENDBRANCH  40  41
ENDBRANCH  38  40
ENDBRANCH  37  38
ENDBRANCH  35  37
ENDBRANCH  34  35
ENDBRANCH  32  34
ENDBRANCH   8  32
ENDBRANCH   3   4
ENDBRANCH   2   3
TORSDOF 13
ENDMDL
MODEL      307
REMARK 921   NORMALIZED FREE ENERGY PREDICTED BY IDOCK:   -0.40 KCAL/MOL
REMARK 922        TOTAL FREE ENERGY PREDICTED BY IDOCK:   -3.15 KCAL/MOL
REMARK 923 INTER-LIGAND FREE ENERGY PREDICTED BY IDOCK:   -3.30 KCAL/MOL
REMARK 924 INTRA-LIGAND FREE ENERGY PREDICTED BY IDOCK:    0.15 KCAL/MOL
REMARK 927      BINDING AFFINITY PREDICTED BY RF-SCORE:    0.00 PKD
ROOT
HETATM    1  C   UNL     1      -6.687  10.224  71.460  1.00  0.00     1.081 C  
HETATM    2  C   UNL     1      -7.093   9.286  72.583  1.00  0.00     0.768 C  
ENDROOT
BRANCH   2   3
HETATM    3  O   UNL     1      -7.231   7.974  72.029  1.00  0.00    -0.070 OA 
BRANCH   3   4
HETATM    4  C   UNL     1      -7.050   7.902  70.713  1.00  0.00    -0.052 A  
HETATM    5  N   UNL     1      -5.878   7.833  70.125  1.00  0.00    -0.023 NA 
HETATM    6  C   UNL     1      -6.157   7.782  68.790  1.00  0.00    -0.039 A  
HETATM    7  C   UNL     1      -7.543   7.748  68.538  1.00  0.00    -0.105 A  
HETATM    8  C   UNL     1      -8.010   7.574  67.211  1.00  0.00    -0.118 A  
HETATM    9  N   UNL     1      -8.084   7.943  69.803  1.00  0.00    -0.114 NA 
HETATM   10  C   UNL     1      -5.679   7.662  66.429  1.00  0.00    -0.036 A  
HETATM   11  C   UNL     1      -5.227   7.772  67.737  1.00  0.00    -0.031 A  
HETATM   12  C   UNL     1      -7.041   7.534  66.182  1.00  0.00    -0.070 A  
BRANCH   9  13
HETATM   13  C   UNL     1      -9.439   8.331  70.198  1.00  0.00    -0.167 C  
BRANCH  13  14
HETATM   14  C   UNL     1      -9.817   9.717  69.741  1.00  0.00    -0.262 A  
HETATM   15  C   UNL     1      -9.332  11.763  68.543  1.00  0.00    -0.158 A  
HETATM   16  C   UNL     1     -10.701  11.973  68.304  1.00  0.00    -0.252 A  
HETATM   17  C   UNL     1     -11.154  10.112  69.809  1.00  0.00    -0.328 A  
HETATM   18  C   UNL     1      -8.890  10.608  69.202  1.00  0.00    -0.133 A  
HETATM   19  C   UNL     1     -11.594  11.216  69.079  1.00  0.00    -0.392 A  
BRANCH  16  20
HETATM   20  C   UNL     1     -11.199  12.828  67.186  1.00  0.00    -0.336 A  
HETATM   21  C   UNL     1     -12.244  13.750  67.435  1.00  0.00    -0.290 A  
HETATM   22  C   UNL     1     -10.756  12.703  65.835  1.00  0.00    -0.293 A  
HETATM   23  C   UNL     1     -12.818  14.524  66.421  1.00  0.00     0.495 A  
HETATM   24  C   UNL     1     -11.308  13.543  64.841  1.00  0.00    -0.347 A  
HETATM   25  C   UNL     1     -12.336  14.437  65.126  1.00  0.00    -0.383 A  
BRANCH  22  26
HETATM   26  C   UNL     1      -9.788  11.716  65.338  1.00  0.00    -0.238 A  
HETATM   27  N   UNL     1      -8.470  11.807  65.379  1.00  0.00    -0.156 NA 
HETATM   28  H   UNL     1      -7.925  12.574  65.771  1.00  0.00     0.000 HD 
HETATM   29  N   UNL     1      -7.976  10.669  64.791  1.00  0.00    -0.035 NA 
HETATM   30  N   UNL     1      -8.959   9.890  64.367  1.00  0.00    -0.221 NA 
HETATM   31  N   UNL     1     -10.082  10.559  64.664  1.00  0.00    -0.346 NA 
ENDBRANCH  22  26
ENDBRANCH  16  20
ENDBRANCH  13  14
ENDBRANCH   9  13
BRANCH   8  32
HETATM   32  C   UNL     1      -9.434   7.582  66.803  1.00  0.00    -0.179 C  
HETATM   33  O   UNL     1     -10.170   8.542  66.960  1.00  0.00    -0.246 OA 
BRANCH  32  34
HETATM   34  O   UNL     1      -9.736   6.497  66.044  1.00  0.00    -0.005 OA 
BRANCH  34  35
HETATM   35  C   UNL     1      -9.444   5.261  66.714  1.00  0.00    -0.140 C  
HETATM   36  C   UNL     1     -10.758   4.479  66.726  1.00  0.00     0.472 C  
BRANCH  35  37
HETATM   37  O   UNL     1      -8.531   4.437  65.988  1.00  0.00    -0.113 OA 
BRANCH  37  38
HETATM   38  C   UNL     1      -8.160   3.287  66.593  1.00  0.00    -0.081 C  
HETATM   39  O   UNL     1      -8.292   3.016  67.774  1.00  0.00    -0.078 OA 
BRANCH  38  40
HETATM   40  O   UNL     1      -7.644   2.497  65.634  1.00  0.00    -0.073 OA 
BRANCH  40  41
HETATM   41  C   UNL     1      -7.868   2.682  64.218  1.00  0.00    -0.077 C  
HETATM   42  C   UNL     1      -5.432   3.168  62.578  1.00  0.00    -0.008 C  
HETATM   43  C   UNL     1      -7.370   4.087  63.871  1.00  0.00    -0.051 C  
HETATM   44  C   UNL     1      -5.856   4.118  63.689  1.00  0.00    -0.014 C  
HETATM   45  C   UNL     1      -5.890   1.735  62.833  1.00  0.00    -0.008 C  
HETATM   46  C   UNL     1      -7.364   1.621  63.233  1.00  0.00    -0.044 C  
ENDBRANCH  40  41
ENDBRANCH  38  40
ENDBRANCH  37  38
ENDBRANCH  35  37
ENDBRANCH  34  35
ENDBRANCH  32  34
ENDBRANCH   8  32
ENDBRANCH   3   4
ENDBRANCH   2   3
TORSDOF 13
ENDMDL
MODEL      308
REMARK 921   NORMALIZED FREE ENERGY PREDICTED BY IDOCK:   -0.30 KCAL/MOL
REMARK 922        TOTAL FREE ENERGY PREDICTED BY IDOCK:   -2.98 KCAL/MOL
REMARK 923 INTER-LIGAND FREE ENERGY PREDICTED BY IDOCK:   -5.79 KCAL/MOL
REMARK 924 INTRA-LIGAND FREE ENERGY PREDICTED BY IDOCK:    2.80 KCAL/MOL
REMARK 927      BINDING AFFINITY PREDICTED BY RF-SCORE:    0.00 PKD
ROOT
HETATM    1  C   UNL     1      -6.977  12.422  66.314  1.00  0.00     1.356 C  
HETATM    2  C   UNL     1      -6.352  11.046  66.166  1.00  0.00    -0.096 C  
ENDROOT
BRANCH   2   3
HETATM    3  O   UNL     1      -5.658  10.747  67.382  1.00  0.00    -0.043 OA 
BRANCH   3   4
HETATM    4  C   UNL     1      -6.415  10.224  68.343  1.00  0.00    -0.048 A  
HETATM    5  N   UNL     1      -6.045  10.097  69.596  1.00  0.00    -0.043 NA 
HETATM    6  C   UNL     1      -7.111   9.514  70.219  1.00  0.00    -0.110 A  
HETATM    7  C   UNL     1      -8.203   9.336  69.348  1.00  0.00    -0.114 A  
HETATM    8  C   UNL     1      -9.435   8.854  69.858  1.00  0.00    -0.177 A  
HETATM    9  N   UNL     1      -7.671   9.702  68.118  1.00  0.00    -0.086 NA 
HETATM   10  C   UNL     1      -8.364   8.577  72.055  1.00  0.00    -0.209 A  
HETATM   11  C   UNL     1      -7.179   9.107  71.562  1.00  0.00     0.027 A  
HETATM   12  C   UNL     1      -9.473   8.486  71.222  1.00  0.00    -0.265 A  
BRANCH   9  13
HETATM   13  C   UNL     1      -8.164   9.447  66.764  1.00  0.00    -0.112 C  
BRANCH  13  14
HETATM   14  C   UNL     1      -7.936   8.028  66.307  1.00  0.00    -0.105 A  
HETATM   15  C   UNL     1      -8.044   5.638  66.670  1.00  0.00    -0.105 A  
HETATM   16  C   UNL     1      -8.185   5.413  65.290  1.00  0.00    -0.133 A  
HETATM   17  C   UNL     1      -7.719   7.780  64.950  1.00  0.00    -0.110 A  
HETATM   18  C   UNL     1      -7.984   6.942  67.179  1.00  0.00    -0.113 A  
HETATM   19  C   UNL     1      -7.864   6.488  64.445  1.00  0.00    -0.115 A  
BRANCH  16  20
HETATM   20  C   UNL     1      -8.790   4.166  64.737  1.00  0.00    -0.135 A  
HETATM   21  C   UNL     1     -10.050   4.235  64.095  1.00  0.00    -0.043 A  
HETATM   22  C   UNL     1      -8.223   2.866  64.907  1.00  0.00    -0.087 A  
HETATM   23  C   UNL     1     -10.717   3.098  63.627  1.00  0.00    -0.234 A  
HETATM   24  C   UNL     1      -8.886   1.741  64.367  1.00  0.00    -0.102 A  
HETATM   25  C   UNL     1     -10.125   1.851  63.744  1.00  0.00    -0.113 A  
BRANCH  22  26
HETATM   26  C   UNL     1      -7.001   2.558  65.662  1.00  0.00    -0.052 A  
HETATM   27  N   UNL     1      -6.433   3.306  66.592  1.00  0.00    -0.036 NA 
HETATM   28  H   UNL     1      -6.765   4.208  66.933  1.00  0.00     0.000 HD 
HETATM   29  N   UNL     1      -5.311   2.634  67.011  1.00  0.00    -0.015 NA 
HETATM   30  N   UNL     1      -5.161   1.502  66.343  1.00  0.00    -0.005 NA 
HETATM   31  N   UNL     1      -6.182   1.475  65.475  1.00  0.00    -0.021 NA 
ENDBRANCH  22  26
ENDBRANCH  16  20
ENDBRANCH  13  14
ENDBRANCH   9  13
BRANCH   8  32
HETATM   32  C   UNL     1     -10.638   8.565  69.042  1.00  0.00    -0.154 C  
HETATM   33  O   UNL     1     -11.398   7.640  69.277  1.00  0.00     0.108 OA 
BRANCH  32  34
HETATM   34  O   UNL     1     -10.898   9.573  68.171  1.00  0.00    -0.222 OA 
BRANCH  34  35
HETATM   35  C   UNL     1     -10.722  10.869  68.763  1.00  0.00    -0.207 C  
HETATM   36  C   UNL     1     -10.293  11.789  67.620  1.00  0.00    -0.219 C  
BRANCH  35  37
HETATM   37  O   UNL     1     -11.943  11.428  69.249  1.00  0.00    -0.316 OA 
BRANCH  37  38
HETATM   38  C   UNL     1     -11.954  12.769  69.420  1.00  0.00    -0.263 C  
HETATM   39  O   UNL     1     -11.719  13.609  68.569  1.00  0.00    -0.313 OA 
BRANCH  38  40
HETATM   40  O   UNL     1     -12.302  12.991  70.701  1.00  0.00    -0.356 OA 
BRANCH  40  41
HETATM   41  C   UNL     1     -13.273  13.976  71.123  1.00  0.00    -0.267 C  
HETATM   42  C   UNL     1     -12.487  15.648  73.456  1.00  0.00    -0.669 C  
HETATM   43  C   UNL     1     -13.663  13.626  72.561  1.00  0.00    -0.663 C  
HETATM   44  C   UNL     1     -12.633  14.136  73.562  1.00  0.00     0.308 C  
HETATM   45  C   UNL     1     -12.103  16.097  72.049  1.00  0.00    -0.572 C  
HETATM   46  C   UNL     1     -12.957  15.465  70.946  1.00  0.00    -0.539 C  
ENDBRANCH  40  41
ENDBRANCH  38  40
ENDBRANCH  37  38
ENDBRANCH  35  37
ENDBRANCH  34  35
ENDBRANCH  32  34
ENDBRANCH   8  32
ENDBRANCH   3   4
ENDBRANCH   2   3
TORSDOF 13
ENDMDL
MODEL      309
REMARK 921   NORMALIZED FREE ENERGY PREDICTED BY IDOCK:   -0.17 KCAL/MOL
REMARK 922        TOTAL FREE ENERGY PREDICTED BY IDOCK:   -2.76 KCAL/MOL
REMARK 923 INTER-LIGAND FREE ENERGY PREDICTED BY IDOCK:   -5.30 KCAL/MOL
REMARK 924 INTRA-LIGAND FREE ENERGY PREDICTED BY IDOCK:    2.55 KCAL/MOL
REMARK 927      BINDING AFFINITY PREDICTED BY RF-SCORE:    0.00 PKD
ROOT
HETATM    1  C   UNL     1     -10.255   9.848  63.569  1.00  0.00     1.206 C  
HETATM    2  C   UNL     1      -8.889  10.133  62.969  1.00  0.00    -0.229 C  
ENDROOT
BRANCH   2   3
HETATM    3  O   UNL     1      -8.246  11.113  63.791  1.00  0.00     0.239 OA 
BRANCH   3   4
HETATM    4  C   UNL     1      -8.450  10.965  65.098  1.00  0.00    -0.038 A  
HETATM    5  N   UNL     1      -7.818  10.102  65.858  1.00  0.00    -0.126 NA 
HETATM    6  C   UNL     1      -8.336  10.287  67.106  1.00  0.00    -0.122 A  
HETATM    7  C   UNL     1      -9.269  11.343  67.144  1.00  0.00    -0.166 A  
HETATM    8  C   UNL     1      -9.816  11.750  68.385  1.00  0.00    -0.199 A  
HETATM    9  N   UNL     1      -9.397  11.678  65.801  1.00  0.00    -0.226 NA 
HETATM   10  C   UNL     1      -8.610   9.902  69.472  1.00  0.00    -0.194 A  
HETATM   11  C   UNL     1      -8.031   9.547  68.261  1.00  0.00    -0.094 A  
HETATM   12  C   UNL     1      -9.458  11.001  69.530  1.00  0.00     0.274 A  
BRANCH   9  13
HETATM   13  C   UNL     1     -10.429  12.462  65.122  1.00  0.00    -0.292 C  
BRANCH  13  14
HETATM   14  C   UNL     1     -10.159  13.946  65.145  1.00  0.00    -0.330 A  
HETATM   15  C   UNL     1     -10.915  16.242  65.037  1.00  0.00    -0.311 A  
HETATM   16  C   UNL     1      -9.848  16.654  65.853  1.00  0.00    -0.301 A  
HETATM   17  C   UNL     1      -8.938  14.405  65.641  1.00  0.00     0.819 A  
HETATM   18  C   UNL     1     -11.104  14.886  64.738  1.00  0.00    -0.395 A  
HETATM   19  C   UNL     1      -8.793  15.741  66.011  1.00  0.00    -0.260 A  
BRANCH  16  20
HETATM   20  C   UNL     1      -9.885  17.919  66.646  1.00  0.00    -0.342 A  
HETATM   21  C   UNL     1     -10.758  18.960  66.244  1.00  0.00    -0.363 A  
HETATM   22  C   UNL     1      -9.010  18.196  67.739  1.00  0.00    -0.266 A  
HETATM   23  C   UNL     1     -10.787  20.202  66.886  1.00  0.00    -0.084 A  
HETATM   24  C   UNL     1      -9.106  19.436  68.411  1.00  0.00    -0.410 A  
HETATM   25  C   UNL     1      -9.976  20.433  67.985  1.00  0.00    -0.381 A  
BRANCH  22  26
HETATM   26  C   UNL     1      -7.939  17.314  68.222  1.00  0.00    -0.244 A  
HETATM   27  N   UNL     1      -6.640  17.459  68.020  1.00  0.00    -0.164 NA 
HETATM   28  H   UNL     1      -6.185  18.212  67.505  1.00  0.00     0.000 HD 
HETATM   29  N   UNL     1      -6.023  16.399  68.638  1.00  0.00    -0.119 NA 
HETATM   30  N   UNL     1      -6.912  15.592  69.194  1.00  0.00    -0.152 NA 
HETATM   31  N   UNL     1      -8.102  16.133  68.898  1.00  0.00    -0.216 NA 
ENDBRANCH  22  26
ENDBRANCH  16  20
ENDBRANCH  13  14
ENDBRANCH   9  13
BRANCH   8  32
HETATM   32  C   UNL     1     -10.847  12.801  68.557  1.00  0.00    -0.253 C  
HETATM   33  O   UNL     1     -11.967  12.722  68.082  1.00  0.00    -0.333 OA 
BRANCH  32  34
HETATM   34  O   UNL     1     -10.463  13.723  69.476  1.00  0.00     0.063 OA 
BRANCH  34  35
HETATM   35  C   UNL     1     -11.574  14.270  70.202  1.00  0.00    -0.246 C  
HETATM   36  C   UNL     1     -12.785  14.114  69.280  1.00  0.00     0.385 C  
BRANCH  35  37
HETATM   37  O   UNL     1     -11.901  13.516  71.370  1.00  0.00     0.135 OA 
BRANCH  37  38
HETATM   38  C   UNL     1     -13.192  13.134  71.488  1.00  0.00    -0.282 C  
HETATM   39  O   UNL     1     -14.168  13.754  71.104  1.00  0.00     0.139 OA 
BRANCH  38  40
HETATM   40  O   UNL     1     -13.183  11.927  72.084  1.00  0.00    -0.494 OA 
BRANCH  40  41
HETATM   41  C   UNL     1     -13.682  10.714  71.476  1.00  0.00     0.231 C  
HETATM   42  C   UNL     1     -12.041   8.273  71.930  1.00  0.00    -0.382 C  
HETATM   43  C   UNL     1     -12.612  10.241  70.489  1.00  0.00    -0.338 C  
HETATM   44  C   UNL     1     -11.490   9.488  71.196  1.00  0.00    -0.430 C  
HETATM   45  C   UNL     1     -13.125   8.645  72.937  1.00  0.00     0.037 C  
HETATM   46  C   UNL     1     -14.197   9.582  72.372  1.00  0.00    -0.052 C  
ENDBRANCH  40  41
ENDBRANCH  38  40
ENDBRANCH  37  38
ENDBRANCH  35  37
ENDBRANCH  34  35
ENDBRANCH  32  34
ENDBRANCH   8  32
ENDBRANCH   3   4
ENDBRANCH   2   3
TORSDOF 13
ENDMDL
MODEL      310
REMARK 921   NORMALIZED FREE ENERGY PREDICTED BY IDOCK:    0.19 KCAL/MOL
REMARK 922        TOTAL FREE ENERGY PREDICTED BY IDOCK:   -2.12 KCAL/MOL
REMARK 923 INTER-LIGAND FREE ENERGY PREDICTED BY IDOCK:   -1.31 KCAL/MOL
REMARK 924 INTRA-LIGAND FREE ENERGY PREDICTED BY IDOCK:   -0.81 KCAL/MOL
REMARK 927      BINDING AFFINITY PREDICTED BY RF-SCORE:    0.00 PKD
ROOT
HETATM    1  C   UNL     1      -9.513   9.277  72.526  1.00  0.00     1.299 C  
HETATM    2  C   UNL     1      -8.352   8.509  73.132  1.00  0.00    -0.016 C  
ENDROOT
BRANCH   2   3
HETATM    3  O   UNL     1      -7.406   8.251  72.089  1.00  0.00    -0.090 OA 
BRANCH   3   4
HETATM    4  C   UNL     1      -7.322   9.204  71.164  1.00  0.00    -0.067 A  
HETATM    5  N   UNL     1      -6.571  10.276  71.266  1.00  0.00    -0.200 NA 
HETATM    6  C   UNL     1      -6.794  10.970  70.112  1.00  0.00     0.064 A  
HETATM    7  C   UNL     1      -7.653  10.281  69.234  1.00  0.00    -0.125 A  
HETATM    8  C   UNL     1      -7.896  10.802  67.939  1.00  0.00    -0.109 A  
HETATM    9  N   UNL     1      -8.062   9.197  70.001  1.00  0.00    -0.113 NA 
HETATM   10  C   UNL     1      -6.553  12.776  68.531  1.00  0.00    -0.086 A  
HETATM   11  C   UNL     1      -6.270  12.230  69.776  1.00  0.00    -0.125 A  
HETATM   12  C   UNL     1      -7.324  12.057  67.625  1.00  0.00    -0.121 A  
BRANCH   9  13
HETATM   13  C   UNL     1      -9.186   8.281  69.812  1.00  0.00    -0.154 C  
BRANCH  13  14
HETATM   14  C   UNL     1      -8.758   6.880  69.456  1.00  0.00    -0.133 A  
HETATM   15  C   UNL     1      -8.906   4.904  68.067  1.00  0.00    -0.112 A  
HETATM   16  C   UNL     1      -7.560   4.594  68.327  1.00  0.00    -0.076 A  
HETATM   17  C   UNL     1      -7.564   6.382  69.982  1.00  0.00    -0.096 A  
HETATM   18  C   UNL     1      -9.481   6.075  68.578  1.00  0.00    -0.127 A  
HETATM   19  C   UNL     1      -6.962   5.263  69.407  1.00  0.00    -0.055 A  
BRANCH  16  20
HETATM   20  C   UNL     1      -6.746   3.728  67.424  1.00  0.00    -0.046 A  
HETATM   21  C   UNL     1      -6.711   2.331  67.654  1.00  0.00    -0.039 A  
HETATM   22  C   UNL     1      -5.903   4.233  66.388  1.00  0.00    -0.026 A  
HETATM   23  C   UNL     1      -5.907   1.467  66.903  1.00  0.00    -0.019 A  
HETATM   24  C   UNL     1      -5.150   3.331  65.602  1.00  0.00    -0.008 A  
HETATM   25  C   UNL     1      -5.142   1.964  65.861  1.00  0.00    -0.005 A  
BRANCH  22  26
HETATM   26  C   UNL     1      -5.684   5.652  66.079  1.00  0.00    -0.014 A  
HETATM   27  N   UNL     1      -5.505   6.184  64.882  1.00  0.00    -0.017 NA 
HETATM   28  H   UNL     1      -5.503   5.689  63.990  1.00  0.00     0.000 HD 
HETATM   29  N   UNL     1      -5.323   7.532  65.071  1.00  0.00    -0.029 NA 
HETATM   30  N   UNL     1      -5.361   7.838  66.358  1.00  0.00    -0.025 NA 
HETATM   31  N   UNL     1      -5.538   6.668  66.987  1.00  0.00    -0.013 NA 
ENDBRANCH  22  26
ENDBRANCH  16  20
ENDBRANCH  13  14
ENDBRANCH   9  13
BRANCH   8  32
HETATM   32  C   UNL     1      -8.822  10.211  66.943  1.00  0.00    -0.132 C  
HETATM   33  O   UNL     1      -9.892  10.714  66.646  1.00  0.00    -0.188 OA 
BRANCH  32  34
HETATM   34  O   UNL     1      -8.232   9.196  66.263  1.00  0.00    -0.109 OA 
BRANCH  34  35
HETATM   35  C   UNL     1      -8.945   8.850  65.066  1.00  0.00    -0.108 C  
HETATM   36  C   UNL     1      -8.760  10.036  64.119  1.00  0.00    -0.221 C  
BRANCH  35  37
HETATM   37  O   UNL     1      -8.372   7.737  64.379  1.00  0.00    -0.089 OA 
BRANCH  37  38
HETATM   38  C   UNL     1      -8.880   6.523  64.688  1.00  0.00     0.488 C  
HETATM   39  O   UNL     1      -9.785   6.296  65.472  1.00  0.00     0.328 OA 
BRANCH  38  40
HETATM   40  O   UNL     1      -8.212   5.625  63.942  1.00  0.00    -0.121 OA 
BRANCH  40  41
HETATM   41  C   UNL     1      -8.812   4.826  62.896  1.00  0.00    -0.114 C  
HETATM   42  C   UNL     1      -9.644   2.080  63.686  1.00  0.00    -0.115 C  
HETATM   43  C   UNL     1      -7.915   3.602  62.703  1.00  0.00    -0.071 C  
HETATM   44  C   UNL     1      -8.191   2.531  63.753  1.00  0.00    -0.082 C  
HETATM   45  C   UNL     1     -10.620   3.238  63.863  1.00  0.00    -0.215 C  
HETATM   46  C   UNL     1     -10.296   4.457  62.993  1.00  0.00     0.119 C  
ENDBRANCH  40  41
ENDBRANCH  38  40
ENDBRANCH  37  38
ENDBRANCH  35  37
ENDBRANCH  34  35
ENDBRANCH  32  34
ENDBRANCH   8  32
ENDBRANCH   3   4
ENDBRANCH   2   3
TORSDOF 13
ENDMDL
MODEL      311
REMARK 921   NORMALIZED FREE ENERGY PREDICTED BY IDOCK:    0.22 KCAL/MOL
REMARK 922        TOTAL FREE ENERGY PREDICTED BY IDOCK:   -2.06 KCAL/MOL
REMARK 923 INTER-LIGAND FREE ENERGY PREDICTED BY IDOCK:   -0.03 KCAL/MOL
REMARK 924 INTRA-LIGAND FREE ENERGY PREDICTED BY IDOCK:   -2.03 KCAL/MOL
REMARK 927      BINDING AFFINITY PREDICTED BY RF-SCORE:    0.00 PKD
ROOT
HETATM    1  C   UNL     1      -5.130  11.757  71.401  1.00  0.00    -0.072 C  
HETATM    2  C   UNL     1      -5.303  10.980  70.107  1.00  0.00    -0.063 C  
ENDROOT
BRANCH   2   3
HETATM    3  O   UNL     1      -5.441   9.596  70.443  1.00  0.00    -0.034 OA 
BRANCH   3   4
HETATM    4  C   UNL     1      -6.596   9.274  71.019  1.00  0.00    -0.091 A  
HETATM    5  N   UNL     1      -6.708   8.701  72.195  1.00  0.00    -0.155 NA 
HETATM    6  C   UNL     1      -8.051   8.551  72.386  1.00  0.00    -0.070 A  
HETATM    7  C   UNL     1      -8.803   9.107  71.332  1.00  0.00    -0.045 A  
HETATM    8  C   UNL     1     -10.217   9.146  71.425  1.00  0.00    -0.402 A  
HETATM    9  N   UNL     1      -7.821   9.461  70.416  1.00  0.00    -0.150 NA 
HETATM   10  C   UNL     1     -10.067   7.901  73.541  1.00  0.00    -0.127 A  
HETATM   11  C   UNL     1      -8.680   7.920  73.473  1.00  0.00    -0.321 A  
HETATM   12  C   UNL     1     -10.811   8.530  72.551  1.00  0.00    -0.304 A  
BRANCH   9  13
HETATM   13  C   UNL     1      -7.934   9.787  68.994  1.00  0.00    -0.096 C  
BRANCH  13  14
HETATM   14  C   UNL     1      -7.842   8.577  68.098  1.00  0.00    -0.103 A  
HETATM   15  C   UNL     1      -8.725   6.486  67.260  1.00  0.00    -0.110 A  
HETATM   16  C   UNL     1      -8.094   6.692  66.021  1.00  0.00    -0.122 A  
HETATM   17  C   UNL     1      -6.952   8.596  67.022  1.00  0.00    -0.074 A  
HETATM   18  C   UNL     1      -8.651   7.454  68.269  1.00  0.00    -0.124 A  
HETATM   19  C   UNL     1      -7.093   7.675  65.985  1.00  0.00    -0.069 A  
BRANCH  16  20
HETATM   20  C   UNL     1      -8.555   6.028  64.765  1.00  0.00     0.036 A  
HETATM   21  C   UNL     1      -8.468   4.619  64.657  1.00  0.00    -0.135 A  
HETATM   22  C   UNL     1      -8.987   6.739  63.605  1.00  0.00     1.190 A  
HETATM   23  C   UNL     1      -8.802   3.935  63.483  1.00  0.00    -0.106 A  
HETATM   24  C   UNL     1      -9.380   6.020  62.454  1.00  0.00     0.762 A  
HETATM   25  C   UNL     1      -9.279   4.634  62.387  1.00  0.00    -0.111 A  
BRANCH  22  26
HETATM   26  C   UNL     1      -9.014   8.201  63.458  1.00  0.00     0.920 A  
HETATM   27  N   UNL     1      -9.983   9.018  63.833  1.00  0.00     1.048 NA 
HETATM   28  H   UNL     1     -10.855   8.757  64.293  1.00  0.00     0.000 HD 
HETATM   29  N   UNL     1      -9.588  10.287  63.486  1.00  0.00    -0.298 NA 
HETATM   30  N   UNL     1      -8.410  10.267  62.883  1.00  0.00    -0.159 NA 
HETATM   31  N   UNL     1      -8.074   8.971  62.823  1.00  0.00    -0.154 NA 
ENDBRANCH  22  26
ENDBRANCH  16  20
ENDBRANCH  13  14
ENDBRANCH   9  13
BRANCH   8  32
HETATM   32  C   UNL     1     -11.126   9.645  70.366  1.00  0.00    -0.290 C  
HETATM   33  O   UNL     1     -11.346   9.036  69.333  1.00  0.00     0.032 OA 
BRANCH  32  34
HETATM   34  O   UNL     1     -11.834  10.722  70.792  1.00  0.00    -0.326 OA 
BRANCH  34  35
HETATM   35  C   UNL     1     -11.758  11.825  69.876  1.00  0.00    -0.323 C  
HETATM   36  C   UNL     1     -13.095  11.837  69.134  1.00  0.00     2.129 C  
BRANCH  35  37
HETATM   37  O   UNL     1     -11.690  13.090  70.534  1.00  0.00    -0.174 OA 
BRANCH  37  38
HETATM   38  C   UNL     1     -11.717  14.178  69.733  1.00  0.00    -0.311 C  
HETATM   39  O   UNL     1     -12.674  14.906  69.533  1.00  0.00    -0.067 OA 
BRANCH  38  40
HETATM   40  O   UNL     1     -10.478  14.312  69.223  1.00  0.00    -0.199 OA 
BRANCH  40  41
HETATM   41  C   UNL     1     -10.169  15.045  68.016  1.00  0.00    -0.228 C  
HETATM   42  C   UNL     1      -7.274  15.432  67.446  1.00  0.00    -0.242 C  
HETATM   43  C   UNL     1      -9.402  16.299  68.443  1.00  0.00    -0.210 C  
HETATM   44  C   UNL     1      -7.929  15.996  68.699  1.00  0.00    -0.174 C  
HETATM   45  C   UNL     1      -7.977  14.177  66.938  1.00  0.00     0.154 C  
HETATM   46  C   UNL     1      -9.499  14.317  66.846  1.00  0.00    -0.272 C  
ENDBRANCH  40  41
ENDBRANCH  38  40
ENDBRANCH  37  38
ENDBRANCH  35  37
ENDBRANCH  34  35
ENDBRANCH  32  34
ENDBRANCH   8  32
ENDBRANCH   3   4
ENDBRANCH   2   3
TORSDOF 13
ENDMDL
MODEL      312
REMARK 921   NORMALIZED FREE ENERGY PREDICTED BY IDOCK:    0.68 KCAL/MOL
REMARK 922        TOTAL FREE ENERGY PREDICTED BY IDOCK:   -1.26 KCAL/MOL
REMARK 923 INTER-LIGAND FREE ENERGY PREDICTED BY IDOCK:   -3.41 KCAL/MOL
REMARK 924 INTRA-LIGAND FREE ENERGY PREDICTED BY IDOCK:    2.14 KCAL/MOL
REMARK 927      BINDING AFFINITY PREDICTED BY RF-SCORE:    0.00 PKD
ROOT
HETATM    1  C   UNL     1      -5.648   8.738  72.884  1.00  0.00    -0.082 C  
HETATM    2  C   UNL     1      -5.367   9.226  71.474  1.00  0.00    -0.058 C  
ENDROOT
BRANCH   2   3
HETATM    3  O   UNL     1      -5.141  10.638  71.537  1.00  0.00    -0.095 OA 
BRANCH   3   4
HETATM    4  C   UNL     1      -5.783  11.348  70.613  1.00  0.00    -0.119 A  
HETATM    5  N   UNL     1      -5.539  12.609  70.339  1.00  0.00    -0.153 NA 
HETATM    6  C   UNL     1      -6.421  12.930  69.349  1.00  0.00    -0.091 A  
HETATM    7  C   UNL     1      -7.191  11.822  68.942  1.00  0.00    -0.107 A  
HETATM    8  C   UNL     1      -8.073  11.948  67.841  1.00  0.00    -0.147 A  
HETATM    9  N   UNL     1      -6.827  10.848  69.864  1.00  0.00    -0.148 NA 
HETATM   10  C   UNL     1      -7.509  14.339  67.721  1.00  0.00    -0.175 A  
HETATM   11  C   UNL     1      -6.602  14.193  68.762  1.00  0.00    -0.094 A  
HETATM   12  C   UNL     1      -8.203  13.228  67.255  1.00  0.00    -0.164 A  
BRANCH   9  13
HETATM   13  C   UNL     1      -7.481   9.585  70.207  1.00  0.00    -0.143 C  
BRANCH  13  14
HETATM   14  C   UNL     1      -7.276   8.510  69.168  1.00  0.00    -0.068 A  
HETATM   15  C   UNL     1      -8.123   6.743  67.749  1.00  0.00    -0.113 A  
HETATM   16  C   UNL     1      -7.121   6.998  66.797  1.00  0.00    -0.082 A  
HETATM   17  C   UNL     1      -6.105   8.515  68.409  1.00  0.00    -0.050 A  
HETATM   18  C   UNL     1      -8.237   7.537  68.897  1.00  0.00    -0.128 A  
HETATM   19  C   UNL     1      -6.038   7.783  67.224  1.00  0.00    -0.049 A  
BRANCH  16  20
HETATM   20  C   UNL     1      -7.256   6.604  65.363  1.00  0.00    -0.073 A  
HETATM   21  C   UNL     1      -6.468   7.263  64.388  1.00  0.00    -0.040 A  
HETATM   22  C   UNL     1      -8.217   5.662  64.887  1.00  0.00    -0.134 A  
HETATM   23  C   UNL     1      -6.599   7.006  63.020  1.00  0.00    -0.048 A  
HETATM   24  C   UNL     1      -8.285   5.374  63.505  1.00  0.00    -0.121 A  
HETATM   25  C   UNL     1      -7.493   6.045  62.579  1.00  0.00    -0.060 A  
BRANCH  22  26
HETATM   26  C   UNL     1      -9.223   4.976  65.709  1.00  0.00    -0.156 A  
HETATM   27  N   UNL     1     -10.489   5.322  65.868  1.00  0.00    -0.472 NA 
HETATM   28  H   UNL     1     -10.962   6.115  65.434  1.00  0.00     0.000 HD 
HETATM   29  N   UNL     1     -11.045   4.409  66.730  1.00  0.00     1.495 NA 
HETATM   30  N   UNL     1     -10.145   3.523  67.124  1.00  0.00     0.408 NA 
HETATM   31  N   UNL     1      -9.004   3.900  66.530  1.00  0.00    -0.126 NA 
ENDBRANCH  22  26
ENDBRANCH  16  20
ENDBRANCH  13  14
ENDBRANCH   9  13
BRANCH   8  32
HETATM   32  C   UNL     1      -8.981  10.883  67.351  1.00  0.00    -0.136 C  
HETATM   33  O   UNL     1     -10.155  10.806  67.673  1.00  0.00    -0.169 OA 
BRANCH  32  34
HETATM   34  O   UNL     1      -8.408  10.168  66.350  1.00  0.00    -0.121 OA 
BRANCH  34  35
HETATM   35  C   UNL     1      -9.162  10.231  65.130  1.00  0.00    -0.206 C  
HETATM   36  C   UNL     1      -9.847   8.871  64.998  1.00  0.00     0.787 C  
BRANCH  35  37
HETATM   37  O   UNL     1     -10.229  11.178  65.184  1.00  0.00    -0.259 OA 
BRANCH  37  38
HETATM   38  C   UNL     1     -10.684  11.628  63.993  1.00  0.00    -0.384 C  
HETATM   39  O   UNL     1     -10.820  10.971  62.976  1.00  0.00    -0.042 OA 
BRANCH  38  40
HETATM   40  O   UNL     1     -10.982  12.930  64.161  1.00  0.00    -0.363 OA 
BRANCH  40  41
HETATM   41  C   UNL     1     -12.193  13.415  64.785  1.00  0.00    -0.409 C  
HETATM   42  C   UNL     1     -12.052  13.824  67.730  1.00  0.00    -0.325 C  
HETATM   43  C   UNL     1     -12.630  12.348  65.791  1.00  0.00     0.376 C  
HETATM   44  C   UNL     1     -11.852  12.454  67.098  1.00  0.00    -0.361 C  
HETATM   45  C   UNL     1     -11.647  14.960  66.795  1.00  0.00    -0.275 C  
HETATM   46  C   UNL     1     -12.217  14.827  65.379  1.00  0.00    -0.126 C  
ENDBRANCH  40  41
ENDBRANCH  38  40
ENDBRANCH  37  38
ENDBRANCH  35  37
ENDBRANCH  34  35
ENDBRANCH  32  34
ENDBRANCH   8  32
ENDBRANCH   3   4
ENDBRANCH   2   3
TORSDOF 13
ENDMDL
MODEL      313
REMARK 921   NORMALIZED FREE ENERGY PREDICTED BY IDOCK:    1.08 KCAL/MOL
REMARK 922        TOTAL FREE ENERGY PREDICTED BY IDOCK:   -0.55 KCAL/MOL
REMARK 923 INTER-LIGAND FREE ENERGY PREDICTED BY IDOCK:   -5.27 KCAL/MOL
REMARK 924 INTRA-LIGAND FREE ENERGY PREDICTED BY IDOCK:    4.72 KCAL/MOL
REMARK 927      BINDING AFFINITY PREDICTED BY RF-SCORE:    0.00 PKD
ROOT
HETATM    1  C   UNL     1      -9.151   7.713  70.515  1.00  0.00    -0.151 C  
HETATM    2  C   UNL     1      -9.516   8.259  69.146  1.00  0.00    -0.155 C  
ENDROOT
BRANCH   2   3
HETATM    3  O   UNL     1     -10.636   7.512  68.662  1.00  0.00    -0.197 OA 
BRANCH   3   4
HETATM    4  C   UNL     1     -10.401   6.802  67.561  1.00  0.00    -0.210 A  
HETATM    5  N   UNL     1     -11.220   5.905  67.064  1.00  0.00    -0.053 NA 
HETATM    6  C   UNL     1     -10.585   5.428  65.954  1.00  0.00     0.049 A  
HETATM    7  C   UNL     1      -9.367   6.092  65.711  1.00  0.00     0.073 A  
HETATM    8  C   UNL     1      -8.635   5.805  64.532  1.00  0.00     0.028 A  
HETATM    9  N   UNL     1      -9.231   6.894  66.837  1.00  0.00    -0.140 NA 
HETATM   10  C   UNL     1     -10.285   4.064  63.987  1.00  0.00    -0.169 A  
HETATM   11  C   UNL     1     -11.028   4.394  65.113  1.00  0.00    -0.019 A  
HETATM   12  C   UNL     1      -9.131   4.781  63.692  1.00  0.00    -0.022 A  
BRANCH   9  13
HETATM   13  C   UNL     1      -8.054   7.584  67.366  1.00  0.00    -0.116 C  
BRANCH  13  14
HETATM   14  C   UNL     1      -7.205   6.713  68.257  1.00  0.00    -0.085 A  
HETATM   15  C   UNL     1      -5.514   6.437  69.966  1.00  0.00    -0.014 A  
HETATM   16  C   UNL     1      -6.110   5.238  70.392  1.00  0.00    -0.022 A  
HETATM   17  C   UNL     1      -7.568   5.379  68.446  1.00  0.00    -0.080 A  
HETATM   18  C   UNL     1      -6.096   7.202  68.946  1.00  0.00    -0.027 A  
HETATM   19  C   UNL     1      -7.041   4.657  69.517  1.00  0.00    -0.051 A  
BRANCH  16  20
HETATM   20  C   UNL     1      -5.900   4.679  71.761  1.00  0.00    -0.013 A  
HETATM   21  C   UNL     1      -5.579   3.308  71.905  1.00  0.00    -0.008 A  
HETATM   22  C   UNL     1      -6.108   5.424  72.961  1.00  0.00    -0.039 A  
HETATM   23  C   UNL     1      -5.451   2.696  73.156  1.00  0.00     0.000 A  
HETATM   24  C   UNL     1      -5.908   4.797  74.212  1.00  0.00    -0.030 A  
HETATM   25  C   UNL     1      -5.594   3.445  74.312  1.00  0.00    -0.003 A  
BRANCH  22  26
HETATM   26  C   UNL     1      -6.580   6.813  73.037  1.00  0.00    -0.067 A  
HETATM   27  N   UNL     1      -5.900   7.901  72.718  1.00  0.00    -0.044 NA 
HETATM   28  H   UNL     1      -4.945   7.938  72.360  1.00  0.00     0.000 HD 
HETATM   29  N   UNL     1      -6.726   8.970  72.960  1.00  0.00    -0.316 NA 
HETATM   30  N   UNL     1      -7.891   8.568  73.443  1.00  0.00    -0.391 NA 
HETATM   31  N   UNL     1      -7.785   7.235  73.535  1.00  0.00    -0.091 NA 
ENDBRANCH  22  26
ENDBRANCH  16  20
ENDBRANCH  13  14
ENDBRANCH   9  13
BRANCH   8  32
HETATM   32  C   UNL     1      -7.316   6.386  64.186  1.00  0.00    -0.072 C  
HETATM   33  O   UNL     1      -6.587   5.923  63.325  1.00  0.00    -0.031 OA 
BRANCH  32  34
HETATM   34  O   UNL     1      -7.140   7.595  64.777  1.00  0.00    -0.060 OA 
BRANCH  34  35
HETATM   35  C   UNL     1      -7.894   8.634  64.135  1.00  0.00    -0.141 C  
HETATM   36  C   UNL     1      -8.476   8.000  62.871  1.00  0.00     0.059 C  
BRANCH  35  37
HETATM   37  O   UNL     1      -9.028   9.050  64.896  1.00  0.00    -0.194 OA 
BRANCH  37  38
HETATM   38  C   UNL     1      -9.130  10.376  65.133  1.00  0.00    -0.198 C  
HETATM   39  O   UNL     1      -8.880  10.944  66.182  1.00  0.00    -0.173 OA 
BRANCH  38  40
HETATM   40  O   UNL     1      -9.533  10.944  63.981  1.00  0.00    -0.226 OA 
BRANCH  40  41
HETATM   41  C   UNL     1     -10.069  12.283  63.877  1.00  0.00    -0.347 C  
HETATM   42  C   UNL     1     -12.761  12.692  65.078  1.00  0.00    -0.403 C  
HETATM   43  C   UNL     1     -11.362  12.180  63.065  1.00  0.00    -0.052 C  
HETATM   44  C   UNL     1     -12.533  11.722  63.928  1.00  0.00    -0.380 C  
HETATM   45  C   UNL     1     -11.518  12.867  65.947  1.00  0.00    -0.387 C  
HETATM   46  C   UNL     1     -10.238  13.125  65.146  1.00  0.00    -0.299 C  
ENDBRANCH  40  41
ENDBRANCH  38  40
ENDBRANCH  37  38
ENDBRANCH  35  37
ENDBRANCH  34  35
ENDBRANCH  32  34
ENDBRANCH   8  32
ENDBRANCH   3   4
ENDBRANCH   2   3
TORSDOF 13
ENDMDL
MODEL      314
REMARK 921   NORMALIZED FREE ENERGY PREDICTED BY IDOCK:    1.17 KCAL/MOL
REMARK 922        TOTAL FREE ENERGY PREDICTED BY IDOCK:   -0.40 KCAL/MOL
REMARK 923 INTER-LIGAND FREE ENERGY PREDICTED BY IDOCK:   -5.78 KCAL/MOL
REMARK 924 INTRA-LIGAND FREE ENERGY PREDICTED BY IDOCK:    5.38 KCAL/MOL
REMARK 927      BINDING AFFINITY PREDICTED BY RF-SCORE:    0.00 PKD
ROOT
HETATM    1  C   UNL     1      -7.311   5.198  62.412  1.00  0.00    -0.038 C  
HETATM    2  C   UNL     1      -8.495   6.148  62.406  1.00  0.00    -0.000 C  
ENDROOT
BRANCH   2   3
HETATM    3  O   UNL     1      -9.429   5.690  63.389  1.00  0.00     0.734 OA 
BRANCH   3   4
HETATM    4  C   UNL     1      -8.930   5.560  64.616  1.00  0.00     0.137 A  
HETATM    5  N   UNL     1      -9.034   4.479  65.352  1.00  0.00    -0.135 NA 
HETATM    6  C   UNL     1      -8.395   4.785  66.518  1.00  0.00    -0.107 A  
HETATM    7  C   UNL     1      -7.815   6.069  66.485  1.00  0.00    -0.104 A  
HETATM    8  C   UNL     1      -7.010   6.501  67.568  1.00  0.00    -0.078 A  
HETATM    9  N   UNL     1      -8.283   6.580  65.281  1.00  0.00    -0.136 NA 
HETATM   10  C   UNL     1      -7.557   4.415  68.750  1.00  0.00    -0.063 A  
HETATM   11  C   UNL     1      -8.295   3.972  67.660  1.00  0.00    -0.096 A  
HETATM   12  C   UNL     1      -6.906   5.641  68.685  1.00  0.00    -0.059 A  
BRANCH   9  13
HETATM   13  C   UNL     1      -8.322   7.959  64.796  1.00  0.00    -0.058 C  
BRANCH  13  14
HETATM   14  C   UNL     1      -8.740   8.950  65.853  1.00  0.00    -0.197 A  
HETATM   15  C   UNL     1      -8.716  11.174  66.805  1.00  0.00    -0.157 A  
HETATM   16  C   UNL     1      -9.995  10.977  67.352  1.00  0.00    -0.209 A  
HETATM   17  C   UNL     1      -9.822   8.642  66.680  1.00  0.00    -0.336 A  
HETATM   18  C   UNL     1      -8.121  10.189  66.007  1.00  0.00    -0.129 A  
HETATM   19  C   UNL     1     -10.456   9.651  67.404  1.00  0.00    -0.319 A  
BRANCH  16  20
HETATM   20  C   UNL     1     -10.896  12.110  67.717  1.00  0.00    -0.263 A  
HETATM   21  C   UNL     1     -11.084  12.431  69.084  1.00  0.00    -0.260 A  
HETATM   22  C   UNL     1     -11.677  12.839  66.770  1.00  0.00    -0.459 A  
HETATM   23  C   UNL     1     -11.975  13.423  69.505  1.00  0.00    -0.377 A  
HETATM   24  C   UNL     1     -12.522  13.880  67.218  1.00  0.00    -0.032 A  
HETATM   25  C   UNL     1     -12.679  14.164  68.571  1.00  0.00     0.845 A  
BRANCH  22  26
HETATM   26  C   UNL     1     -11.741  12.572  65.327  1.00  0.00    -0.386 A  
HETATM   27  N   UNL     1     -10.722  12.329  64.520  1.00  0.00    -0.300 NA 
HETATM   28  H   UNL     1      -9.737  12.280  64.780  1.00  0.00     0.000 HD 
HETATM   29  N   UNL     1     -11.245  12.155  63.262  1.00  0.00    -0.380 NA 
HETATM   30  N   UNL     1     -12.560  12.310  63.272  1.00  0.00    -0.670 NA 
HETATM   31  N   UNL     1     -12.863  12.614  64.541  1.00  0.00    -0.745 NA 
ENDBRANCH  22  26
ENDBRANCH  16  20
ENDBRANCH  13  14
ENDBRANCH   9  13
BRANCH   8  32
HETATM   32  C   UNL     1      -6.394   7.845  67.687  1.00  0.00    -0.052 C  
HETATM   33  O   UNL     1      -7.000   8.879  67.464  1.00  0.00    -0.073 OA 
BRANCH  32  34
HETATM   34  O   UNL     1      -5.176   7.777  68.283  1.00  0.00    -0.025 OA 
BRANCH  34  35
HETATM   35  C   UNL     1      -5.128   8.509  69.516  1.00  0.00    -0.030 C  
HETATM   36  C   UNL     1      -5.866   9.821  69.247  1.00  0.00    -0.034 C  
BRANCH  35  37
HETATM   37  O   UNL     1      -5.865   7.880  70.566  1.00  0.00    -0.029 OA 
BRANCH  37  38
HETATM   38  C   UNL     1      -6.092   8.633  71.665  1.00  0.00    -0.057 C  
HETATM   39  O   UNL     1      -5.314   8.828  72.582  1.00  0.00    -0.047 OA 
BRANCH  38  40
HETATM   40  O   UNL     1      -7.330   9.144  71.532  1.00  0.00    -0.293 OA 
BRANCH  40  41
HETATM   41  C   UNL     1      -8.544   8.359  71.566  1.00  0.00    -0.167 C  
HETATM   42  C   UNL     1      -8.790   6.466  73.850  1.00  0.00    -0.137 C  
HETATM   43  C   UNL     1      -8.123   6.890  71.473  1.00  0.00    -0.109 C  
HETATM   44  C   UNL     1      -7.671   6.348  72.825  1.00  0.00    -0.103 C  
HETATM   45  C   UNL     1      -9.284   7.901  74.009  1.00  0.00    -0.054 C  
HETATM   46  C   UNL     1      -9.567   8.607  72.680  1.00  0.00    -0.196 C  
ENDBRANCH  40  41
ENDBRANCH  38  40
ENDBRANCH  37  38
ENDBRANCH  35  37
ENDBRANCH  34  35
ENDBRANCH  32  34
ENDBRANCH   8  32
ENDBRANCH   3   4
ENDBRANCH   2   3
TORSDOF 13
ENDMDL
MODEL      315
REMARK 921   NORMALIZED FREE ENERGY PREDICTED BY IDOCK:    1.52 KCAL/MOL
REMARK 922        TOTAL FREE ENERGY PREDICTED BY IDOCK:    0.22 KCAL/MOL
REMARK 923 INTER-LIGAND FREE ENERGY PREDICTED BY IDOCK:   -3.08 KCAL/MOL
REMARK 924 INTRA-LIGAND FREE ENERGY PREDICTED BY IDOCK:    3.30 KCAL/MOL
REMARK 927      BINDING AFFINITY PREDICTED BY RF-SCORE:    0.00 PKD
ROOT
HETATM    1  C   UNL     1      -6.059  10.040  71.990  1.00  0.00     0.528 C  
HETATM    2  C   UNL     1      -5.211  10.807  70.991  1.00  0.00    -0.103 C  
ENDROOT
BRANCH   2   3
HETATM    3  O   UNL     1      -5.237  12.188  71.364  1.00  0.00    -0.262 OA 
BRANCH   3   4
HETATM    4  C   UNL     1      -5.687  13.013  70.422  1.00  0.00    -0.169 A  
HETATM    5  N   UNL     1      -5.234  14.227  70.216  1.00  0.00    -0.095 NA 
HETATM    6  C   UNL     1      -5.973  14.706  69.174  1.00  0.00    -0.100 A  
HETATM    7  C   UNL     1      -6.866  13.741  68.667  1.00  0.00    -0.102 A  
HETATM    8  C   UNL     1      -7.625  14.030  67.507  1.00  0.00    -0.195 A  
HETATM    9  N   UNL     1      -6.730  12.699  69.577  1.00  0.00    -0.032 NA 
HETATM   10  C   UNL     1      -6.698  16.308  67.522  1.00  0.00    -0.189 A  
HETATM   11  C   UNL     1      -5.911  15.997  68.623  1.00  0.00    -0.104 A  
HETATM   12  C   UNL     1      -7.511  15.329  66.962  1.00  0.00    -0.125 A  
BRANCH   9  13
HETATM   13  C   UNL     1      -7.593  11.542  69.819  1.00  0.00     0.640 C  
BRANCH  13  14
HETATM   14  C   UNL     1      -7.274  10.367  68.930  1.00  0.00    -0.082 A  
HETATM   15  C   UNL     1      -7.893   8.287  67.860  1.00  0.00    -0.114 A  
HETATM   16  C   UNL     1      -7.015   8.550  66.794  1.00  0.00    -0.073 A  
HETATM   17  C   UNL     1      -6.173  10.442  68.075  1.00  0.00    -0.055 A  
HETATM   18  C   UNL     1      -8.068   9.222  68.889  1.00  0.00    -0.103 A  
HETATM   19  C   UNL     1      -6.058   9.555  67.006  1.00  0.00    -0.063 A  
BRANCH  16  20
HETATM   20  C   UNL     1      -7.173   7.920  65.450  1.00  0.00    -0.064 A  
HETATM   21  C   UNL     1      -7.733   8.679  64.393  1.00  0.00    -0.126 A  
HETATM   22  C   UNL     1      -6.889   6.548  65.178  1.00  0.00    -0.047 A  
HETATM   23  C   UNL     1      -7.988   8.132  63.131  1.00  0.00    -0.151 A  
HETATM   24  C   UNL     1      -7.096   6.038  63.876  1.00  0.00    -0.053 A  
HETATM   25  C   UNL     1      -7.650   6.816  62.865  1.00  0.00    -0.094 A  
BRANCH  22  26
HETATM   26  C   UNL     1      -6.439   5.555  66.164  1.00  0.00    -0.044 A  
HETATM   27  N   UNL     1      -5.233   5.023  66.260  1.00  0.00    -0.008 NA 
HETATM   28  H   UNL     1      -4.428   5.229  65.668  1.00  0.00     0.000 HD 
HETATM   29  N   UNL     1      -5.273   4.138  67.310  1.00  0.00    -0.011 NA 
HETATM   30  N   UNL     1      -6.482   4.096  67.847  1.00  0.00    -0.037 NA 
HETATM   31  N   UNL     1      -7.218   4.939  67.109  1.00  0.00    -0.076 NA 
ENDBRANCH  22  26
ENDBRANCH  16  20
ENDBRANCH  13  14
ENDBRANCH   9  13
BRANCH   8  32
HETATM   32  C   UNL     1      -8.641  13.130  66.909  1.00  0.00    -0.109 C  
HETATM   33  O   UNL     1      -9.805  13.454  66.741  1.00  0.00    -0.250 OA 
BRANCH  32  34
HETATM   34  O   UNL     1      -8.066  12.021  66.379  1.00  0.00    -0.017 OA 
BRANCH  34  35
HETATM   35  C   UNL     1      -8.949  11.315  65.494  1.00  0.00    -0.129 C  
HETATM   36  C   UNL     1     -10.182  10.970  66.331  1.00  0.00    -0.284 C  
BRANCH  35  37
HETATM   37  O   UNL     1      -9.441  12.131  64.431  1.00  0.00     0.016 OA 
BRANCH  37  38
HETATM   38  C   UNL     1     -10.305  11.537  63.578  1.00  0.00    -0.433 C  
HETATM   39  O   UNL     1     -10.536  10.343  63.497  1.00  0.00     0.079 OA 
BRANCH  38  40
HETATM   40  O   UNL     1     -10.875  12.522  62.859  1.00  0.00     0.061 OA 
BRANCH  40  41
HETATM   41  C   UNL     1     -12.203  13.041  63.098  1.00  0.00    -0.222 C  
HETATM   42  C   UNL     1     -12.864  13.637  65.938  1.00  0.00    -0.328 C  
HETATM   43  C   UNL     1     -12.912  12.038  64.011  1.00  0.00    -0.251 C  
HETATM   44  C   UNL     1     -12.517  12.230  65.472  1.00  0.00     0.089 C  
HETATM   45  C   UNL     1     -12.205  14.713  65.081  1.00  0.00    -0.282 C  
HETATM   46  C   UNL     1     -12.370  14.488  63.575  1.00  0.00     0.490 C  
ENDBRANCH  40  41
ENDBRANCH  38  40
ENDBRANCH  37  38
ENDBRANCH  35  37
ENDBRANCH  34  35
ENDBRANCH  32  34
ENDBRANCH   8  32
ENDBRANCH   3   4
ENDBRANCH   2   3
TORSDOF 13
ENDMDL
MODEL      316
REMARK 921   NORMALIZED FREE ENERGY PREDICTED BY IDOCK:    1.58 KCAL/MOL
REMARK 922        TOTAL FREE ENERGY PREDICTED BY IDOCK:    0.33 KCAL/MOL
REMARK 923 INTER-LIGAND FREE ENERGY PREDICTED BY IDOCK:   -7.45 KCAL/MOL
REMARK 924 INTRA-LIGAND FREE ENERGY PREDICTED BY IDOCK:    7.78 KCAL/MOL
REMARK 927      BINDING AFFINITY PREDICTED BY RF-SCORE:    0.00 PKD
ROOT
HETATM    1  C   UNL     1      -5.169   9.594  69.706  1.00  0.00    -0.033 C  
HETATM    2  C   UNL     1      -5.953   8.657  68.805  1.00  0.00    -0.044 C  
ENDROOT
BRANCH   2   3
HETATM    3  O   UNL     1      -6.850   9.452  68.022  1.00  0.00    -0.072 OA 
BRANCH   3   4
HETATM    4  C   UNL     1      -6.859  10.747  68.327  1.00  0.00    -0.067 A  
HETATM    5  N   UNL     1      -6.214  11.279  69.340  1.00  0.00    -0.072 NA 
HETATM    6  C   UNL     1      -6.505  12.611  69.281  1.00  0.00    -0.106 A  
HETATM    7  C   UNL     1      -7.296  12.933  68.160  1.00  0.00    -0.119 A  
HETATM    8  C   UNL     1      -7.591  14.290  67.878  1.00  0.00    -0.159 A  
HETATM    9  N   UNL     1      -7.598  11.683  67.635  1.00  0.00    -0.120 NA 
HETATM   10  C   UNL     1      -6.442  14.925  69.958  1.00  0.00    -0.167 A  
HETATM   11  C   UNL     1      -6.105  13.599  70.196  1.00  0.00    -0.131 A  
HETATM   12  C   UNL     1      -7.142  15.259  68.805  1.00  0.00    -0.117 A  
BRANCH   9  13
HETATM   13  C   UNL     1      -8.630  11.289  66.676  1.00  0.00    -0.167 C  
BRANCH  13  14
HETATM   14  C   UNL     1      -9.219   9.930  66.961  1.00  0.00    -0.164 A  
HETATM   15  C   UNL     1      -9.243   7.527  66.681  1.00  0.00    -0.201 A  
HETATM   16  C   UNL     1      -9.802   7.362  67.959  1.00  0.00    -0.172 A  
HETATM   17  C   UNL     1     -10.081   9.780  68.049  1.00  0.00    -0.204 A  
HETATM   18  C   UNL     1      -8.895   8.800  66.212  1.00  0.00    -0.187 A  
HETATM   19  C   UNL     1     -10.351   8.509  68.554  1.00  0.00    -0.230 A  
BRANCH  16  20
HETATM   20  C   UNL     1      -9.688   6.087  68.727  1.00  0.00    -0.156 A  
HETATM   21  C   UNL     1      -9.313   6.133  70.092  1.00  0.00    -0.167 A  
HETATM   22  C   UNL     1      -9.832   4.793  68.141  1.00  0.00    -0.182 A  
HETATM   23  C   UNL     1      -9.105   4.978  70.852  1.00  0.00    -0.181 A  
HETATM   24  C   UNL     1      -9.680   3.642  68.948  1.00  0.00    -0.058 A  
HETATM   25  C   UNL     1      -9.310   3.730  70.286  1.00  0.00    -0.238 A  
BRANCH  22  26
HETATM   26  C   UNL     1     -10.077   4.519  66.719  1.00  0.00    -0.186 A  
HETATM   27  N   UNL     1     -11.032   5.036  65.965  1.00  0.00    -0.744 NA 
HETATM   28  H   UNL     1     -11.738   5.712  66.256  1.00  0.00     0.000 HD 
HETATM   29  N   UNL     1     -10.890   4.488  64.714  1.00  0.00    -0.039 NA 
HETATM   30  N   UNL     1      -9.884   3.627  64.687  1.00  0.00    -0.176 NA 
HETATM   31  N   UNL     1      -9.409   3.611  65.940  1.00  0.00    -0.162 NA 
ENDBRANCH  22  26
ENDBRANCH  16  20
ENDBRANCH  13  14
ENDBRANCH   9  13
BRANCH   8  32
HETATM   32  C   UNL     1      -8.458  14.760  66.772  1.00  0.00    -0.144 C  
HETATM   33  O   UNL     1      -9.074  14.005  66.038  1.00  0.00    -0.036 OA 
BRANCH  32  34
HETATM   34  O   UNL     1      -8.651  16.102  66.833  1.00  0.00    -0.183 OA 
BRANCH  34  35
HETATM   35  C   UNL     1     -10.038  16.462  66.753  1.00  0.00    -0.285 C  
HETATM   36  C   UNL     1     -10.545  15.859  65.442  1.00  0.00    -0.439 C  
BRANCH  35  37
HETATM   37  O   UNL     1     -10.831  15.850  67.771  1.00  0.00    -0.311 OA 
BRANCH  37  38
HETATM   38  C   UNL     1     -11.259  14.594  67.515  1.00  0.00    -0.333 C  
HETATM   39  O   UNL     1     -11.032  13.601  68.184  1.00  0.00    -0.240 OA 
BRANCH  38  40
HETATM   40  O   UNL     1     -12.004  14.662  66.395  1.00  0.00    -0.356 OA 
BRANCH  40  41
HETATM   41  C   UNL     1     -12.819  13.579  65.893  1.00  0.00    -0.190 C  
HETATM   42  C   UNL     1     -11.653  12.023  63.640  1.00  0.00    -0.578 C  
HETATM   43  C   UNL     1     -13.119  13.895  64.426  1.00  0.00     0.644 C  
HETATM   44  C   UNL     1     -11.955  13.509  63.519  1.00  0.00    -0.388 C  
HETATM   45  C   UNL     1     -11.345  11.608  65.076  1.00  0.00    -0.237 C  
HETATM   46  C   UNL     1     -12.357  12.133  66.099  1.00  0.00     0.449 C  
ENDBRANCH  40  41
ENDBRANCH  38  40
ENDBRANCH  37  38
ENDBRANCH  35  37
ENDBRANCH  34  35
ENDBRANCH  32  34
ENDBRANCH   8  32
ENDBRANCH   3   4
ENDBRANCH   2   3
TORSDOF 13
ENDMDL
MODEL      317
REMARK 921   NORMALIZED FREE ENERGY PREDICTED BY IDOCK:    2.06 KCAL/MOL
REMARK 922        TOTAL FREE ENERGY PREDICTED BY IDOCK:    1.18 KCAL/MOL
REMARK 923 INTER-LIGAND FREE ENERGY PREDICTED BY IDOCK:   -7.12 KCAL/MOL
REMARK 924 INTRA-LIGAND FREE ENERGY PREDICTED BY IDOCK:    8.29 KCAL/MOL
REMARK 927      BINDING AFFINITY PREDICTED BY RF-SCORE:    0.00 PKD
ROOT
HETATM    1  C   UNL     1      -9.367   9.197  65.615  1.00  0.00    -0.300 C  
HETATM    2  C   UNL     1      -8.353   9.896  64.727  1.00  0.00    -0.160 C  
ENDROOT
BRANCH   2   3
HETATM    3  O   UNL     1      -7.484   8.896  64.184  1.00  0.00    -0.104 OA 
BRANCH   3   4
HETATM    4  C   UNL     1      -7.710   7.661  64.626  1.00  0.00    -0.121 A  
HETATM    5  N   UNL     1      -7.943   6.625  63.855  1.00  0.00    -0.107 NA 
HETATM    6  C   UNL     1      -8.121   5.581  64.715  1.00  0.00    -0.126 A  
HETATM    7  C   UNL     1      -7.926   5.959  66.058  1.00  0.00    -0.108 A  
HETATM    8  C   UNL     1      -7.954   4.972  67.075  1.00  0.00    -0.103 A  
HETATM    9  N   UNL     1      -7.775   7.337  65.964  1.00  0.00    -0.092 NA 
HETATM   10  C   UNL     1      -8.558   3.301  65.374  1.00  0.00    -0.112 A  
HETATM   11  C   UNL     1      -8.468   4.262  64.375  1.00  0.00    -0.112 A  
HETATM   12  C   UNL     1      -8.274   3.650  66.689  1.00  0.00    -0.099 A  
BRANCH   9  13
HETATM   13  C   UNL     1      -7.861   8.366  67.001  1.00  0.00    -0.096 C  
BRANCH  13  14
HETATM   14  C   UNL     1      -8.887   8.057  68.062  1.00  0.00    -0.128 A  
HETATM   15  C   UNL     1      -9.606   8.024  70.372  1.00  0.00    -0.174 A  
HETATM   16  C   UNL     1     -10.949   8.156  69.978  1.00  0.00    -0.199 A  
HETATM   17  C   UNL     1     -10.210   7.830  67.680  1.00  0.00    -0.282 A  
HETATM   18  C   UNL     1      -8.577   8.039  69.421  1.00  0.00    -0.136 A  
HETATM   19  C   UNL     1     -11.232   7.901  68.626  1.00  0.00     0.455 A  
BRANCH  16  20
HETATM   20  C   UNL     1     -12.004   8.689  70.889  1.00  0.00    -0.220 A  
HETATM   21  C   UNL     1     -12.637   7.811  71.802  1.00  0.00    -0.356 A  
HETATM   22  C   UNL     1     -12.502  10.026  70.828  1.00  0.00    -0.386 A  
HETATM   23  C   UNL     1     -13.690   8.219  72.627  1.00  0.00    -0.004 A  
HETATM   24  C   UNL     1     -13.523  10.429  71.718  1.00  0.00    -0.366 A  
HETATM   25  C   UNL     1     -14.120   9.535  72.601  1.00  0.00    -0.036 A  
BRANCH  22  26
HETATM   26  C   UNL     1     -12.087  11.052  69.862  1.00  0.00    -0.361 A  
HETATM   27  N   UNL     1     -11.553  12.230  70.136  1.00  0.00    -0.537 NA 
HETATM   28  H   UNL     1     -11.339  12.601  71.061  1.00  0.00     0.000 HD 
HETATM   29  N   UNL     1     -11.341  12.858  68.933  1.00  0.00    -0.271 NA 
HETATM   30  N   UNL     1     -11.755  12.104  67.927  1.00  0.00    -0.426 NA 
HETATM   31  N   UNL     1     -12.259  11.005  68.503  1.00  0.00    -0.522 NA 
ENDBRANCH  22  26
ENDBRANCH  16  20
ENDBRANCH  13  14
ENDBRANCH   9  13
BRANCH   8  32
HETATM   32  C   UNL     1      -7.825   5.242  68.527  1.00  0.00    -0.083 C  
HETATM   33  O   UNL     1      -8.455   4.637  69.378  1.00  0.00    -0.081 OA 
BRANCH  32  34
HETATM   34  O   UNL     1      -6.776   6.064  68.784  1.00  0.00    -0.059 OA 
BRANCH  34  35
HETATM   35  C   UNL     1      -5.839   5.486  69.705  1.00  0.00    -0.017 C  
HETATM   36  C   UNL     1      -5.209   6.666  70.446  1.00  0.00    -0.018 C  
BRANCH  35  37
HETATM   37  O   UNL     1      -6.469   4.706  70.723  1.00  0.00    -0.028 OA 
BRANCH  37  38
HETATM   38  C   UNL     1      -6.870   5.380  71.823  1.00  0.00    -0.065 C  
HETATM   39  O   UNL     1      -6.307   6.332  72.334  1.00  0.00    -0.052 OA 
BRANCH  38  40
HETATM   40  O   UNL     1      -8.022   4.811  72.224  1.00  0.00    -0.101 OA 
BRANCH  40  41
HETATM   41  C   UNL     1      -8.112   3.766  73.220  1.00  0.00    -0.087 C  
HETATM   42  C   UNL     1     -10.851   2.742  73.774  1.00  0.00    -0.295 C  
HETATM   43  C   UNL     1      -8.985   4.309  74.354  1.00  0.00    -0.104 C  
HETATM   44  C   UNL     1     -10.469   4.195  74.024  1.00  0.00    -0.279 C  
HETATM   45  C   UNL     1     -10.025   2.109  72.658  1.00  0.00    -0.199 C  
HETATM   46  C   UNL     1      -8.519   2.353  72.790  1.00  0.00    -0.063 C  
ENDBRANCH  40  41
ENDBRANCH  38  40
ENDBRANCH  37  38
ENDBRANCH  35  37
ENDBRANCH  34  35
ENDBRANCH  32  34
ENDBRANCH   8  32
ENDBRANCH   3   4
ENDBRANCH   2   3
TORSDOF 13
ENDMDL
MODEL      318
REMARK 921   NORMALIZED FREE ENERGY PREDICTED BY IDOCK:    2.07 KCAL/MOL
REMARK 922        TOTAL FREE ENERGY PREDICTED BY IDOCK:    1.19 KCAL/MOL
REMARK 923 INTER-LIGAND FREE ENERGY PREDICTED BY IDOCK:   -5.55 KCAL/MOL
REMARK 924 INTRA-LIGAND FREE ENERGY PREDICTED BY IDOCK:    6.74 KCAL/MOL
REMARK 927      BINDING AFFINITY PREDICTED BY RF-SCORE:    0.00 PKD
ROOT
HETATM    1  C   UNL     1      -7.323   5.202  62.424  1.00  0.00    -0.038 C  
HETATM    2  C   UNL     1      -8.536   6.112  62.520  1.00  0.00     0.031 C  
ENDROOT
BRANCH   2   3
HETATM    3  O   UNL     1      -9.408   5.574  63.519  1.00  0.00     0.474 OA 
BRANCH   3   4
HETATM    4  C   UNL     1      -8.850   5.408  64.715  1.00  0.00    -0.020 A  
HETATM    5  N   UNL     1      -8.831   4.274  65.377  1.00  0.00    -0.125 NA 
HETATM    6  C   UNL     1      -8.174   4.557  66.539  1.00  0.00    -0.103 A  
HETATM    7  C   UNL     1      -7.709   5.886  66.577  1.00  0.00    -0.100 A  
HETATM    8  C   UNL     1      -6.901   6.315  67.659  1.00  0.00    -0.069 A  
HETATM    9  N   UNL     1      -8.267   6.433  65.428  1.00  0.00    -0.139 NA 
HETATM   10  C   UNL     1      -7.218   4.114  68.709  1.00  0.00    -0.055 A  
HETATM   11  C   UNL     1      -7.958   3.681  67.616  1.00  0.00    -0.081 A  
HETATM   12  C   UNL     1      -6.678   5.394  68.709  1.00  0.00    -0.053 A  
BRANCH   9  13
HETATM   13  C   UNL     1      -8.445   7.834  65.043  1.00  0.00    -0.036 C  
BRANCH  13  14
HETATM   14  C   UNL     1      -8.810   8.727  66.201  1.00  0.00    -0.201 A  
HETATM   15  C   UNL     1      -8.871  10.897  67.270  1.00  0.00    -0.134 A  
HETATM   16  C   UNL     1     -10.041  10.545  67.965  1.00  0.00    -0.190 A  
HETATM   17  C   UNL     1      -9.738   8.274  67.141  1.00  0.00    -0.255 A  
HETATM   18  C   UNL     1      -8.297  10.015  66.346  1.00  0.00    -0.126 A  
HETATM   19  C   UNL     1     -10.362   9.179  67.998  1.00  0.00    -0.272 A  
BRANCH  16  20
HETATM   20  C   UNL     1     -10.989  11.563  68.508  1.00  0.00    -0.268 A  
HETATM   21  C   UNL     1     -11.023  12.854  67.927  1.00  0.00    -0.266 A  
HETATM   22  C   UNL     1     -11.803  11.352  69.661  1.00  0.00    -0.431 A  
HETATM   23  C   UNL     1     -11.824  13.883  68.434  1.00  0.00    -0.409 A  
HETATM   24  C   UNL     1     -12.651  12.389  70.114  1.00  0.00     0.046 A  
HETATM   25  C   UNL     1     -12.655  13.644  69.516  1.00  0.00     0.095 A  
BRANCH  22  26
HETATM   26  C   UNL     1     -11.812  10.142  70.494  1.00  0.00    -0.321 A  
HETATM   27  N   UNL     1     -12.652   9.124  70.406  1.00  0.00    -0.275 NA 
HETATM   28  H   UNL     1     -13.416   9.022  69.739  1.00  0.00     0.000 HD 
HETATM   29  N   UNL     1     -12.297   8.231  71.387  1.00  0.00    -0.305 NA 
HETATM   30  N   UNL     1     -11.273   8.686  72.092  1.00  0.00    -0.364 NA 
HETATM   31  N   UNL     1     -11.001   9.890  71.570  1.00  0.00    -0.092 NA 
ENDBRANCH  22  26
ENDBRANCH  16  20
ENDBRANCH  13  14
ENDBRANCH   9  13
BRANCH   8  32
HETATM   32  C   UNL     1      -6.399   7.697  67.851  1.00  0.00    -0.050 C  
HETATM   33  O   UNL     1      -7.095   8.687  67.704  1.00  0.00    -0.077 OA 
BRANCH  32  34
HETATM   34  O   UNL     1      -5.166   7.699  68.419  1.00  0.00    -0.024 OA 
BRANCH  34  35
HETATM   35  C   UNL     1      -5.143   8.388  69.678  1.00  0.00    -0.030 C  
HETATM   36  C   UNL     1      -5.974   9.655  69.469  1.00  0.00    -0.033 C  
BRANCH  35  37
HETATM   37  O   UNL     1      -5.815   7.673  70.715  1.00  0.00    -0.030 OA 
BRANCH  37  38
HETATM   38  C   UNL     1      -6.783   8.350  71.372  1.00  0.00    -0.063 C  
HETATM   39  O   UNL     1      -6.619   9.273  72.151  1.00  0.00    -0.296 OA 
BRANCH  38  40
HETATM   40  O   UNL     1      -7.957   7.825  70.976  1.00  0.00    -0.087 OA 
BRANCH  40  41
HETATM   41  C   UNL     1      -8.315   6.431  71.120  1.00  0.00    -0.123 C  
HETATM   42  C   UNL     1      -8.705   5.481  73.913  1.00  0.00    -0.121 C  
HETATM   43  C   UNL     1      -7.200   5.769  71.932  1.00  0.00    -0.091 C  
HETATM   44  C   UNL     1      -7.367   6.021  73.427  1.00  0.00    -0.089 C  
HETATM   45  C   UNL     1      -9.885   6.081  73.155  1.00  0.00    -0.175 C  
HETATM   46  C   UNL     1      -9.712   6.065  71.633  1.00  0.00    -0.180 C  
ENDBRANCH  40  41
ENDBRANCH  38  40
ENDBRANCH  37  38
ENDBRANCH  35  37
ENDBRANCH  34  35
ENDBRANCH  32  34
ENDBRANCH   8  32
ENDBRANCH   3   4
ENDBRANCH   2   3
TORSDOF 13
ENDMDL
MODEL      319
REMARK 921   NORMALIZED FREE ENERGY PREDICTED BY IDOCK:    2.59 KCAL/MOL
REMARK 922        TOTAL FREE ENERGY PREDICTED BY IDOCK:    2.10 KCAL/MOL
REMARK 923 INTER-LIGAND FREE ENERGY PREDICTED BY IDOCK:   -1.39 KCAL/MOL
REMARK 924 INTRA-LIGAND FREE ENERGY PREDICTED BY IDOCK:    3.48 KCAL/MOL
REMARK 927      BINDING AFFINITY PREDICTED BY RF-SCORE:    0.00 PKD
ROOT
HETATM    1  C   UNL     1      -6.732  10.302  71.484  1.00  0.00     1.081 C  
HETATM    2  C   UNL     1      -7.323   9.502  72.631  1.00  0.00     1.550 C  
ENDROOT
BRANCH   2   3
HETATM    3  O   UNL     1      -7.659   8.204  72.132  1.00  0.00    -0.099 OA 
BRANCH   3   4
HETATM    4  C   UNL     1      -7.345   7.998  70.855  1.00  0.00    -0.058 A  
HETATM    5  N   UNL     1      -6.212   7.480  70.441  1.00  0.00    -0.034 NA 
HETATM    6  C   UNL     1      -6.313   7.459  69.081  1.00  0.00    -0.036 A  
HETATM    7  C   UNL     1      -7.570   7.911  68.633  1.00  0.00    -0.101 A  
HETATM    8  C   UNL     1      -7.889   7.842  67.254  1.00  0.00    -0.113 A  
HETATM    9  N   UNL     1      -8.164   8.358  69.807  1.00  0.00    -0.117 NA 
HETATM   10  C   UNL     1      -5.605   7.043  66.812  1.00  0.00    -0.022 A  
HETATM   11  C   UNL     1      -5.321   7.056  68.171  1.00  0.00    -0.020 A  
HETATM   12  C   UNL     1      -6.875   7.400  66.374  1.00  0.00    -0.061 A  
BRANCH   9  13
HETATM   13  C   UNL     1      -9.325   9.227  70.003  1.00  0.00    -0.209 C  
BRANCH  13  14
HETATM   14  C   UNL     1      -9.287  10.469  69.148  1.00  0.00    -0.200 A  
HETATM   15  C   UNL     1     -10.323  12.471  68.268  1.00  0.00    -0.241 A  
HETATM   16  C   UNL     1      -9.069  13.097  68.158  1.00  0.00    -0.200 A  
HETATM   17  C   UNL     1      -8.053  10.953  68.709  1.00  0.00    -0.145 A  
HETATM   18  C   UNL     1     -10.435  11.188  68.820  1.00  0.00    -0.227 A  
HETATM   19  C   UNL     1      -7.944  12.262  68.240  1.00  0.00    -0.163 A  
BRANCH  16  20
HETATM   20  C   UNL     1      -8.914  14.581  68.117  1.00  0.00    -0.182 A  
HETATM   21  C   UNL     1      -7.999  15.155  67.200  1.00  0.00    -0.248 A  
HETATM   22  C   UNL     1      -9.560  15.472  69.026  1.00  0.00    -0.238 A  
HETATM   23  C   UNL     1      -7.739  16.528  67.161  1.00  0.00    -0.214 A  
HETATM   24  C   UNL     1      -9.328  16.863  68.923  1.00  0.00    -0.229 A  
HETATM   25  C   UNL     1      -8.420  17.387  68.008  1.00  0.00    -0.235 A  
BRANCH  22  26
HETATM   26  C   UNL     1     -10.432  15.075  70.140  1.00  0.00    -0.080 A  
HETATM   27  N   UNL     1     -11.544  14.365  70.062  1.00  0.00    -0.291 NA 
HETATM   28  H   UNL     1     -11.960  13.976  69.215  1.00  0.00     0.000 HD 
HETATM   29  N   UNL     1     -12.032  14.250  71.340  1.00  0.00    -0.281 NA 
HETATM   30  N   UNL     1     -11.259  14.894  72.200  1.00  0.00    -0.022 NA 
HETATM   31  N   UNL     1     -10.293  15.444  71.452  1.00  0.00     0.588 NA 
ENDBRANCH  22  26
ENDBRANCH  16  20
ENDBRANCH  13  14
ENDBRANCH   9  13
BRANCH   8  32
HETATM   32  C   UNL     1      -9.146   8.339  66.646  1.00  0.00    -0.166 C  
HETATM   33  O   UNL     1      -9.496   9.506  66.693  1.00  0.00    -0.152 OA 
BRANCH  32  34
HETATM   34  O   UNL     1      -9.719   7.394  65.857  1.00  0.00     0.109 OA 
BRANCH  34  35
HETATM   35  C   UNL     1      -9.984   6.174  66.565  1.00  0.00    -0.126 C  
HETATM   36  C   UNL     1     -11.475   5.897  66.365  1.00  0.00     0.799 C  
BRANCH  35  37
HETATM   37  O   UNL     1      -9.320   5.045  65.997  1.00  0.00    -0.146 OA 
BRANCH  37  38
HETATM   38  C   UNL     1      -9.484   3.871  66.646  1.00  0.00    -0.199 C  
HETATM   39  O   UNL     1      -9.897   3.725  67.783  1.00  0.00    -0.120 OA 
BRANCH  38  40
HETATM   40  O   UNL     1      -9.128   2.901  65.784  1.00  0.00    -0.144 OA 
BRANCH  40  41
HETATM   41  C   UNL     1      -9.048   3.075  64.350  1.00  0.00    -0.121 C  
HETATM   42  C   UNL     1      -6.351   2.686  63.153  1.00  0.00    -0.018 C  
HETATM   43  C   UNL     1      -8.080   4.233  64.098  1.00  0.00    -0.092 C  
HETATM   44  C   UNL     1      -6.626   3.778  64.178  1.00  0.00    -0.042 C  
HETATM   45  C   UNL     1      -7.277   1.485  63.321  1.00  0.00    -0.035 C  
HETATM   46  C   UNL     1      -8.755   1.860  63.463  1.00  0.00    -0.084 C  
ENDBRANCH  40  41
ENDBRANCH  38  40
ENDBRANCH  37  38
ENDBRANCH  35  37
ENDBRANCH  34  35
ENDBRANCH  32  34
ENDBRANCH   8  32
ENDBRANCH   3   4
ENDBRANCH   2   3
TORSDOF 13
ENDMDL
MODEL      320
REMARK 921   NORMALIZED FREE ENERGY PREDICTED BY IDOCK:    3.03 KCAL/MOL
REMARK 922        TOTAL FREE ENERGY PREDICTED BY IDOCK:    2.88 KCAL/MOL
REMARK 923 INTER-LIGAND FREE ENERGY PREDICTED BY IDOCK:   -2.45 KCAL/MOL
REMARK 924 INTRA-LIGAND FREE ENERGY PREDICTED BY IDOCK:    5.33 KCAL/MOL
REMARK 927      BINDING AFFINITY PREDICTED BY RF-SCORE:    0.00 PKD
ROOT
HETATM    1  C   UNL     1     -11.540  13.722  71.203  1.00  0.00     0.514 C  
HETATM    2  C   UNL     1     -12.618  14.249  70.273  1.00  0.00    -0.319 C  
ENDROOT
BRANCH   2   3
HETATM    3  O   UNL     1     -12.931  13.214  69.335  1.00  0.00     0.686 OA 
BRANCH   3   4
HETATM    4  C   UNL     1     -12.253  13.273  68.192  1.00  0.00    -0.061 A  
HETATM    5  N   UNL     1     -12.777  13.590  67.031  1.00  0.00     0.150 NA 
HETATM    6  C   UNL     1     -11.740  13.520  66.147  1.00  0.00    -0.365 A  
HETATM    7  C   UNL     1     -10.519  13.219  66.783  1.00  0.00    -0.270 A  
HETATM    8  C   UNL     1      -9.317  13.226  66.032  1.00  0.00    -0.016 A  
HETATM    9  N   UNL     1     -10.916  12.955  68.088  1.00  0.00    -0.237 NA 
HETATM   10  C   UNL     1     -10.641  13.653  64.003  1.00  0.00     0.127 A  
HETATM   11  C   UNL     1     -11.807  13.705  64.756  1.00  0.00    -0.414 A  
HETATM   12  C   UNL     1      -9.422  13.449  64.639  1.00  0.00     0.790 A  
BRANCH   9  13
HETATM   13  C   UNL     1     -10.202  12.278  69.171  1.00  0.00     0.207 C  
BRANCH  13  14
HETATM   14  C   UNL     1      -9.795  10.868  68.824  1.00  0.00    -0.203 A  
HETATM   15  C   UNL     1      -9.760   8.981  67.309  1.00  0.00    -0.232 A  
HETATM   16  C   UNL     1      -8.526   8.557  67.831  1.00  0.00    -0.130 A  
HETATM   17  C   UNL     1      -8.779  10.255  69.560  1.00  0.00    -0.155 A  
HETATM   18  C   UNL     1     -10.358  10.166  67.760  1.00  0.00    -0.253 A  
HETATM   19  C   UNL     1      -8.138   9.124  69.056  1.00  0.00    -0.102 A  
BRANCH  16  20
HETATM   20  C   UNL     1      -7.591   7.678  67.069  1.00  0.00    -0.103 A  
HETATM   21  C   UNL     1      -6.261   8.111  66.848  1.00  0.00    -0.055 A  
HETATM   22  C   UNL     1      -7.984   6.454  66.447  1.00  0.00    -0.110 A  
HETATM   23  C   UNL     1      -5.354   7.380  66.074  1.00  0.00    -0.025 A  
HETATM   24  C   UNL     1      -7.029   5.703  65.724  1.00  0.00    -0.065 A  
HETATM   25  C   UNL     1      -5.731   6.164  65.528  1.00  0.00    -0.024 A  
BRANCH  22  26
HETATM   26  C   UNL     1      -9.344   5.899  66.432  1.00  0.00    -0.157 A  
HETATM   27  N   UNL     1      -9.845   5.051  65.550  1.00  0.00    -0.345 NA 
HETATM   28  H   UNL     1      -9.358   4.646  64.751  1.00  0.00     0.000 HD 
HETATM   29  N   UNL     1     -11.148   4.821  65.917  1.00  0.00     0.049 NA 
HETATM   30  N   UNL     1     -11.468   5.526  66.991  1.00  0.00     0.964 NA 
HETATM   31  N   UNL     1     -10.366   6.230  67.284  1.00  0.00    -0.184 NA 
ENDBRANCH  22  26
ENDBRANCH  16  20
ENDBRANCH  13  14
ENDBRANCH   9  13
BRANCH   8  32
HETATM   32  C   UNL     1      -7.980  12.870  66.562  1.00  0.00     0.579 C  
HETATM   33  O   UNL     1      -7.572  11.722  66.629  1.00  0.00    -0.108 OA 
BRANCH  32  34
HETATM   34  O   UNL     1      -7.210  13.973  66.740  1.00  0.00     0.335 OA 
BRANCH  34  35
HETATM   35  C   UNL     1      -7.900  15.017  67.442  1.00  0.00    -0.200 C  
HETATM   36  C   UNL     1      -7.762  14.677  68.926  1.00  0.00    -0.141 C  
BRANCH  35  37
HETATM   37  O   UNL     1      -7.275  16.293  67.296  1.00  0.00    -0.150 OA 
BRANCH  37  38
HETATM   38  C   UNL     1      -6.840  16.874  68.436  1.00  0.00    -0.167 C  
HETATM   39  O   UNL     1      -6.572  16.307  69.480  1.00  0.00    -0.193 OA 
BRANCH  38  40
HETATM   40  O   UNL     1      -6.738  18.192  68.181  1.00  0.00    -0.198 OA 
BRANCH  40  41
HETATM   41  C   UNL     1      -7.647  18.932  67.335  1.00  0.00    -0.230 C  
HETATM   42  C   UNL     1     -10.539  18.617  67.964  1.00  0.00    -0.350 C  
HETATM   43  C   UNL     1      -8.539  17.902  66.637  1.00  0.00    -0.283 C  
HETATM   44  C   UNL     1      -9.675  17.437  67.542  1.00  0.00    -0.266 C  
HETATM   45  C   UNL     1      -9.734  19.705  68.667  1.00  0.00    -0.486 C  
HETATM   46  C   UNL     1      -8.449  20.094  67.930  1.00  0.00    -0.255 C  
ENDBRANCH  40  41
ENDBRANCH  38  40
ENDBRANCH  37  38
ENDBRANCH  35  37
ENDBRANCH  34  35
ENDBRANCH  32  34
ENDBRANCH   8  32
ENDBRANCH   3   4
ENDBRANCH   2   3
TORSDOF 13
ENDMDL
MODEL      321
REMARK 921   NORMALIZED FREE ENERGY PREDICTED BY IDOCK:    3.69 KCAL/MOL
REMARK 922        TOTAL FREE ENERGY PREDICTED BY IDOCK:    4.04 KCAL/MOL
REMARK 923 INTER-LIGAND FREE ENERGY PREDICTED BY IDOCK:   -0.74 KCAL/MOL
REMARK 924 INTRA-LIGAND FREE ENERGY PREDICTED BY IDOCK:    4.78 KCAL/MOL
REMARK 927      BINDING AFFINITY PREDICTED BY RF-SCORE:    0.00 PKD
ROOT
HETATM    1  C   UNL     1      -6.496  11.151  64.985  1.00  0.00     0.700 C  
HETATM    2  C   UNL     1      -7.074  11.286  63.588  1.00  0.00     1.404 C  
ENDROOT
BRANCH   2   3
HETATM    3  O   UNL     1      -7.876  10.128  63.333  1.00  0.00    -0.151 OA 
BRANCH   3   4
HETATM    4  C   UNL     1      -7.662   9.108  64.161  1.00  0.00    -0.121 A  
HETATM    5  N   UNL     1      -6.722   8.205  64.003  1.00  0.00    -0.066 NA 
HETATM    6  C   UNL     1      -6.869   7.358  65.062  1.00  0.00    -0.050 A  
HETATM    7  C   UNL     1      -7.883   7.779  65.945  1.00  0.00    -0.102 A  
HETATM    8  C   UNL     1      -8.089   7.081  67.161  1.00  0.00    -0.118 A  
HETATM    9  N   UNL     1      -8.447   8.852  65.265  1.00  0.00    -0.159 NA 
HETATM   10  C   UNL     1      -6.377   5.458  66.466  1.00  0.00    -0.039 A  
HETATM   11  C   UNL     1      -6.139   6.182  65.305  1.00  0.00    -0.030 A  
HETATM   12  C   UNL     1      -7.311   5.922  67.384  1.00  0.00    -0.077 A  
BRANCH   9  13
HETATM   13  C   UNL     1      -9.730   9.525  65.467  1.00  0.00    -0.273 C  
BRANCH  13  14
HETATM   14  C   UNL     1      -9.658  11.016  65.254  1.00  0.00    -0.270 A  
HETATM   15  C   UNL     1     -10.705  13.142  64.765  1.00  0.00    -0.381 A  
HETATM   16  C   UNL     1      -9.730  13.820  65.518  1.00  0.00    -0.097 A  
HETATM   17  C   UNL     1      -8.525  11.709  65.684  1.00  0.00     0.285 A  
HETATM   18  C   UNL     1     -10.704  11.744  64.688  1.00  0.00    -0.363 A  
HETATM   19  C   UNL     1      -8.570  13.095  65.835  1.00  0.00     1.056 A  
BRANCH  16  20
HETATM   20  C   UNL     1      -9.960  15.177  66.094  1.00  0.00    -0.317 A  
HETATM   21  C   UNL     1      -9.524  16.316  65.374  1.00  0.00     0.298 A  
HETATM   22  C   UNL     1     -10.506  15.405  67.393  1.00  0.00    -0.277 A  
HETATM   23  C   UNL     1      -9.630  17.613  65.888  1.00  0.00    -0.003 A  
HETATM   24  C   UNL     1     -10.661  16.730  67.861  1.00  0.00    -0.347 A  
HETATM   25  C   UNL     1     -10.219  17.823  67.123  1.00  0.00    -0.353 A  
BRANCH  22  26
HETATM   26  C   UNL     1     -10.888  14.363  68.356  1.00  0.00    -0.248 A  
HETATM   27  N   UNL     1     -11.874  13.491  68.233  1.00  0.00    -0.356 NA 
HETATM   28  H   UNL     1     -12.513  13.404  67.443  1.00  0.00     0.000 HD 
HETATM   29  N   UNL     1     -11.870  12.725  69.373  1.00  0.00    -0.307 NA 
HETATM   30  N   UNL     1     -10.921  13.122  70.206  1.00  0.00     0.763 NA 
HETATM   31  N   UNL     1     -10.341  14.166  69.598  1.00  0.00     0.174 NA 
ENDBRANCH  22  26
ENDBRANCH  16  20
ENDBRANCH  13  14
ENDBRANCH   9  13
BRANCH   8  32
HETATM   32  C   UNL     1      -9.156   7.382  68.144  1.00  0.00    -0.131 C  
HETATM   33  O   UNL     1      -9.526   8.515  68.404  1.00  0.00    -0.135 OA 
BRANCH  32  34
HETATM   34  O   UNL     1      -9.803   6.253  68.530  1.00  0.00    -0.133 OA 
BRANCH  34  35
HETATM   35  C   UNL     1     -10.286   6.331  69.880  1.00  0.00    -0.184 C  
HETATM   36  C   UNL     1     -11.481   7.284  69.836  1.00  0.00    -0.085 C  
BRANCH  35  37
HETATM   37  O   UNL     1     -10.818   5.093  70.353  1.00  0.00    -0.160 OA 
BRANCH  37  38
HETATM   38  C   UNL     1      -9.937   4.075  70.471  1.00  0.00    -0.055 C  
HETATM   39  O   UNL     1     -10.042   2.966  69.978  1.00  0.00     0.319 OA 
BRANCH  38  40
HETATM   40  O   UNL     1      -8.914   4.536  71.215  1.00  0.00    -0.120 OA 
BRANCH  40  41
HETATM   41  C   UNL     1      -7.529   4.511  70.800  1.00  0.00    -0.052 C  
HETATM   42  C   UNL     1      -5.539   4.072  72.969  1.00  0.00    -0.003 C  
HETATM   43  C   UNL     1      -6.828   5.662  71.526  1.00  0.00    -0.066 C  
HETATM   44  C   UNL     1      -6.461   5.283  72.957  1.00  0.00    -0.064 C  
HETATM   45  C   UNL     1      -6.151   2.869  72.259  1.00  0.00    -0.013 C  
HETATM   46  C   UNL     1      -6.743   3.199  70.885  1.00  0.00    -0.032 C  
ENDBRANCH  40  41
ENDBRANCH  38  40
ENDBRANCH  37  38
ENDBRANCH  35  37
ENDBRANCH  34  35
ENDBRANCH  32  34
ENDBRANCH   8  32
ENDBRANCH   3   4
ENDBRANCH   2   3
TORSDOF 13
ENDMDL
MODEL      322
REMARK 921   NORMALIZED FREE ENERGY PREDICTED BY IDOCK:    3.72 KCAL/MOL
REMARK 922        TOTAL FREE ENERGY PREDICTED BY IDOCK:    4.10 KCAL/MOL
REMARK 923 INTER-LIGAND FREE ENERGY PREDICTED BY IDOCK:    2.06 KCAL/MOL
REMARK 924 INTRA-LIGAND FREE ENERGY PREDICTED BY IDOCK:    2.04 KCAL/MOL
REMARK 927      BINDING AFFINITY PREDICTED BY RF-SCORE:    0.00 PKD
ROOT
HETATM    1  C   UNL     1     -12.203  11.256  71.097  1.00  0.00    -0.351 C  
HETATM    2  C   UNL     1     -13.655  11.258  71.540  1.00  0.00     0.303 C  
ENDROOT
BRANCH   2   3
HETATM    3  O   UNL     1     -14.240  12.493  71.116  1.00  0.00     1.737 OA 
BRANCH   3   4
HETATM    4  C   UNL     1     -13.648  13.584  71.594  1.00  0.00    -0.265 A  
HETATM    5  N   UNL     1     -13.625  13.925  72.862  1.00  0.00    -0.647 NA 
HETATM    6  C   UNL     1     -12.927  15.097  72.898  1.00  0.00    -0.462 A  
HETATM    7  C   UNL     1     -12.440  15.465  71.628  1.00  0.00    -0.381 A  
HETATM    8  C   UNL     1     -11.592  16.593  71.503  1.00  0.00     0.038 A  
HETATM    9  N   UNL     1     -13.026  14.520  70.795  1.00  0.00    -0.359 NA 
HETATM   10  C   UNL     1     -11.910  17.041  73.901  1.00  0.00     0.034 A  
HETATM   11  C   UNL     1     -12.691  15.900  74.026  1.00  0.00    -0.703 A  
HETATM   12  C   UNL     1     -11.350  17.357  72.669  1.00  0.00     1.531 A  
BRANCH   9  13
HETATM   13  C   UNL     1     -13.194  14.521  69.341  1.00  0.00     1.472 C  
BRANCH  13  14
HETATM   14  C   UNL     1     -12.261  13.569  68.636  1.00  0.00    -0.172 A  
HETATM   15  C   UNL     1     -11.200  12.738  66.626  1.00  0.00    -0.344 A  
HETATM   16  C   UNL     1     -10.077  12.325  67.364  1.00  0.00    -0.207 A  
HETATM   17  C   UNL     1     -11.328  12.852  69.387  1.00  0.00    -0.265 A  
HETATM   18  C   UNL     1     -12.257  13.413  67.251  1.00  0.00    -0.282 A  
HETATM   19  C   UNL     1     -10.236  12.255  68.757  1.00  0.00    -0.119 A  
BRANCH  16  20
HETATM   20  C   UNL     1      -8.736  12.121  66.740  1.00  0.00    -0.183 A  
HETATM   21  C   UNL     1      -8.561  11.070  65.807  1.00  0.00    -0.151 A  
HETATM   22  C   UNL     1      -7.571  12.862  67.105  1.00  0.00    -0.037 A  
HETATM   23  C   UNL     1      -7.317  10.767  65.245  1.00  0.00     0.105 A  
HETATM   24  C   UNL     1      -6.339  12.576  66.473  1.00  0.00     1.151 A  
HETATM   25  C   UNL     1      -6.208  11.534  65.561  1.00  0.00     1.025 A  
BRANCH  22  26
HETATM   26  C   UNL     1      -7.504  13.892  68.149  1.00  0.00    -0.126 A  
HETATM   27  N   UNL     1      -7.971  15.127  68.077  1.00  0.00    -0.127 NA 
HETATM   28  H   UNL     1      -8.459  15.547  67.286  1.00  0.00     0.000 HD 
HETATM   29  N   UNL     1      -7.673  15.734  69.272  1.00  0.00    -0.215 NA 
HETATM   30  N   UNL     1      -7.012  14.910  70.069  1.00  0.00    -0.159 NA 
HETATM   31  N   UNL     1      -6.866  13.784  69.357  1.00  0.00    -0.083 NA 
ENDBRANCH  22  26
ENDBRANCH  16  20
ENDBRANCH  13  14
ENDBRANCH   9  13
BRANCH   8  32
HETATM   32  C   UNL     1     -11.062  17.122  70.224  1.00  0.00     0.744 C  
HETATM   33  O   UNL     1     -10.824  18.304  70.037  1.00  0.00     1.102 OA 
BRANCH  32  34
HETATM   34  O   UNL     1     -10.674  16.118  69.398  1.00  0.00    -0.259 OA 
BRANCH  34  35
HETATM   35  C   UNL     1     -10.725  16.494  68.014  1.00  0.00    -0.343 C  
HETATM   36  C   UNL     1     -11.793  17.585  67.923  1.00  0.00     1.596 C  
BRANCH  35  37
HETATM   37  O   UNL     1      -9.523  17.117  67.561  1.00  0.00    -0.243 OA 
BRANCH  37  38
HETATM   38  C   UNL     1      -9.375  17.218  66.222  1.00  0.00    -0.223 C  
HETATM   39  O   UNL     1     -10.136  16.784  65.375  1.00  0.00    -0.587 OA 
BRANCH  38  40
HETATM   40  O   UNL     1      -8.241  17.913  66.011  1.00  0.00    -0.493 OA 
BRANCH  40  41
HETATM   41  C   UNL     1      -8.197  19.328  65.715  1.00  0.00     0.094 C  
HETATM   42  C   UNL     1      -5.977  20.843  66.993  1.00  0.00    -0.310 C  
HETATM   43  C   UNL     1      -8.356  20.064  67.048  1.00  0.00    -0.373 C  
HETATM   44  C   UNL     1      -7.040  20.129  67.815  1.00  0.00    -0.330 C  
HETATM   45  C   UNL     1      -5.750  20.183  65.636  1.00  0.00    -0.199 C  
HETATM   46  C   UNL     1      -7.043  19.882  64.873  1.00  0.00     0.128 C  
ENDBRANCH  40  41
ENDBRANCH  38  40
ENDBRANCH  37  38
ENDBRANCH  35  37
ENDBRANCH  34  35
ENDBRANCH  32  34
ENDBRANCH   8  32
ENDBRANCH   3   4
ENDBRANCH   2   3
TORSDOF 13
ENDMDL
MODEL      323
REMARK 921   NORMALIZED FREE ENERGY PREDICTED BY IDOCK:    3.97 KCAL/MOL
REMARK 922        TOTAL FREE ENERGY PREDICTED BY IDOCK:    4.53 KCAL/MOL
REMARK 923 INTER-LIGAND FREE ENERGY PREDICTED BY IDOCK:    3.52 KCAL/MOL
REMARK 924 INTRA-LIGAND FREE ENERGY PREDICTED BY IDOCK:    1.01 KCAL/MOL
REMARK 927      BINDING AFFINITY PREDICTED BY RF-SCORE:    0.00 PKD
ROOT
HETATM    1  C   UNL     1      -6.847  10.321  71.526  1.00  0.00     1.286 C  
HETATM    2  C   UNL     1      -7.290   9.597  72.785  1.00  0.00     2.020 C  
ENDROOT
BRANCH   2   3
HETATM    3  O   UNL     1      -7.491   8.220  72.449  1.00  0.00    -0.112 OA 
BRANCH   3   4
HETATM    4  C   UNL     1      -7.248   7.914  71.177  1.00  0.00    -0.058 A  
HETATM    5  N   UNL     1      -6.085   7.513  70.717  1.00  0.00    -0.035 NA 
HETATM    6  C   UNL     1      -6.284   7.322  69.381  1.00  0.00    -0.031 A  
HETATM    7  C   UNL     1      -7.624   7.542  69.005  1.00  0.00    -0.108 A  
HETATM    8  C   UNL     1      -8.033   7.271  67.676  1.00  0.00    -0.114 A  
HETATM    9  N   UNL     1      -8.188   8.034  70.176  1.00  0.00    -0.118 NA 
HETATM   10  C   UNL     1      -5.697   6.749  67.112  1.00  0.00    -0.014 A  
HETATM   11  C   UNL     1      -5.315   6.958  68.431  1.00  0.00    -0.016 A  
HETATM   12  C   UNL     1      -7.034   6.874  66.757  1.00  0.00    -0.066 A  
BRANCH   9  13
HETATM   13  C   UNL     1      -9.445   8.752  70.386  1.00  0.00    -0.179 C  
BRANCH  13  14
HETATM   14  C   UNL     1      -9.715   9.799  69.334  1.00  0.00    -0.214 A  
HETATM   15  C   UNL     1     -11.179  11.394  68.255  1.00  0.00    -0.326 A  
HETATM   16  C   UNL     1     -10.079  12.190  67.892  1.00  0.00    -0.199 A  
HETATM   17  C   UNL     1      -8.636  10.392  68.676  1.00  0.00    -0.133 A  
HETATM   18  C   UNL     1     -11.001  10.239  69.027  1.00  0.00    -0.274 A  
HETATM   19  C   UNL     1      -8.815  11.587  67.980  1.00  0.00    -0.158 A  
BRANCH  16  20
HETATM   20  C   UNL     1     -10.209  13.644  67.580  1.00  0.00    -0.241 A  
HETATM   21  C   UNL     1     -10.466  14.557  68.632  1.00  0.00    -0.247 A  
HETATM   22  C   UNL     1     -10.194  14.175  66.254  1.00  0.00    -0.301 A  
HETATM   23  C   UNL     1     -10.682  15.920  68.406  1.00  0.00    -0.281 A  
HETATM   24  C   UNL     1     -10.351  15.566  66.060  1.00  0.00    -0.342 A  
HETATM   25  C   UNL     1     -10.603  16.430  67.121  1.00  0.00    -0.276 A  
BRANCH  22  26
HETATM   26  C   UNL     1     -10.085  13.389  65.018  1.00  0.00    -0.239 A  
HETATM   27  N   UNL     1      -9.004  12.787  64.554  1.00  0.00     0.764 NA 
HETATM   28  H   UNL     1      -8.082  12.769  64.991  1.00  0.00     0.000 HD 
HETATM   29  N   UNL     1      -9.360  12.189  63.370  1.00  0.00    -0.049 NA 
HETATM   30  N   UNL     1     -10.630  12.430  63.083  1.00  0.00    -0.196 NA 
HETATM   31  N   UNL     1     -11.068  13.212  64.079  1.00  0.00    -0.387 NA 
ENDBRANCH  22  26
ENDBRANCH  16  20
ENDBRANCH  13  14
ENDBRANCH   9  13
BRANCH   8  32
HETATM   32  C   UNL     1      -9.392   7.516  67.137  1.00  0.00    -0.142 C  
HETATM   33  O   UNL     1      -9.625   8.325  66.255  1.00  0.00    -0.220 OA 
BRANCH  32  34
HETATM   34  O   UNL     1     -10.274   6.584  67.581  1.00  0.00    -0.140 OA 
BRANCH  34  35
HETATM   35  C   UNL     1      -9.711   5.264  67.605  1.00  0.00    -0.142 C  
HETATM   36  C   UNL     1     -10.560   4.473  68.601  1.00  0.00     0.715 C  
BRANCH  35  37
HETATM   37  O   UNL     1      -9.859   4.573  66.364  1.00  0.00    -0.189 OA 
BRANCH  37  38
HETATM   38  C   UNL     1      -8.863   3.720  66.038  1.00  0.00    -0.126 C  
HETATM   39  O   UNL     1      -7.737   3.709  66.505  1.00  0.00    -0.083 OA 
BRANCH  38  40
HETATM   40  O   UNL     1      -9.366   2.873  65.121  1.00  0.00    -0.151 OA 
BRANCH  40  41
HETATM   41  C   UNL     1     -10.778   2.636  64.919  1.00  0.00     1.236 C  
HETATM   42  C   UNL     1     -11.893   3.601  62.334  1.00  0.00     1.190 C  
HETATM   43  C   UNL     1     -11.440   4.008  64.763  1.00  0.00     1.015 C  
HETATM   44  C   UNL     1     -11.275   4.553  63.348  1.00  0.00     0.990 C  
HETATM   45  C   UNL     1     -11.299   2.198  62.417  1.00  0.00    -0.178 C  
HETATM   46  C   UNL     1     -11.226   1.642  63.843  1.00  0.00     0.393 C  
ENDBRANCH  40  41
ENDBRANCH  38  40
ENDBRANCH  37  38
ENDBRANCH  35  37
ENDBRANCH  34  35
ENDBRANCH  32  34
ENDBRANCH   8  32
ENDBRANCH   3   4
ENDBRANCH   2   3
TORSDOF 13
ENDMDL
MODEL      324
REMARK 921   NORMALIZED FREE ENERGY PREDICTED BY IDOCK:    4.85 KCAL/MOL
REMARK 922        TOTAL FREE ENERGY PREDICTED BY IDOCK:    6.08 KCAL/MOL
REMARK 923 INTER-LIGAND FREE ENERGY PREDICTED BY IDOCK:   -3.79 KCAL/MOL
REMARK 924 INTRA-LIGAND FREE ENERGY PREDICTED BY IDOCK:    9.87 KCAL/MOL
REMARK 927      BINDING AFFINITY PREDICTED BY RF-SCORE:    0.00 PKD
ROOT
HETATM    1  C   UNL     1      -9.392   9.202  65.662  1.00  0.00    -0.300 C  
HETATM    2  C   UNL     1      -8.453   9.920  64.708  1.00  0.00    -0.172 C  
ENDROOT
BRANCH   2   3
HETATM    3  O   UNL     1      -7.625   8.934  64.084  1.00  0.00    -0.110 OA 
BRANCH   3   4
HETATM    4  C   UNL     1      -7.831   7.687  64.500  1.00  0.00    -0.134 A  
HETATM    5  N   UNL     1      -8.069   6.667  63.709  1.00  0.00    -0.057 NA 
HETATM    6  C   UNL     1      -8.223   5.601  64.547  1.00  0.00    -0.125 A  
HETATM    7  C   UNL     1      -8.007   5.949  65.896  1.00  0.00    -0.109 A  
HETATM    8  C   UNL     1      -8.008   4.939  66.889  1.00  0.00    -0.103 A  
HETATM    9  N   UNL     1      -7.870   7.331  65.831  1.00  0.00    -0.100 NA 
HETATM   10  C   UNL     1      -8.626   3.303  65.160  1.00  0.00    -0.109 A  
HETATM   11  C   UNL     1      -8.564   4.288  64.183  1.00  0.00    -0.115 A  
HETATM   12  C   UNL     1      -8.322   3.623  66.477  1.00  0.00    -0.104 A  
BRANCH   9  13
HETATM   13  C   UNL     1      -7.946   8.335  66.893  1.00  0.00    -0.099 C  
BRANCH  13  14
HETATM   14  C   UNL     1      -8.948   7.990  67.965  1.00  0.00    -0.130 A  
HETATM   15  C   UNL     1      -9.635   7.922  70.285  1.00  0.00    -0.171 A  
HETATM   16  C   UNL     1     -10.986   8.019  69.909  1.00  0.00    -0.172 A  
HETATM   17  C   UNL     1     -10.270   7.729  67.600  1.00  0.00    -0.282 A  
HETATM   18  C   UNL     1      -8.621   7.972  69.320  1.00  0.00    -0.137 A  
HETATM   19  C   UNL     1     -11.280   7.766  68.560  1.00  0.00     0.450 A  
BRANCH  16  20
HETATM   20  C   UNL     1     -12.044   8.517  70.838  1.00  0.00    -0.159 A  
HETATM   21  C   UNL     1     -13.073   9.348  70.331  1.00  0.00     0.488 A  
HETATM   22  C   UNL     1     -12.030   8.295  72.248  1.00  0.00    -0.448 A  
HETATM   23  C   UNL     1     -14.049   9.919  71.155  1.00  0.00     0.334 A  
HETATM   24  C   UNL     1     -13.065   8.830  73.048  1.00  0.00     0.294 A  
HETATM   25  C   UNL     1     -14.058   9.643  72.512  1.00  0.00    -0.005 A  
BRANCH  22  26
HETATM   26  C   UNL     1     -10.980   7.586  72.993  1.00  0.00    -0.390 A  
HETATM   27  N   UNL     1     -11.095   6.424  73.614  1.00  0.00    -0.420 NA 
HETATM   28  H   UNL     1     -11.929   5.839  73.661  1.00  0.00     0.000 HD 
HETATM   29  N   UNL     1      -9.874   6.157  74.183  1.00  0.00    -0.208 NA 
HETATM   30  N   UNL     1      -9.018   7.139  73.947  1.00  0.00    -0.182 NA 
HETATM   31  N   UNL     1      -9.715   8.046  73.250  1.00  0.00    -0.278 NA 
ENDBRANCH  22  26
ENDBRANCH  16  20
ENDBRANCH  13  14
ENDBRANCH   9  13
BRANCH   8  32
HETATM   32  C   UNL     1      -7.855   5.176  68.344  1.00  0.00    -0.087 C  
HETATM   33  O   UNL     1      -8.452   4.535  69.192  1.00  0.00    -0.078 OA 
BRANCH  32  34
HETATM   34  O   UNL     1      -6.821   6.017  68.601  1.00  0.00    -0.064 OA 
BRANCH  34  35
HETATM   35  C   UNL     1      -5.757   5.376  69.320  1.00  0.00    -0.012 C  
HETATM   36  C   UNL     1      -5.127   6.469  70.184  1.00  0.00    -0.014 C  
BRANCH  35  37
HETATM   37  O   UNL     1      -6.225   4.396  70.247  1.00  0.00    -0.021 OA 
BRANCH  37  38
HETATM   38  C   UNL     1      -6.523   4.846  71.486  1.00  0.00    -0.030 C  
HETATM   39  O   UNL     1      -5.850   5.604  72.162  1.00  0.00    -0.024 OA 
BRANCH  38  40
HETATM   40  O   UNL     1      -7.717   4.316  71.811  1.00  0.00    -0.071 OA 
BRANCH  40  41
HETATM   41  C   UNL     1      -7.944   2.909  72.058  1.00  0.00    -0.054 C  
HETATM   42  C   UNL     1     -10.674   2.188  72.996  1.00  0.00    -0.244 C  
HETATM   43  C   UNL     1      -8.300   2.772  73.540  1.00  0.00    -0.072 C  
HETATM   44  C   UNL     1      -9.765   3.108  73.799  1.00  0.00    -0.141 C  
HETATM   45  C   UNL     1     -10.389   2.250  71.499  1.00  0.00     0.303 C  
HETATM   46  C   UNL     1      -8.902   2.133  71.149  1.00  0.00    -0.125 C  
ENDBRANCH  40  41
ENDBRANCH  38  40
ENDBRANCH  37  38
ENDBRANCH  35  37
ENDBRANCH  34  35
ENDBRANCH  32  34
ENDBRANCH   8  32
ENDBRANCH   3   4
ENDBRANCH   2   3
TORSDOF 13
ENDMDL
MODEL      325
REMARK 921   NORMALIZED FREE ENERGY PREDICTED BY IDOCK:    7.88 KCAL/MOL
REMARK 922        TOTAL FREE ENERGY PREDICTED BY IDOCK:   11.42 KCAL/MOL
REMARK 923 INTER-LIGAND FREE ENERGY PREDICTED BY IDOCK:   -1.41 KCAL/MOL
REMARK 924 INTRA-LIGAND FREE ENERGY PREDICTED BY IDOCK:   12.83 KCAL/MOL
REMARK 927      BINDING AFFINITY PREDICTED BY RF-SCORE:    0.00 PKD
ROOT
HETATM    1  C   UNL     1     -12.697  12.399  70.521  1.00  0.00    -0.051 C  
HETATM    2  C   UNL     1     -13.683  11.999  71.604  1.00  0.00     0.460 C  
ENDROOT
BRANCH   2   3
HETATM    3  O   UNL     1     -14.404  13.173  71.995  1.00  0.00    -0.086 OA 
BRANCH   3   4
HETATM    4  C   UNL     1     -13.645  14.238  72.237  1.00  0.00    -0.478 A  
HETATM    5  N   UNL     1     -13.512  14.807  73.413  1.00  0.00    -0.404 NA 
HETATM    6  C   UNL     1     -12.660  15.852  73.203  1.00  0.00    -0.513 A  
HETATM    7  C   UNL     1     -12.192  15.899  71.875  1.00  0.00    -0.483 A  
HETATM    8  C   UNL     1     -11.206  16.849  71.512  1.00  0.00     0.662 A  
HETATM    9  N   UNL     1     -12.943  14.906  71.256  1.00  0.00    -0.336 NA 
HETATM   10  C   UNL     1     -11.338  17.785  73.783  1.00  0.00     1.226 A  
HETATM   11  C   UNL     1     -12.260  16.812  74.147  1.00  0.00    -0.289 A  
HETATM   12  C   UNL     1     -10.804  17.777  72.500  1.00  0.00     3.089 A  
BRANCH   9  13
HETATM   13  C   UNL     1     -13.182  14.655  69.835  1.00  0.00     0.561 C  
BRANCH  13  14
HETATM   14  C   UNL     1     -12.196  13.689  69.228  1.00  0.00    -0.283 A  
HETATM   15  C   UNL     1     -10.900  12.878  67.352  1.00  0.00    -0.272 A  
HETATM   16  C   UNL     1      -9.903  12.401  68.220  1.00  0.00    -0.224 A  
HETATM   17  C   UNL     1     -11.398  12.914  70.072  1.00  0.00     0.052 A  
HETATM   18  C   UNL     1     -12.008  13.575  67.851  1.00  0.00    -0.372 A  
HETATM   19  C   UNL     1     -10.252  12.295  69.575  1.00  0.00     0.714 A  
BRANCH  16  20
HETATM   20  C   UNL     1      -8.498  12.164  67.775  1.00  0.00    -0.160 A  
HETATM   21  C   UNL     1      -7.595  13.254  67.729  1.00  0.00    -0.161 A  
HETATM   22  C   UNL     1      -8.021  10.911  67.285  1.00  0.00    -0.123 A  
HETATM   23  C   UNL     1      -6.289  13.126  67.245  1.00  0.00     0.091 A  
HETATM   24  C   UNL     1      -6.678  10.794  66.862  1.00  0.00    -0.099 A  
HETATM   25  C   UNL     1      -5.822  11.890  66.831  1.00  0.00    -0.118 A  
BRANCH  22  26
HETATM   26  C   UNL     1      -8.829   9.696  67.114  1.00  0.00    -0.132 A  
HETATM   27  N   UNL     1      -9.572   9.377  66.068  1.00  0.00    -0.241 NA 
HETATM   28  H   UNL     1      -9.688   9.924  65.215  1.00  0.00     0.000 HD 
HETATM   29  N   UNL     1     -10.157   8.167  66.350  1.00  0.00    -0.204 NA 
HETATM   30  N   UNL     1      -9.811   7.745  67.556  1.00  0.00    -0.160 NA 
HETATM   31  N   UNL     1      -9.025   8.713  68.049  1.00  0.00    -0.141 NA 
ENDBRANCH  22  26
ENDBRANCH  16  20
ENDBRANCH  13  14
ENDBRANCH   9  13
BRANCH   8  32
HETATM   32  C   UNL     1     -10.675  17.044  70.142  1.00  0.00     0.297 C  
HETATM   33  O   UNL     1     -10.364  18.135  69.695  1.00  0.00     0.062 OA 
BRANCH  32  34
HETATM   34  O   UNL     1     -10.373  15.857  69.557  1.00  0.00    -0.238 OA 
BRANCH  34  35
HETATM   35  C   UNL     1     -10.087  15.992  68.157  1.00  0.00    -0.234 C  
HETATM   36  C   UNL     1     -11.102  17.005  67.625  1.00  0.00    -0.051 C  
BRANCH  35  37
HETATM   37  O   UNL     1      -8.811  16.581  67.904  1.00  0.00    -0.189 OA 
BRANCH  37  38
HETATM   38  C   UNL     1      -8.539  16.875  66.613  1.00  0.00    -0.247 C  
HETATM   39  O   UNL     1      -9.059  16.373  65.632  1.00  0.00    -0.446 OA 
BRANCH  38  40
HETATM   40  O   UNL     1      -7.605  17.844  66.627  1.00  0.00    -0.205 OA 
BRANCH  40  41
HETATM   41  C   UNL     1      -7.825  19.194  66.158  1.00  0.00    -0.282 C  
HETATM   42  C   UNL     1      -6.386  21.329  67.651  1.00  0.00    -0.383 C  
HETATM   43  C   UNL     1      -8.461  19.967  67.316  1.00  0.00    -0.375 C  
HETATM   44  C   UNL     1      -7.414  20.431  68.323  1.00  0.00    -0.109 C  
HETATM   45  C   UNL     1      -5.698  20.644  66.474  1.00  0.00    -0.222 C  
HETATM   46  C   UNL     1      -6.668  19.959  65.506  1.00  0.00    -0.318 C  
ENDBRANCH  40  41
ENDBRANCH  38  40
ENDBRANCH  37  38
ENDBRANCH  35  37
ENDBRANCH  34  35
ENDBRANCH  32  34
ENDBRANCH   8  32
ENDBRANCH   3   4
ENDBRANCH   2   3
TORSDOF 13
ENDMDL
MODEL      326
REMARK 921   NORMALIZED FREE ENERGY PREDICTED BY IDOCK:   11.76 KCAL/MOL
REMARK 922        TOTAL FREE ENERGY PREDICTED BY IDOCK:   18.25 KCAL/MOL
REMARK 923 INTER-LIGAND FREE ENERGY PREDICTED BY IDOCK:   -6.88 KCAL/MOL
REMARK 924 INTRA-LIGAND FREE ENERGY PREDICTED BY IDOCK:   25.13 KCAL/MOL
REMARK 927      BINDING AFFINITY PREDICTED BY RF-SCORE:    0.00 PKD
ROOT
HETATM    1  C   UNL     1      -9.427   9.234  65.745  1.00  0.00    -0.329 C  
HETATM    2  C   UNL     1      -8.845   9.456  64.360  1.00  0.00    -0.188 C  
ENDROOT
BRANCH   2   3
HETATM    3  O   UNL     1      -8.209   8.240  63.953  1.00  0.00    -0.152 OA 
BRANCH   3   4
HETATM    4  C   UNL     1      -8.163   7.294  64.887  1.00  0.00    -0.073 A  
HETATM    5  N   UNL     1      -8.288   6.009  64.652  1.00  0.00    -0.107 NA 
HETATM    6  C   UNL     1      -8.187   5.417  65.877  1.00  0.00    -0.119 A  
HETATM    7  C   UNL     1      -7.922   6.350  66.899  1.00  0.00    -0.109 A  
HETATM    8  C   UNL     1      -7.667   5.894  68.216  1.00  0.00    -0.101 A  
HETATM    9  N   UNL     1      -8.029   7.564  66.232  1.00  0.00    -0.105 NA 
HETATM   10  C   UNL     1      -8.139   3.600  67.464  1.00  0.00    -0.089 A  
HETATM   11  C   UNL     1      -8.328   4.048  66.163  1.00  0.00    -0.108 A  
HETATM   12  C   UNL     1      -7.786   4.505  68.457  1.00  0.00    -0.075 A  
BRANCH   9  13
HETATM   13  C   UNL     1      -8.187   8.919  66.763  1.00  0.00    -0.111 C  
BRANCH  13  14
HETATM   14  C   UNL     1      -8.903   8.958  68.089  1.00  0.00    -0.134 A  
HETATM   15  C   UNL     1     -10.528   9.930  69.595  1.00  0.00    -0.273 A  
HETATM   16  C   UNL     1     -10.730   8.685  70.215  1.00  0.00    -0.243 A  
HETATM   17  C   UNL     1      -8.846   7.840  68.923  1.00  0.00    -0.135 A  
HETATM   18  C   UNL     1      -9.666  10.050  68.497  1.00  0.00    -0.164 A  
HETATM   19  C   UNL     1      -9.766   7.696  69.962  1.00  0.00    -0.172 A  
BRANCH  16  20
HETATM   20  C   UNL     1     -11.973   8.358  70.974  1.00  0.00    -0.255 A  
HETATM   21  C   UNL     1     -12.399   7.010  71.055  1.00  0.00    -0.402 A  
HETATM   22  C   UNL     1     -12.834   9.343  71.547  1.00  0.00    -0.442 A  
HETATM   23  C   UNL     1     -13.595   6.638  71.677  1.00  0.00    -0.039 A  
HETATM   24  C   UNL     1     -14.005   8.934  72.226  1.00  0.00    -0.531 A  
HETATM   25  C   UNL     1     -14.389   7.598  72.282  1.00  0.00    -0.243 A  
BRANCH  22  26
HETATM   26  C   UNL     1     -12.653  10.798  71.452  1.00  0.00    -0.410 A  
HETATM   27  N   UNL     1     -12.899  11.691  72.396  1.00  0.00    -0.030 NA 
HETATM   28  H   UNL     1     -13.242  11.502  73.337  1.00  0.00     0.000 HD 
HETATM   29  N   UNL     1     -12.603  12.921  71.863  1.00  0.00    -0.055 NA 
HETATM   30  N   UNL     1     -12.204  12.809  70.606  1.00  0.00    -0.357 NA 
HETATM   31  N   UNL     1     -12.279  11.499  70.335  1.00  0.00    -0.358 NA 
ENDBRANCH  22  26
ENDBRANCH  16  20
ENDBRANCH  13  14
ENDBRANCH   9  13
BRANCH   8  32
HETATM   32  C   UNL     1      -7.436   6.769  69.390  1.00  0.00    -0.094 C  
HETATM   33  O   UNL     1      -7.737   6.452  70.529  1.00  0.00    -0.100 OA 
BRANCH  32  34
HETATM   34  O   UNL     1      -6.660   7.834  69.066  1.00  0.00    -0.046 OA 
BRANCH  34  35
HETATM   35  C   UNL     1      -5.422   7.852  69.792  1.00  0.00    -0.023 C  
HETATM   36  C   UNL     1      -5.129   9.328  70.070  1.00  0.00    -0.029 C  
BRANCH  35  37
HETATM   37  O   UNL     1      -5.525   7.248  71.082  1.00  0.00    -0.027 OA 
BRANCH  37  38
HETATM   38  C   UNL     1      -6.101   8.002  72.046  1.00  0.00    -0.043 C  
HETATM   39  O   UNL     1      -5.807   9.147  72.340  1.00  0.00    -0.133 OA 
BRANCH  38  40
HETATM   40  O   UNL     1      -7.073   7.249  72.593  1.00  0.00    -0.067 OA 
BRANCH  40  41
HETATM   41  C   UNL     1      -6.906   6.437  73.778  1.00  0.00    -0.078 C  
HETATM   42  C   UNL     1      -7.627   3.564  73.485  1.00  0.00    -0.062 C  
HETATM   43  C   UNL     1      -8.289   5.890  74.139  1.00  0.00    -0.112 C  
HETATM   44  C   UNL     1      -8.651   4.674  73.292  1.00  0.00    -0.102 C  
HETATM   45  C   UNL     1      -6.209   4.018  73.154  1.00  0.00    -0.020 C  
HETATM   46  C   UNL     1      -5.823   5.354  73.798  1.00  0.00    -0.039 C  
ENDBRANCH  40  41
ENDBRANCH  38  40
ENDBRANCH  37  38
ENDBRANCH  35  37
ENDBRANCH  34  35
ENDBRANCH  32  34
ENDBRANCH   8  32
ENDBRANCH   3   4
ENDBRANCH   2   3
TORSDOF 13
ENDMDL
MODEL      327
REMARK 921   NORMALIZED FREE ENERGY PREDICTED BY IDOCK:   13.27 KCAL/MOL
REMARK 922        TOTAL FREE ENERGY PREDICTED BY IDOCK:   20.91 KCAL/MOL
REMARK 923 INTER-LIGAND FREE ENERGY PREDICTED BY IDOCK:   11.61 KCAL/MOL
REMARK 924 INTRA-LIGAND FREE ENERGY PREDICTED BY IDOCK:    9.30 KCAL/MOL
REMARK 927      BINDING AFFINITY PREDICTED BY RF-SCORE:    0.00 PKD
ROOT
HETATM    1  C   UNL     1      -6.658  11.234  64.966  1.00  0.00     1.019 C  
HETATM    2  C   UNL     1      -6.864  11.644  63.518  1.00  0.00     2.701 C  
ENDROOT
BRANCH   2   3
HETATM    3  O   UNL     1      -7.246  10.477  62.783  1.00  0.00    -0.139 OA 
BRANCH   3   4
HETATM    4  C   UNL     1      -7.038   9.326  63.416  1.00  0.00    -0.090 A  
HETATM    5  N   UNL     1      -5.854   8.811  63.656  1.00  0.00    -0.072 NA 
HETATM    6  C   UNL     1      -6.106   7.641  64.310  1.00  0.00    -0.048 A  
HETATM    7  C   UNL     1      -7.482   7.450  64.549  1.00  0.00    -0.095 A  
HETATM    8  C   UNL     1      -7.912   6.345  65.324  1.00  0.00    -0.114 A  
HETATM    9  N   UNL     1      -8.057   8.507  63.854  1.00  0.00    -0.160 NA 
HETATM   10  C   UNL     1      -5.580   5.568  65.427  1.00  0.00    -0.013 A  
HETATM   11  C   UNL     1      -5.160   6.686  64.719  1.00  0.00    -0.025 A  
HETATM   12  C   UNL     1      -6.925   5.424  65.746  1.00  0.00    -0.066 A  
BRANCH   9  13
HETATM   13  C   UNL     1      -9.442   8.711  63.428  1.00  0.00     1.877 C  
BRANCH  13  14
HETATM   14  C   UNL     1      -9.822  10.166  63.320  1.00  0.00     0.039 A  
HETATM   15  C   UNL     1     -11.448  11.951  63.476  1.00  0.00    -0.523 A  
HETATM   16  C   UNL     1     -10.439  12.871  63.808  1.00  0.00    -0.230 A  
HETATM   17  C   UNL     1      -8.813  11.131  63.296  1.00  0.00    -0.068 A  
HETATM   18  C   UNL     1     -11.148  10.594  63.296  1.00  0.00     1.099 A  
HETATM   19  C   UNL     1      -9.117  12.466  63.559  1.00  0.00     1.271 A  
BRANCH  16  20
HETATM   20  C   UNL     1     -10.720  14.146  64.532  1.00  0.00    -0.323 A  
HETATM   21  C   UNL     1     -10.985  15.320  63.786  1.00  0.00     1.588 A  
HETATM   22  C   UNL     1     -10.637  14.287  65.950  1.00  0.00    -0.306 A  
HETATM   23  C   UNL     1     -11.174  16.566  64.392  1.00  0.00     0.087 A  
HETATM   24  C   UNL     1     -10.897  15.545  66.541  1.00  0.00    -0.284 A  
HETATM   25  C   UNL     1     -11.152  16.676  65.772  1.00  0.00     0.168 A  
BRANCH  22  26
HETATM   26  C   UNL     1     -10.238  13.234  66.894  1.00  0.00    -0.250 A  
HETATM   27  N   UNL     1     -10.986  12.691  67.839  1.00  0.00    -0.221 NA 
HETATM   28  H   UNL     1     -11.959  12.915  68.048  1.00  0.00     0.000 HD 
HETATM   29  N   UNL     1     -10.201  11.767  68.483  1.00  0.00    -0.209 NA 
HETATM   30  N   UNL     1      -8.980  11.746  67.973  1.00  0.00    -0.169 NA 
HETATM   31  N   UNL     1      -8.987  12.687  67.019  1.00  0.00    -0.211 NA 
ENDBRANCH  22  26
ENDBRANCH  16  20
ENDBRANCH  13  14
ENDBRANCH   9  13
BRANCH   8  32
HETATM   32  C   UNL     1      -9.326   5.996  65.597  1.00  0.00     0.116 C  
HETATM   33  O   UNL     1     -10.247   6.784  65.461  1.00  0.00     1.146 OA 
BRANCH  32  34
HETATM   34  O   UNL     1      -9.477   4.661  65.789  1.00  0.00    -0.153 OA 
BRANCH  34  35
HETATM   35  C   UNL     1     -10.375   4.359  66.867  1.00  0.00     0.111 C  
HETATM   36  C   UNL     1     -11.607   3.731  66.214  1.00  0.00     5.620 C  
BRANCH  35  37
HETATM   37  O   UNL     1      -9.871   3.354  67.747  1.00  0.00    -0.080 OA 
BRANCH  37  38
HETATM   38  C   UNL     1      -8.753   3.675  68.435  1.00  0.00    -0.103 C  
HETATM   39  O   UNL     1      -7.711   3.044  68.457  1.00  0.00    -0.055 OA 
BRANCH  38  40
HETATM   40  O   UNL     1      -9.010   4.835  69.067  1.00  0.00    -0.097 OA 
BRANCH  40  41
HETATM   41  C   UNL     1      -8.880   5.033  70.494  1.00  0.00    -0.121 C  
HETATM   42  C   UNL     1     -10.699   7.064  71.686  1.00  0.00    -0.244 C  
HETATM   43  C   UNL     1      -8.467   6.491  70.703  1.00  0.00    -0.134 C  
HETATM   44  C   UNL     1      -9.667   7.431  70.629  1.00  0.00    -0.175 C  
HETATM   45  C   UNL     1     -11.169   5.619  71.562  1.00  0.00    -0.182 C  
HETATM   46  C   UNL     1     -10.027   4.608  71.417  1.00  0.00    -0.267 C  
ENDBRANCH  40  41
ENDBRANCH  38  40
ENDBRANCH  37  38
ENDBRANCH  35  37
ENDBRANCH  34  35
ENDBRANCH  32  34
ENDBRANCH   8  32
ENDBRANCH   3   4
ENDBRANCH   2   3
TORSDOF 13
ENDMDL
MODEL      328
REMARK 921   NORMALIZED FREE ENERGY PREDICTED BY IDOCK:   15.59 KCAL/MOL
REMARK 922        TOTAL FREE ENERGY PREDICTED BY IDOCK:   24.98 KCAL/MOL
REMARK 923 INTER-LIGAND FREE ENERGY PREDICTED BY IDOCK:   14.66 KCAL/MOL
REMARK 924 INTRA-LIGAND FREE ENERGY PREDICTED BY IDOCK:   10.32 KCAL/MOL
REMARK 927      BINDING AFFINITY PREDICTED BY RF-SCORE:    0.00 PKD
ROOT
HETATM    1  C   UNL     1      -5.135  11.215  66.185  1.00  0.00    -0.128 C  
HETATM    2  C   UNL     1      -6.516  11.819  66.375  1.00  0.00     0.230 C  
ENDROOT
BRANCH   2   3
HETATM    3  O   UNL     1      -7.454  10.742  66.472  1.00  0.00    -0.126 OA 
BRANCH   3   4
HETATM    4  C   UNL     1      -8.530  11.004  67.210  1.00  0.00    -0.130 A  
HETATM    5  N   UNL     1      -8.939  10.270  68.218  1.00  0.00    -0.130 NA 
HETATM    6  C   UNL     1     -10.064  10.894  68.673  1.00  0.00    -0.191 A  
HETATM    7  C   UNL     1     -10.328  12.089  67.975  1.00  0.00    -0.195 A  
HETATM    8  C   UNL     1     -11.391  12.926  68.397  1.00  0.00    -0.329 A  
HETATM    9  N   UNL     1      -9.377  12.063  66.963  1.00  0.00    -0.186 NA 
HETATM   10  C   UNL     1     -11.992  11.237  70.081  1.00  0.00    -0.452 A  
HETATM   11  C   UNL     1     -10.912  10.451  69.702  1.00  0.00    -0.325 A  
HETATM   12  C   UNL     1     -12.202  12.462  69.459  1.00  0.00    -0.145 A  
BRANCH   9  13
HETATM   13  C   UNL     1      -9.307  12.828  65.717  1.00  0.00     0.090 C  
BRANCH  13  14
HETATM   14  C   UNL     1      -9.205  14.316  65.939  1.00  0.00     0.060 A  
HETATM   15  C   UNL     1     -10.195  16.523  66.013  1.00  0.00    -0.372 A  
HETATM   16  C   UNL     1      -9.262  16.932  66.982  1.00  0.00    -0.246 A  
HETATM   17  C   UNL     1      -8.094  14.827  66.613  1.00  0.00     0.196 A  
HETATM   18  C   UNL     1     -10.205  15.203  65.543  1.00  0.00    -0.405 A  
HETATM   19  C   UNL     1      -8.133  16.114  67.147  1.00  0.00    -0.223 A  
BRANCH  16  20
HETATM   20  C   UNL     1      -9.513  18.078  67.905  1.00  0.00    -0.273 A  
HETATM   21  C   UNL     1     -10.488  19.045  67.557  1.00  0.00    -0.537 A  
HETATM   22  C   UNL     1      -8.751  18.327  69.086  1.00  0.00     0.101 A  
HETATM   23  C   UNL     1     -10.719  20.188  68.329  1.00  0.00    -0.034 A  
HETATM   24  C   UNL     1      -9.049  19.456  69.882  1.00  0.00     0.740 A  
HETATM   25  C   UNL     1     -10.015  20.383  69.505  1.00  0.00     0.269 A  
BRANCH  22  26
HETATM   26  C   UNL     1      -7.606  17.532  69.549  1.00  0.00     0.365 A  
HETATM   27  N   UNL     1      -6.721  17.876  70.470  1.00  0.00     1.142 NA 
HETATM   28  H   UNL     1      -6.708  18.743  71.006  1.00  0.00     0.000 HD 
HETATM   29  N   UNL     1      -5.825  16.840  70.565  1.00  0.00    -0.047 NA 
HETATM   30  N   UNL     1      -6.123  15.877  69.707  1.00  0.00    -0.162 NA 
HETATM   31  N   UNL     1      -7.198  16.324  69.044  1.00  0.00    -0.192 NA 
ENDBRANCH  22  26
ENDBRANCH  16  20
ENDBRANCH  13  14
ENDBRANCH   9  13
BRANCH   8  32
HETATM   32  C   UNL     1     -11.812  14.174  67.718  1.00  0.00    -0.379 C  
HETATM   33  O   UNL     1     -11.450  14.478  66.593  1.00  0.00    -0.347 OA 
BRANCH  32  34
HETATM   34  O   UNL     1     -12.805  14.798  68.402  1.00  0.00     0.596 OA 
BRANCH  34  35
HETATM   35  C   UNL     1     -12.527  16.188  68.627  1.00  0.00     1.020 C  
HETATM   36  C   UNL     1     -13.781  16.756  69.293  1.00  0.00     6.938 C  
BRANCH  35  37
HETATM   37  O   UNL     1     -11.479  16.400  69.574  1.00  0.00    -0.261 OA 
BRANCH  37  38
HETATM   38  C   UNL     1     -11.172  15.348  70.364  1.00  0.00    -0.323 C  
HETATM   39  O   UNL     1     -10.053  14.935  70.616  1.00  0.00     0.267 OA 
BRANCH  38  40
HETATM   40  O   UNL     1     -12.337  14.867  70.836  1.00  0.00    -0.284 OA 
BRANCH  40  41
HETATM   41  C   UNL     1     -12.942  15.279  72.083  1.00  0.00    -0.366 C  
HETATM   42  C   UNL     1     -13.021  13.211  74.222  1.00  0.00     8.391 C  
HETATM   43  C   UNL     1     -14.151  14.368  72.310  1.00  0.00    -0.609 C  
HETATM   44  C   UNL     1     -13.739  13.020  72.893  1.00  0.00     0.399 C  
HETATM   45  C   UNL     1     -11.799  14.114  74.098  1.00  0.00     1.861 C  
HETATM   46  C   UNL     1     -12.067  15.414  73.333  1.00  0.00    -0.604 C  
ENDBRANCH  40  41
ENDBRANCH  38  40
ENDBRANCH  37  38
ENDBRANCH  35  37
ENDBRANCH  34  35
ENDBRANCH  32  34
ENDBRANCH   8  32
ENDBRANCH   3   4
ENDBRANCH   2   3
TORSDOF 13
ENDMDL
MODEL      329
REMARK 921   NORMALIZED FREE ENERGY PREDICTED BY IDOCK:   23.34 KCAL/MOL
REMARK 922        TOTAL FREE ENERGY PREDICTED BY IDOCK:   38.62 KCAL/MOL
REMARK 923 INTER-LIGAND FREE ENERGY PREDICTED BY IDOCK:    0.16 KCAL/MOL
REMARK 924 INTRA-LIGAND FREE ENERGY PREDICTED BY IDOCK:   38.46 KCAL/MOL
REMARK 927      BINDING AFFINITY PREDICTED BY RF-SCORE:    0.00 PKD
ROOT
HETATM    1  C   UNL     1      -8.975  13.077  68.180  1.00  0.00    -0.198 C  
HETATM    2  C   UNL     1     -10.377  13.575  67.876  1.00  0.00    -0.249 C  
ENDROOT
BRANCH   2   3
HETATM    3  O   UNL     1     -11.304  12.625  68.412  1.00  0.00    -0.247 OA 
BRANCH   3   4
HETATM    4  C   UNL     1     -10.822  11.394  68.555  1.00  0.00    -0.211 A  
HETATM    5  N   UNL     1     -11.433  10.303  68.154  1.00  0.00    -0.281 NA 
HETATM    6  C   UNL     1     -10.595   9.284  68.503  1.00  0.00    -0.183 A  
HETATM    7  C   UNL     1      -9.396   9.752  69.075  1.00  0.00    -0.161 A  
HETATM    8  C   UNL     1      -8.362   8.834  69.385  1.00  0.00    -0.117 A  
HETATM    9  N   UNL     1      -9.633  11.116  69.195  1.00  0.00    -0.076 NA 
HETATM   10  C   UNL     1      -9.851   6.998  68.707  1.00  0.00    -0.152 A  
HETATM   11  C   UNL     1     -10.836   7.908  68.348  1.00  0.00     0.025 A  
HETATM   12  C   UNL     1      -8.631   7.461  69.184  1.00  0.00    -0.136 A  
BRANCH   9  13
HETATM   13  C   UNL     1      -8.937  12.126  69.994  1.00  0.00     3.353 C  
BRANCH  13  14
HETATM   14  C   UNL     1      -8.888  13.478  69.330  1.00  0.00     0.738 A  
HETATM   15  C   UNL     1      -8.296  15.824  69.335  1.00  0.00    -0.215 A  
HETATM   16  C   UNL     1      -8.146  15.812  67.937  1.00  0.00    -0.149 A  
HETATM   17  C   UNL     1      -9.084  13.564  67.950  1.00  0.00    -0.204 A  
HETATM   18  C   UNL     1      -8.603  14.648  70.031  1.00  0.00     0.759 A  
HETATM   19  C   UNL     1      -8.695  14.712  67.260  1.00  0.00    -0.224 A  
BRANCH  16  20
HETATM   20  C   UNL     1      -7.317  16.817  67.209  1.00  0.00    -0.206 A  
HETATM   21  C   UNL     1      -6.089  16.412  66.632  1.00  0.00     0.237 A  
HETATM   22  C   UNL     1      -7.634  18.208  67.144  1.00  0.00    -0.225 A  
HETATM   23  C   UNL     1      -5.220  17.314  66.009  1.00  0.00    -0.000 A  
HETATM   24  C   UNL     1      -6.770  19.087  66.451  1.00  0.00    -0.223 A  
HETATM   25  C   UNL     1      -5.571  18.649  65.898  1.00  0.00    -0.199 A  
BRANCH  22  26
HETATM   26  C   UNL     1      -8.780  18.857  67.794  1.00  0.00    -0.292 A  
HETATM   27  N   UNL     1      -9.063  18.857  69.086  1.00  0.00    -0.134 NA 
HETATM   28  H   UNL     1      -8.522  18.414  69.827  1.00  0.00     0.000 HD 
HETATM   29  N   UNL     1     -10.228  19.569  69.236  1.00  0.00    -0.250 NA 
HETATM   30  N   UNL     1     -10.681  19.986  68.064  1.00  0.00    -0.211 NA 
HETATM   31  N   UNL     1      -9.810  19.507  67.166  1.00  0.00    -0.335 NA 
ENDBRANCH  22  26
ENDBRANCH  16  20
ENDBRANCH  13  14
ENDBRANCH   9  13
BRANCH   8  32
HETATM   32  C   UNL     1      -7.081   9.186  70.043  1.00  0.00    -0.060 C  
HETATM   33  O   UNL     1      -6.903   9.102  71.247  1.00  0.00    -0.111 OA 
BRANCH  32  34
HETATM   34  O   UNL     1      -6.096   9.385  69.130  1.00  0.00    -0.041 OA 
BRANCH  34  35
HETATM   35  C   UNL     1      -6.476  10.316  68.107  1.00  0.00    -0.057 C  
HETATM   36  C   UNL     1      -5.170  10.932  67.605  1.00  0.00    -0.040 C  
BRANCH  35  37
HETATM   37  O   UNL     1      -7.049   9.683  66.963  1.00  0.00    -0.084 OA 
BRANCH  37  38
HETATM   38  C   UNL     1      -7.527  10.508  66.005  1.00  0.00    -0.137 C  
HETATM   39  O   UNL     1      -7.991  11.622  66.175  1.00  0.00    -0.002 OA 
BRANCH  38  40
HETATM   40  O   UNL     1      -7.366   9.869  64.831  1.00  0.00    -0.124 OA 
BRANCH  40  41
HETATM   41  C   UNL     1      -8.236  10.033  63.687  1.00  0.00    -0.160 C  
HETATM   42  C   UNL     1     -10.855  11.336  64.236  1.00  0.00    -0.398 C  
HETATM   43  C   UNL     1      -9.510   9.238  63.983  1.00  0.00     0.483 C  
HETATM   44  C   UNL     1     -10.461  10.017  64.885  1.00  0.00     0.384 C  
HETATM   45  C   UNL     1      -9.644  12.201  63.897  1.00  0.00    -0.014 C  
HETATM   46  C   UNL     1      -8.531  11.444  63.166  1.00  0.00     0.287 C  
ENDBRANCH  40  41
ENDBRANCH  38  40
ENDBRANCH  37  38
ENDBRANCH  35  37
ENDBRANCH  34  35
ENDBRANCH  32  34
ENDBRANCH   8  32
ENDBRANCH   3   4
ENDBRANCH   2   3
TORSDOF 13
ENDMDL
MODEL      330
REMARK 921   NORMALIZED FREE ENERGY PREDICTED BY IDOCK:   24.66 KCAL/MOL
REMARK 922        TOTAL FREE ENERGY PREDICTED BY IDOCK:   40.95 KCAL/MOL
REMARK 923 INTER-LIGAND FREE ENERGY PREDICTED BY IDOCK:   21.17 KCAL/MOL
REMARK 924 INTRA-LIGAND FREE ENERGY PREDICTED BY IDOCK:   19.78 KCAL/MOL
REMARK 927      BINDING AFFINITY PREDICTED BY RF-SCORE:    0.00 PKD
ROOT
HETATM    1  C   UNL     1     -12.878  17.383  72.825  1.00  0.00     3.839 C  
HETATM    2  C   UNL     1     -11.662  17.661  73.691  1.00  0.00     0.874 C  
ENDROOT
BRANCH   2   3
HETATM    3  O   UNL     1     -10.913  16.446  73.796  1.00  0.00     2.065 OA 
BRANCH   3   4
HETATM    4  C   UNL     1     -11.562  15.354  73.397  1.00  0.00    -0.034 A  
HETATM    5  N   UNL     1     -12.646  14.882  73.968  1.00  0.00    -0.471 NA 
HETATM    6  C   UNL     1     -12.961  13.765  73.250  1.00  0.00     0.588 A  
HETATM    7  C   UNL     1     -12.092  13.571  72.158  1.00  0.00     0.840 A  
HETATM    8  C   UNL     1     -12.348  12.526  71.236  1.00  0.00    -0.152 A  
HETATM    9  N   UNL     1     -11.133  14.556  72.358  1.00  0.00     1.092 NA 
HETATM   10  C   UNL     1     -14.227  11.802  72.648  1.00  0.00     1.253 A  
HETATM   11  C   UNL     1     -14.007  12.865  73.514  1.00  0.00     4.460 A  
HETATM   12  C   UNL     1     -13.430  11.661  71.519  1.00  0.00     0.058 A  
BRANCH   9  13
HETATM   13  C   UNL     1      -9.796  14.700  71.781  1.00  0.00     3.968 C  
BRANCH  13  14
HETATM   14  C   UNL     1      -9.768  14.486  70.288  1.00  0.00     1.078 A  
HETATM   15  C   UNL     1     -10.799  13.735  68.232  1.00  0.00    -0.266 A  
HETATM   16  C   UNL     1     -10.070  14.684  67.495  1.00  0.00    -0.224 A  
HETATM   17  C   UNL     1      -8.811  15.159  69.525  1.00  0.00    -0.125 A  
HETATM   18  C   UNL     1     -10.694  13.681  69.629  1.00  0.00     0.218 A  
HETATM   19  C   UNL     1      -8.975  15.274  68.145  1.00  0.00    -0.173 A  
BRANCH  16  20
HETATM   20  C   UNL     1     -10.511  15.170  66.154  1.00  0.00    -0.320 A  
HETATM   21  C   UNL     1     -11.570  14.502  65.491  1.00  0.00    -0.350 A  
HETATM   22  C   UNL     1      -9.858  16.216  65.435  1.00  0.00    -0.063 A  
HETATM   23  C   UNL     1     -11.982  14.847  64.200  1.00  0.00    -0.256 A  
HETATM   24  C   UNL     1     -10.336  16.587  64.158  1.00  0.00     2.875 A  
HETATM   25  C   UNL     1     -11.379  15.905  63.540  1.00  0.00     1.967 A  
BRANCH  22  26
HETATM   26  C   UNL     1      -8.657  16.938  65.878  1.00  0.00    -0.013 A  
HETATM   27  N   UNL     1      -8.269  18.142  65.494  1.00  0.00    -0.025 NA 
HETATM   28  H   UNL     1      -8.752  18.757  64.838  1.00  0.00     0.000 HD 
HETATM   29  N   UNL     1      -7.091  18.407  66.148  1.00  0.00    -0.246 NA 
HETATM   30  N   UNL     1      -6.732  17.383  66.907  1.00  0.00    -0.176 NA 
HETATM   31  N   UNL     1      -7.677  16.455  66.705  1.00  0.00    -0.236 NA 
ENDBRANCH  22  26
ENDBRANCH  16  20
ENDBRANCH  13  14
ENDBRANCH   9  13
BRANCH   8  32
HETATM   32  C   UNL     1     -11.483  12.176  70.085  1.00  0.00     0.019 C  
HETATM   33  O   UNL     1     -11.451  12.824  69.052  1.00  0.00    -0.271 OA 
BRANCH  32  34
HETATM   34  O   UNL     1     -10.591  11.207  70.414  1.00  0.00     0.441 OA 
BRANCH  34  35
HETATM   35  C   UNL     1     -11.146   9.888  70.298  1.00  0.00    -0.308 C  
HETATM   36  C   UNL     1     -11.673   9.788  68.866  1.00  0.00     0.359 C  
BRANCH  35  37
HETATM   37  O   UNL     1     -10.162   8.859  70.401  1.00  0.00    -0.184 OA 
BRANCH  37  38
HETATM   38  C   UNL     1     -10.014   8.300  71.622  1.00  0.00    -0.212 C  
HETATM   39  O   UNL     1     -10.659   8.565  72.622  1.00  0.00    -0.304 OA 
BRANCH  38  40
HETATM   40  O   UNL     1      -9.039   7.379  71.509  1.00  0.00    -0.139 OA 
BRANCH  40  41
HETATM   41  C   UNL     1      -7.963   7.211  72.460  1.00  0.00    -0.096 C  
HETATM   42  C   UNL     1      -5.296   8.194  71.578  1.00  0.00    -0.034 C  
HETATM   43  C   UNL     1      -6.924   6.303  71.797  1.00  0.00    -0.076 C  
HETATM   44  C   UNL     1      -6.027   7.082  70.840  1.00  0.00    -0.032 C  
HETATM   45  C   UNL     1      -6.253   9.152  72.281  1.00  0.00     0.072 C  
HETATM   46  C   UNL     1      -7.333   8.449  73.108  1.00  0.00    -0.108 C  
ENDBRANCH  40  41
ENDBRANCH  38  40
ENDBRANCH  37  38
ENDBRANCH  35  37
ENDBRANCH  34  35
ENDBRANCH  32  34
ENDBRANCH   8  32
ENDBRANCH   3   4
ENDBRANCH   2   3
TORSDOF 13
ENDMDL
MODEL      331
REMARK 921   NORMALIZED FREE ENERGY PREDICTED BY IDOCK:   24.98 KCAL/MOL
REMARK 922        TOTAL FREE ENERGY PREDICTED BY IDOCK:   41.51 KCAL/MOL
REMARK 923 INTER-LIGAND FREE ENERGY PREDICTED BY IDOCK:   21.44 KCAL/MOL
REMARK 924 INTRA-LIGAND FREE ENERGY PREDICTED BY IDOCK:   20.07 KCAL/MOL
REMARK 927      BINDING AFFINITY PREDICTED BY RF-SCORE:    0.00 PKD
ROOT
HETATM    1  C   UNL     1     -12.837  17.244  72.798  1.00  0.00     3.160 C  
HETATM    2  C   UNL     1     -11.593  17.340  73.663  1.00  0.00     0.696 C  
ENDROOT
BRANCH   2   3
HETATM    3  O   UNL     1     -10.801  16.172  73.422  1.00  0.00     2.032 OA 
BRANCH   3   4
HETATM    4  C   UNL     1     -11.379  15.256  72.651  1.00  0.00    -0.134 A  
HETATM    5  N   UNL     1     -12.424  14.541  72.998  1.00  0.00    -0.293 NA 
HETATM    6  C   UNL     1     -12.672  13.737  71.924  1.00  0.00    -0.253 A  
HETATM    7  C   UNL     1     -11.802  14.003  70.848  1.00  0.00    -0.173 A  
HETATM    8  C   UNL     1     -11.996  13.342  69.610  1.00  0.00    -0.386 A  
HETATM    9  N   UNL     1     -10.909  14.912  71.401  1.00  0.00     0.133 NA 
HETATM   10  C   UNL     1     -13.810  12.040  70.641  1.00  0.00     2.589 A  
HETATM   11  C   UNL     1     -13.653  12.735  71.833  1.00  0.00    -0.343 A  
HETATM   12  C   UNL     1     -13.016  12.365  69.548  1.00  0.00     1.273 A  
BRANCH   9  13
HETATM   13  C   UNL     1      -9.590  15.340  70.934  1.00  0.00     1.547 C  
BRANCH  13  14
HETATM   14  C   UNL     1      -9.585  15.783  69.493  1.00  0.00    -0.262 A  
HETATM   15  C   UNL     1     -10.607  15.888  67.302  1.00  0.00    -0.314 A  
HETATM   16  C   UNL     1      -9.981  17.120  67.045  1.00  0.00    -0.287 A  
HETATM   17  C   UNL     1      -8.710  16.796  69.097  1.00  0.00    -0.092 A  
HETATM   18  C   UNL     1     -10.459  15.256  68.544  1.00  0.00    -0.235 A  
HETATM   19  C   UNL     1      -8.921  17.471  67.896  1.00  0.00    -0.251 A  
BRANCH  16  20
HETATM   20  C   UNL     1     -10.499  18.088  66.034  1.00  0.00    -0.317 A  
HETATM   21  C   UNL     1     -11.481  17.661  65.108  1.00  0.00     1.511 A  
HETATM   22  C   UNL     1      -9.986  19.410  65.867  1.00  0.00    -0.334 A  
HETATM   23  C   UNL     1     -11.952  18.486  64.081  1.00  0.00     8.443 A  
HETATM   24  C   UNL     1     -10.525  20.244  64.862  1.00  0.00     0.913 A  
HETATM   25  C   UNL     1     -11.490  19.786  63.970  1.00  0.00     6.301 A  
BRANCH  22  26
HETATM   26  C   UNL     1      -8.873  19.999  66.624  1.00  0.00    -0.336 A  
HETATM   27  N   UNL     1      -8.651  21.284  66.839  1.00  0.00    -0.190 NA 
HETATM   28  H   UNL     1      -9.228  22.062  66.519  1.00  0.00     0.000 HD 
HETATM   29  N   UNL     1      -7.496  21.370  67.576  1.00  0.00    -0.306 NA 
HETATM   30  N   UNL     1      -6.988  20.168  67.799  1.00  0.00    -0.267 NA 
HETATM   31  N   UNL     1      -7.814  19.321  67.170  1.00  0.00    -0.248 NA 
ENDBRANCH  22  26
ENDBRANCH  16  20
ENDBRANCH  13  14
ENDBRANCH   9  13
BRANCH   8  32
HETATM   32  C   UNL     1     -11.120  13.485  68.422  1.00  0.00    -0.271 C  
HETATM   33  O   UNL     1     -10.873  14.558  67.899  1.00  0.00    -0.249 OA 
BRANCH  32  34
HETATM   34  O   UNL     1     -10.468  12.326  68.149  1.00  0.00    -0.204 OA 
BRANCH  34  35
HETATM   35  C   UNL     1     -11.256  11.426  67.357  1.00  0.00    -0.305 C  
HETATM   36  C   UNL     1     -12.170  12.314  66.511  1.00  0.00     0.150 C  
BRANCH  35  37
HETATM   37  O   UNL     1     -10.479  10.691  66.411  1.00  0.00    -0.242 OA 
BRANCH  37  38
HETATM   38  C   UNL     1     -10.136   9.435  66.773  1.00  0.00    -0.256 C  
HETATM   39  O   UNL     1     -10.862   8.611  67.302  1.00  0.00    -0.217 OA 
BRANCH  38  40
HETATM   40  O   UNL     1      -8.851   9.266  66.411  1.00  0.00    -0.137 OA 
BRANCH  40  41
HETATM   41  C   UNL     1      -7.886   8.497  67.165  1.00  0.00    -0.097 C  
HETATM   42  C   UNL     1      -5.596  10.036  68.280  1.00  0.00    -0.038 C  
HETATM   43  C   UNL     1      -6.547   8.631  66.437  1.00  0.00    -0.062 C  
HETATM   44  C   UNL     1      -5.849   9.943  66.782  1.00  0.00    -0.054 C  
HETATM   45  C   UNL     1      -6.879   9.906  69.095  1.00  0.00    -0.055 C  
HETATM   46  C   UNL     1      -7.760   8.725  68.675  1.00  0.00    -0.098 C  
ENDBRANCH  40  41
ENDBRANCH  38  40
ENDBRANCH  37  38
ENDBRANCH  35  37
ENDBRANCH  34  35
ENDBRANCH  32  34
ENDBRANCH   8  32
ENDBRANCH   3   4
ENDBRANCH   2   3
TORSDOF 13
ENDMDL
MODEL      332
REMARK 921   NORMALIZED FREE ENERGY PREDICTED BY IDOCK:   25.86 KCAL/MOL
REMARK 922        TOTAL FREE ENERGY PREDICTED BY IDOCK:   43.06 KCAL/MOL
REMARK 923 INTER-LIGAND FREE ENERGY PREDICTED BY IDOCK:   23.47 KCAL/MOL
REMARK 924 INTRA-LIGAND FREE ENERGY PREDICTED BY IDOCK:   19.59 KCAL/MOL
REMARK 927      BINDING AFFINITY PREDICTED BY RF-SCORE:    0.00 PKD
ROOT
HETATM    1  C   UNL     1     -12.851  17.403  72.734  1.00  0.00     3.839 C  
HETATM    2  C   UNL     1     -11.584  17.420  73.571  1.00  0.00     0.833 C  
ENDROOT
BRANCH   2   3
HETATM    3  O   UNL     1     -10.914  16.170  73.376  1.00  0.00     1.505 OA 
BRANCH   3   4
HETATM    4  C   UNL     1     -11.559  15.307  72.596  1.00  0.00    -0.375 A  
HETATM    5  N   UNL     1     -12.766  14.847  72.833  1.00  0.00    -0.405 NA 
HETATM    6  C   UNL     1     -13.027  13.998  71.797  1.00  0.00    -0.353 A  
HETATM    7  C   UNL     1     -11.985  13.979  70.849  1.00  0.00    -0.267 A  
HETATM    8  C   UNL     1     -12.143  13.243  69.648  1.00  0.00    -0.331 A  
HETATM    9  N   UNL     1     -11.006  14.752  71.462  1.00  0.00     0.216 NA 
HETATM   10  C   UNL     1     -14.307  12.428  70.486  1.00  0.00     5.417 A  
HETATM   11  C   UNL     1     -14.172  13.200  71.633  1.00  0.00     0.660 A  
HETATM   12  C   UNL     1     -13.324  12.479  69.505  1.00  0.00     2.603 A  
BRANCH   9  13
HETATM   13  C   UNL     1      -9.577  14.867  71.170  1.00  0.00     2.414 C  
BRANCH  13  14
HETATM   14  C   UNL     1      -9.268  14.835  69.694  1.00  0.00     0.201 A  
HETATM   15  C   UNL     1      -8.089  13.914  67.793  1.00  0.00    -0.174 A  
HETATM   16  C   UNL     1      -9.153  14.256  66.940  1.00  0.00    -0.268 A  
HETATM   17  C   UNL     1     -10.134  15.475  68.806  1.00  0.00    -0.211 A  
HETATM   18  C   UNL     1      -8.176  14.145  69.172  1.00  0.00     0.161 A  
HETATM   19  C   UNL     1     -10.090  15.171  67.446  1.00  0.00    -0.229 A  
BRANCH  16  20
HETATM   20  C   UNL     1      -9.381  13.579  65.629  1.00  0.00     0.237 A  
HETATM   21  C   UNL     1      -8.386  12.711  65.117  1.00  0.00     2.561 A  
HETATM   22  C   UNL     1     -10.510  13.832  64.792  1.00  0.00    -0.448 A  
HETATM   23  C   UNL     1      -8.493  12.108  63.860  1.00  0.00     2.076 A  
HETATM   24  C   UNL     1     -10.624  13.159  63.555  1.00  0.00     0.365 A  
HETATM   25  C   UNL     1      -9.623  12.314  63.086  1.00  0.00     0.495 A  
BRANCH  22  26
HETATM   26  C   UNL     1     -11.580  14.800  65.068  1.00  0.00    -0.378 A  
HETATM   27  N   UNL     1     -12.806  14.790  64.572  1.00  0.00    -0.408 NA 
HETATM   28  H   UNL     1     -13.197  14.101  63.930  1.00  0.00     0.000 HD 
HETATM   29  N   UNL     1     -13.451  15.887  65.089  1.00  0.00     2.347 NA 
HETATM   30  N   UNL     1     -12.644  16.585  65.872  1.00  0.00     3.544 NA 
HETATM   31  N   UNL     1     -11.471  15.939  65.823  1.00  0.00     0.182 NA 
ENDBRANCH  22  26
ENDBRANCH  16  20
ENDBRANCH  13  14
ENDBRANCH   9  13
BRANCH   8  32
HETATM   32  C   UNL     1     -11.105  13.091  68.601  1.00  0.00    -0.269 C  
HETATM   33  O   UNL     1     -10.804  13.981  67.824  1.00  0.00    -0.244 OA 
BRANCH  32  34
HETATM   34  O   UNL     1     -10.399  11.944  68.770  1.00  0.00    -0.212 OA 
BRANCH  34  35
HETATM   35  C   UNL     1     -11.055  10.805  68.194  1.00  0.00    -0.280 C  
HETATM   36  C   UNL     1     -11.323  11.177  66.735  1.00  0.00    -0.119 C  
BRANCH  35  37
HETATM   37  O   UNL     1     -10.216   9.651  68.133  1.00  0.00    -0.171 OA 
BRANCH  37  38
HETATM   38  C   UNL     1     -10.348   8.766  69.146  1.00  0.00    -0.217 C  
HETATM   39  O   UNL     1     -11.130   8.845  70.077  1.00  0.00    -0.237 OA 
BRANCH  38  40
HETATM   40  O   UNL     1      -9.470   7.775  68.908  1.00  0.00    -0.150 OA 
BRANCH  40  41
HETATM   41  C   UNL     1      -8.606   7.194  69.912  1.00  0.00    -0.141 C  
HETATM   42  C   UNL     1      -5.736   7.966  69.746  1.00  0.00    -0.023 C  
HETATM   43  C   UNL     1      -7.565   6.355  69.168  1.00  0.00    -0.100 C  
HETATM   44  C   UNL     1      -6.434   7.219  68.618  1.00  0.00    -0.040 C  
HETATM   45  C   UNL     1      -6.699   8.830  70.554  1.00  0.00    -0.044 C  
HETATM   46  C   UNL     1      -7.977   8.100  70.976  1.00  0.00    -0.096 C  
ENDBRANCH  40  41
ENDBRANCH  38  40
ENDBRANCH  37  38
ENDBRANCH  35  37
ENDBRANCH  34  35
ENDBRANCH  32  34
ENDBRANCH   8  32
ENDBRANCH   3   4
ENDBRANCH   2   3
TORSDOF 13
ENDMDL
MODEL      333
REMARK 921   NORMALIZED FREE ENERGY PREDICTED BY IDOCK:   34.24 KCAL/MOL
REMARK 922        TOTAL FREE ENERGY PREDICTED BY IDOCK:   57.82 KCAL/MOL
REMARK 923 INTER-LIGAND FREE ENERGY PREDICTED BY IDOCK:   18.17 KCAL/MOL
REMARK 924 INTRA-LIGAND FREE ENERGY PREDICTED BY IDOCK:   39.65 KCAL/MOL
REMARK 927      BINDING AFFINITY PREDICTED BY RF-SCORE:    0.00 PKD
ROOT
HETATM    1  C   UNL     1      -6.146  10.724  71.332  1.00  0.00     0.541 C  
HETATM    2  C   UNL     1      -7.146  10.353  72.412  1.00  0.00     3.963 C  
ENDROOT
BRANCH   2   3
HETATM    3  O   UNL     1      -7.743   9.104  72.047  1.00  0.00    -0.331 OA 
BRANCH   3   4
HETATM    4  C   UNL     1      -7.298   8.587  70.904  1.00  0.00    -0.068 A  
HETATM    5  N   UNL     1      -6.405   7.628  70.819  1.00  0.00    -0.038 NA 
HETATM    6  C   UNL     1      -6.245   7.417  69.480  1.00  0.00    -0.031 A  
HETATM    7  C   UNL     1      -7.111   8.216  68.708  1.00  0.00    -0.071 A  
HETATM    8  C   UNL     1      -7.162   8.038  67.303  1.00  0.00    -0.087 A  
HETATM    9  N   UNL     1      -7.693   9.040  69.664  1.00  0.00    -0.072 NA 
HETATM   10  C   UNL     1      -5.340   6.396  67.490  1.00  0.00    -0.005 A  
HETATM   11  C   UNL     1      -5.338   6.532  68.872  1.00  0.00    -0.015 A  
HETATM   12  C   UNL     1      -6.258   7.114  66.731  1.00  0.00    -0.039 A  
BRANCH   9  13
HETATM   13  C   UNL     1      -8.430  10.293  69.503  1.00  0.00    -0.142 C  
BRANCH  13  14
HETATM   14  C   UNL     1      -8.824  10.572  68.075  1.00  0.00    -0.131 A  
HETATM   15  C   UNL     1      -9.744   9.866  65.951  1.00  0.00    -0.326 A  
HETATM   16  C   UNL     1     -10.192  11.171  65.687  1.00  0.00    -0.310 A  
HETATM   17  C   UNL     1      -8.950  11.897  67.652  1.00  0.00    -0.169 A  
HETATM   18  C   UNL     1      -9.121   9.557  67.167  1.00  0.00    -0.152 A  
HETATM   19  C   UNL     1      -9.647  12.192  66.481  1.00  0.00    -0.235 A  
BRANCH  16  20
HETATM   20  C   UNL     1     -11.301  11.461  64.730  1.00  0.00    -0.131 A  
HETATM   21  C   UNL     1     -11.143  11.120  63.365  1.00  0.00    -0.026 A  
HETATM   22  C   UNL     1     -12.490  12.167  65.085  1.00  0.00    -0.009 A  
HETATM   23  C   UNL     1     -12.102  11.435  62.397  1.00  0.00     1.974 A  
HETATM   24  C   UNL     1     -13.472  12.416  64.100  1.00  0.00     0.654 A  
HETATM   25  C   UNL     1     -13.278  12.065  62.768  1.00  0.00     1.145 A  
BRANCH  22  26
HETATM   26  C   UNL     1     -12.787  12.734  66.407  1.00  0.00     1.234 A  
HETATM   27  N   UNL     1     -12.400  12.258  67.579  1.00  0.00    -0.162 NA 
HETATM   28  H   UNL     1     -11.828  11.430  67.741  1.00  0.00     0.000 HD 
HETATM   29  N   UNL     1     -12.918  13.095  68.537  1.00  0.00     1.538 NA 
HETATM   30  N   UNL     1     -13.635  14.061  67.983  1.00  0.00     4.620 NA 
HETATM   31  N   UNL     1     -13.593  13.812  66.667  1.00  0.00     2.388 NA 
ENDBRANCH  22  26
ENDBRANCH  16  20
ENDBRANCH  13  14
ENDBRANCH   9  13
BRANCH   8  32
HETATM   32  C   UNL     1      -7.981   8.851  66.372  1.00  0.00    -0.103 C  
HETATM   33  O   UNL     1      -7.519   9.416  65.395  1.00  0.00    -0.096 OA 
BRANCH  32  34
HETATM   34  O   UNL     1      -9.307   8.694  66.616  1.00  0.00    -0.165 OA 
BRANCH  34  35
HETATM   35  C   UNL     1      -9.590   7.502  67.364  1.00  0.00    -0.149 C  
HETATM   36  C   UNL     1     -11.115   7.405  67.422  1.00  0.00    -0.066 C  
BRANCH  35  37
HETATM   37  O   UNL     1      -9.170   6.312  66.696  1.00  0.00    -0.138 OA 
BRANCH  37  38
HETATM   38  C   UNL     1      -9.820   6.015  65.549  1.00  0.00     0.591 C  
HETATM   39  O   UNL     1     -10.870   6.501  65.166  1.00  0.00     3.338 OA 
BRANCH  38  40
HETATM   40  O   UNL     1      -9.069   5.102  64.906  1.00  0.00    -0.133 OA 
BRANCH  40  41
HETATM   41  C   UNL     1      -7.655   4.903  65.135  1.00  0.00    -0.078 C  
HETATM   42  C   UNL     1      -6.956   2.991  67.305  1.00  0.00    -0.049 C  
HETATM   43  C   UNL     1      -7.373   5.349  66.571  1.00  0.00    -0.086 C  
HETATM   44  C   UNL     1      -7.742   4.265  67.579  1.00  0.00    -0.084 C  
HETATM   45  C   UNL     1      -7.170   2.469  65.888  1.00  0.00    -0.065 C  
HETATM   46  C   UNL     1      -7.025   3.545  64.807  1.00  0.00    -0.056 C  
ENDBRANCH  40  41
ENDBRANCH  38  40
ENDBRANCH  37  38
ENDBRANCH  35  37
ENDBRANCH  34  35
ENDBRANCH  32  34
ENDBRANCH   8  32
ENDBRANCH   3   4
ENDBRANCH   2   3
TORSDOF 13
ENDMDL
MODEL      334
REMARK 921   NORMALIZED FREE ENERGY PREDICTED BY IDOCK:   37.40 KCAL/MOL
REMARK 922        TOTAL FREE ENERGY PREDICTED BY IDOCK:   63.37 KCAL/MOL
REMARK 923 INTER-LIGAND FREE ENERGY PREDICTED BY IDOCK:   53.68 KCAL/MOL
REMARK 924 INTRA-LIGAND FREE ENERGY PREDICTED BY IDOCK:    9.69 KCAL/MOL
REMARK 927      BINDING AFFINITY PREDICTED BY RF-SCORE:    0.00 PKD
ROOT
HETATM    1  C   UNL     1     -12.856  17.385  72.753  1.00  0.00     3.839 C  
HETATM    2  C   UNL     1     -11.842  17.279  73.877  1.00  0.00     0.298 C  
ENDROOT
BRANCH   2   3
HETATM    3  O   UNL     1     -11.326  15.944  73.877  1.00  0.00     0.568 OA 
BRANCH   3   4
HETATM    4  C   UNL     1     -11.693  15.204  72.833  1.00  0.00    -0.314 A  
HETATM    5  N   UNL     1     -12.898  15.196  72.313  1.00  0.00    -0.320 NA 
HETATM    6  C   UNL     1     -12.829  14.304  71.282  1.00  0.00    -0.352 A  
HETATM    7  C   UNL     1     -11.528  13.793  71.108  1.00  0.00     0.880 A  
HETATM    8  C   UNL     1     -11.250  12.945  70.007  1.00  0.00     0.216 A  
HETATM    9  N   UNL     1     -10.850  14.313  72.203  1.00  0.00     2.332 NA 
HETATM   10  C   UNL     1     -13.635  13.013  69.411  1.00  0.00     3.927 A  
HETATM   11  C   UNL     1     -13.888  13.891  70.456  1.00  0.00     0.953 A  
HETATM   12  C   UNL     1     -12.336  12.579  69.178  1.00  0.00     0.130 A  
BRANCH   9  13
HETATM   13  C   UNL     1      -9.570  13.920  72.793  1.00  0.00    10.939 C  
BRANCH  13  14
HETATM   14  C   UNL     1      -8.451  13.843  71.785  1.00  0.00     9.014 A  
HETATM   15  C   UNL     1      -6.672  12.632  70.678  1.00  0.00     1.492 A  
HETATM   16  C   UNL     1      -6.849  13.397  69.512  1.00  0.00     0.066 A  
HETATM   17  C   UNL     1      -8.377  14.808  70.779  1.00  0.00     2.219 A  
HETATM   18  C   UNL     1      -7.512  12.813  71.785  1.00  0.00     9.039 A  
HETATM   19  C   UNL     1      -7.600  14.575  69.645  1.00  0.00     0.088 A  
BRANCH  16  20
HETATM   20  C   UNL     1      -6.409  12.922  68.166  1.00  0.00    -0.096 A  
HETATM   21  C   UNL     1      -5.643  11.735  68.069  1.00  0.00    -0.046 A  
HETATM   22  C   UNL     1      -6.624  13.653  66.959  1.00  0.00     0.815 A  
HETATM   23  C   UNL     1      -5.125  11.275  66.854  1.00  0.00    -0.084 A  
HETATM   24  C   UNL     1      -6.145  13.132  65.735  1.00  0.00     6.310 A  
HETATM   25  C   UNL     1      -5.395  11.962  65.682  1.00  0.00     1.484 A  
BRANCH  22  26
HETATM   26  C   UNL     1      -7.266  14.970  66.858  1.00  0.00     0.398 A  
HETATM   27  N   UNL     1      -8.366  15.267  66.187  1.00  0.00    -0.247 NA 
HETATM   28  H   UNL     1      -8.941  14.622  65.646  1.00  0.00     0.000 HD 
HETATM   29  N   UNL     1      -8.586  16.612  66.360  1.00  0.00    -0.283 NA 
HETATM   30  N   UNL     1      -7.632  17.154  67.102  1.00  0.00    -0.165 NA 
HETATM   31  N   UNL     1      -6.790  16.148  67.372  1.00  0.00    -0.165 NA 
ENDBRANCH  22  26
ENDBRANCH  16  20
ENDBRANCH  13  14
ENDBRANCH   9  13
BRANCH   8  32
HETATM   32  C   UNL     1      -9.945  12.293  69.743  1.00  0.00     1.644 C  
HETATM   33  O   UNL     1      -8.962  12.899  69.351  1.00  0.00     0.826 OA 
BRANCH  32  34
HETATM   34  O   UNL     1      -9.930  11.016  70.204  1.00  0.00     0.570 OA 
BRANCH  34  35
HETATM   35  C   UNL     1     -10.456  10.082  69.249  1.00  0.00    -0.225 C  
HETATM   36  C   UNL     1      -9.858  10.489  67.902  1.00  0.00    -0.181 C  
BRANCH  35  37
HETATM   37  O   UNL     1      -9.999   8.747  69.467  1.00  0.00    -0.186 OA 
BRANCH  37  38
HETATM   38  C   UNL     1     -10.829   7.944  70.170  1.00  0.00    -0.243 C  
HETATM   39  O   UNL     1     -11.930   8.240  70.600  1.00  0.00    -0.182 OA 
BRANCH  38  40
HETATM   40  O   UNL     1     -10.213   6.751  70.274  1.00  0.00    -0.191 OA 
BRANCH  40  41
HETATM   41  C   UNL     1     -10.479   5.785  71.317  1.00  0.00    -0.235 C  
HETATM   42  C   UNL     1      -8.280   5.362  73.277  1.00  0.00    -0.115 C  
HETATM   43  C   UNL     1      -9.439   4.673  71.166  1.00  0.00    -0.220 C  
HETATM   44  C   UNL     1      -8.105   5.062  71.794  1.00  0.00    -0.115 C  
HETATM   45  C   UNL     1      -9.308   6.460  73.530  1.00  0.00    -0.145 C  
HETATM   46  C   UNL     1     -10.621   6.264  72.765  1.00  0.00    -0.252 C  
ENDBRANCH  40  41
ENDBRANCH  38  40
ENDBRANCH  37  38
ENDBRANCH  35  37
ENDBRANCH  34  35
ENDBRANCH  32  34
ENDBRANCH   8  32
ENDBRANCH   3   4
ENDBRANCH   2   3
TORSDOF 13
ENDMDL
MODEL      335
REMARK 921   NORMALIZED FREE ENERGY PREDICTED BY IDOCK:   45.86 KCAL/MOL
REMARK 922        TOTAL FREE ENERGY PREDICTED BY IDOCK:   78.27 KCAL/MOL
REMARK 923 INTER-LIGAND FREE ENERGY PREDICTED BY IDOCK:   41.91 KCAL/MOL
REMARK 924 INTRA-LIGAND FREE ENERGY PREDICTED BY IDOCK:   36.35 KCAL/MOL
REMARK 927      BINDING AFFINITY PREDICTED BY RF-SCORE:    0.00 PKD
ROOT
HETATM    1  C   UNL     1      -8.196   7.494  73.199  1.00  0.00    -0.158 C  
HETATM    2  C   UNL     1      -7.561   8.084  74.446  1.00  0.00    -0.207 C  
ENDROOT
BRANCH   2   3
HETATM    3  O   UNL     1      -6.612   9.070  74.028  1.00  0.00    -0.336 OA 
BRANCH   3   4
HETATM    4  C   UNL     1      -7.083   9.970  73.169  1.00  0.00     3.123 A  
HETATM    5  N   UNL     1      -6.502  11.115  72.896  1.00  0.00     3.363 NA 
HETATM    6  C   UNL     1      -7.320  11.714  71.982  1.00  0.00     9.239 A  
HETATM    7  C   UNL     1      -8.406  10.893  71.620  1.00  0.00     7.971 A  
HETATM    8  C   UNL     1      -9.288  11.310  70.593  1.00  0.00     4.309 A  
HETATM    9  N   UNL     1      -8.277   9.822  72.496  1.00  0.00     2.247 NA 
HETATM   10  C   UNL     1      -8.062  13.438  70.466  1.00  0.00     4.216 A  
HETATM   11  C   UNL     1      -7.165  12.997  71.431  1.00  0.00     5.405 A  
HETATM   12  C   UNL     1      -9.080  12.594  70.039  1.00  0.00     3.572 A  
BRANCH   9  13
HETATM   13  C   UNL     1      -9.245   8.789  72.869  1.00  0.00     0.273 C  
BRANCH  13  14
HETATM   14  C   UNL     1      -8.688   7.391  72.772  1.00  0.00    -0.160 A  
HETATM   15  C   UNL     1      -8.953   5.028  72.325  1.00  0.00    -0.142 A  
HETATM   16  C   UNL     1      -7.612   4.933  71.914  1.00  0.00    -0.097 A  
HETATM   17  C   UNL     1      -7.304   7.215  72.709  1.00  0.00    -0.076 A  
HETATM   18  C   UNL     1      -9.503   6.263  72.690  1.00  0.00    -0.148 A  
HETATM   19  C   UNL     1      -6.775   6.005  72.263  1.00  0.00    -0.072 A  
BRANCH  16  20
HETATM   20  C   UNL     1      -7.121   3.843  71.021  1.00  0.00    -0.033 A  
HETATM   21  C   UNL     1      -7.012   2.527  71.533  1.00  0.00    -0.031 A  
HETATM   22  C   UNL     1      -6.646   4.059  69.692  1.00  0.00    -0.033 A  
HETATM   23  C   UNL     1      -6.482   1.472  70.783  1.00  0.00    -0.024 A  
HETATM   24  C   UNL     1      -6.176   2.964  68.933  1.00  0.00    -0.029 A  
HETATM   25  C   UNL     1      -6.083   1.685  69.474  1.00  0.00    -0.024 A  
BRANCH  22  26
HETATM   26  C   UNL     1      -6.539   5.363  69.024  1.00  0.00    -0.051 A  
HETATM   27  N   UNL     1      -5.553   5.777  68.246  1.00  0.00    -0.008 NA 
HETATM   28  H   UNL     1      -4.721   5.248  67.984  1.00  0.00     0.000 HD 
HETATM   29  N   UNL     1      -5.864   7.057  67.858  1.00  0.00    -0.024 NA 
HETATM   30  N   UNL     1      -7.007   7.450  68.399  1.00  0.00    -0.076 NA 
HETATM   31  N   UNL     1      -7.403   6.419  69.158  1.00  0.00    -0.090 NA 
ENDBRANCH  22  26
ENDBRANCH  16  20
ENDBRANCH  13  14
ENDBRANCH   9  13
BRANCH   8  32
HETATM   32  C   UNL     1     -10.498  10.572  70.160  1.00  0.00    -0.026 C  
HETATM   33  O   UNL     1     -11.604  11.082  70.096  1.00  0.00    -0.296 OA 
BRANCH  32  34
HETATM   34  O   UNL     1     -10.178   9.360  69.640  1.00  0.00    -0.191 OA 
BRANCH  34  35
HETATM   35  C   UNL     1     -10.423   9.285  68.228  1.00  0.00    -0.215 C  
HETATM   36  C   UNL     1      -9.830  10.567  67.639  1.00  0.00    -0.192 C  
BRANCH  35  37
HETATM   37  O   UNL     1      -9.708   8.224  67.595  1.00  0.00    -0.148 OA 
BRANCH  37  38
HETATM   38  C   UNL     1     -10.336   7.027  67.555  1.00  0.00    -0.225 C  
HETATM   39  O   UNL     1     -11.525   6.828  67.733  1.00  0.00    -0.077 OA 
BRANCH  38  40
HETATM   40  O   UNL     1      -9.398   6.110  67.254  1.00  0.00    -0.114 OA 
BRANCH  40  41
HETATM   41  C   UNL     1      -9.460   5.225  66.112  1.00  0.00    -0.158 C  
HETATM   42  C   UNL     1      -8.764   2.381  66.644  1.00  0.00    -0.131 C  
HETATM   43  C   UNL     1      -8.050   4.666  65.909  1.00  0.00    -0.103 C  
HETATM   44  C   UNL     1      -7.762   3.507  66.857  1.00  0.00    -0.080 C  
HETATM   45  C   UNL     1     -10.206   2.845  66.821  1.00  0.00     1.645 C  
HETATM   46  C   UNL     1     -10.536   4.136  66.064  1.00  0.00     0.322 C  
ENDBRANCH  40  41
ENDBRANCH  38  40
ENDBRANCH  37  38
ENDBRANCH  35  37
ENDBRANCH  34  35
ENDBRANCH  32  34
ENDBRANCH   8  32
ENDBRANCH   3   4
ENDBRANCH   2   3
TORSDOF 13
ENDMDL
MODEL      336
REMARK 921   NORMALIZED FREE ENERGY PREDICTED BY IDOCK:   69.77 KCAL/MOL
REMARK 922        TOTAL FREE ENERGY PREDICTED BY IDOCK:  120.34 KCAL/MOL
REMARK 923 INTER-LIGAND FREE ENERGY PREDICTED BY IDOCK:   52.21 KCAL/MOL
REMARK 924 INTRA-LIGAND FREE ENERGY PREDICTED BY IDOCK:   68.13 KCAL/MOL
REMARK 927      BINDING AFFINITY PREDICTED BY RF-SCORE:    0.00 PKD
ROOT
HETATM    1  C   UNL     1      -8.196   7.494  73.199  1.00  0.00    -0.158 C  
HETATM    2  C   UNL     1      -7.571   8.077  74.454  1.00  0.00    -0.207 C  
ENDROOT
BRANCH   2   3
HETATM    3  O   UNL     1      -6.623   9.070  74.049  1.00  0.00    -0.336 OA 
BRANCH   3   4
HETATM    4  C   UNL     1      -7.093   9.975  73.194  1.00  0.00     3.123 A  
HETATM    5  N   UNL     1      -6.515  11.124  72.934  1.00  0.00     3.363 NA 
HETATM    6  C   UNL     1      -7.329  11.727  72.020  1.00  0.00     9.560 A  
HETATM    7  C   UNL     1      -8.410  10.904  71.645  1.00  0.00     7.971 A  
HETATM    8  C   UNL     1      -9.287  11.325  70.616  1.00  0.00     4.309 A  
HETATM    9  N   UNL     1      -8.282   9.827  72.513  1.00  0.00     2.247 NA 
HETATM   10  C   UNL     1      -8.069  13.459  70.512  1.00  0.00     4.216 A  
HETATM   11  C   UNL     1      -7.177  13.015  71.479  1.00  0.00     5.839 A  
HETATM   12  C   UNL     1      -9.081  12.614  70.073  1.00  0.00     3.572 A  
BRANCH   9  13
HETATM   13  C   UNL     1      -9.248   8.787  72.872  1.00  0.00     0.273 C  
BRANCH  13  14
HETATM   14  C   UNL     1      -8.685   7.392  72.768  1.00  0.00    -0.160 A  
HETATM   15  C   UNL     1      -8.938   5.032  72.301  1.00  0.00    -0.142 A  
HETATM   16  C   UNL     1      -7.595   4.945  71.898  1.00  0.00    -0.097 A  
HETATM   17  C   UNL     1      -7.300   7.222  72.712  1.00  0.00    -0.079 A  
HETATM   18  C   UNL     1      -9.495   6.262  72.673  1.00  0.00    -0.148 A  
HETATM   19  C   UNL     1      -6.763   6.017  72.260  1.00  0.00    -0.072 A  
BRANCH  16  20
HETATM   20  C   UNL     1      -7.094   3.864  71.000  1.00  0.00    -0.033 A  
HETATM   21  C   UNL     1      -6.982   2.544  71.502  1.00  0.00    -0.031 A  
HETATM   22  C   UNL     1      -6.612   4.092  69.675  1.00  0.00    -0.033 A  
HETATM   23  C   UNL     1      -6.444   1.497  70.747  1.00  0.00    -0.024 A  
HETATM   24  C   UNL     1      -6.133   3.004  68.911  1.00  0.00    -0.025 A  
HETATM   25  C   UNL     1      -6.038   1.722  69.442  1.00  0.00    -0.024 A  
BRANCH  22  26
HETATM   26  C   UNL     1      -6.505   5.402  69.018  1.00  0.00    -0.042 A  
HETATM   27  N   UNL     1      -7.233   5.843  68.006  1.00  0.00    -0.074 NA 
HETATM   28  H   UNL     1      -7.987   5.342  67.535  1.00  0.00     0.000 HD 
HETATM   29  N   UNL     1      -6.779   7.104  67.710  1.00  0.00    -0.062 NA 
HETATM   30  N   UNL     1      -5.771   7.441  68.501  1.00  0.00    -0.022 NA 
HETATM   31  N   UNL     1      -5.571   6.369  69.280  1.00  0.00    -0.013 NA 
ENDBRANCH  22  26
ENDBRANCH  16  20
ENDBRANCH  13  14
ENDBRANCH   9  13
BRANCH   8  32
HETATM   32  C   UNL     1     -10.492  10.586  70.170  1.00  0.00    -0.026 C  
HETATM   33  O   UNL     1     -11.155  10.913  69.200  1.00  0.00    -0.207 OA 
BRANCH  32  34
HETATM   34  O   UNL     1     -10.617   9.405  70.826  1.00  0.00    -0.254 OA 
BRANCH  34  35
HETATM   35  C   UNL     1     -10.406   8.275  69.967  1.00  0.00    -0.212 C  
HETATM   36  C   UNL     1      -9.139   8.593  69.172  1.00  0.00    -0.142 C  
BRANCH  35  37
HETATM   37  O   UNL     1     -10.099   7.079  70.686  1.00  0.00    -0.191 OA 
BRANCH  37  38
HETATM   38  C   UNL     1     -11.156   6.328  71.067  1.00  0.00    -0.298 C  
HETATM   39  O   UNL     1     -12.291   6.401  70.628  1.00  0.00    -0.166 OA 
BRANCH  38  40
HETATM   40  O   UNL     1     -10.703   5.471  72.000  1.00  0.00    -0.225 OA 
BRANCH  40  41
HETATM   41  C   UNL     1     -10.797   4.031  71.899  1.00  0.00     0.497 C  
HETATM   42  C   UNL     1      -9.735   2.843  69.386  1.00  0.00     0.085 C  
HETATM   43  C   UNL     1     -11.682   3.730  70.688  1.00  0.00     7.666 C  
HETATM   44  C   UNL     1     -10.899   3.824  69.382  1.00  0.00     3.347 C  
HETATM   45  C   UNL     1      -8.795   3.061  70.567  1.00  0.00    -0.149 C  
HETATM   46  C   UNL     1      -9.515   3.193  71.913  1.00  0.00    -0.210 C  
ENDBRANCH  40  41
ENDBRANCH  38  40
ENDBRANCH  37  38
ENDBRANCH  35  37
ENDBRANCH  34  35
ENDBRANCH  32  34
ENDBRANCH   8  32
ENDBRANCH   3   4
ENDBRANCH   2   3
TORSDOF 13
ENDMDL
