MODEL        1
REMARK 921   NORMALIZED FREE ENERGY PREDICTED BY IDOCK:   -8.52 KCAL/MOL
REMARK 922        TOTAL FREE ENERGY PREDICTED BY IDOCK:  -15.51 KCAL/MOL
REMARK 923 INTER-LIGAND FREE ENERGY PREDICTED BY IDOCK:  -14.51 KCAL/MOL
REMARK 924 INTRA-LIGAND FREE ENERGY PREDICTED BY IDOCK:   -1.01 KCAL/MOL
REMARK 927      BINDING AFFINITY PREDICTED BY RF-SCORE:    0.00 PKD
ROOT
HETATM    1  C   UNL     1      -6.546  20.874  66.851  1.00  0.00    -0.311 C  
HETATM    2  S   UNL     1      -8.126  19.999  66.892  1.00  0.00    -0.328 SA 
ENDROOT
BRANCH   2   3
HETATM    3  C   UNL     1      -7.528  18.310  67.278  1.00  0.00    -0.213 C  
BRANCH   3   4
HETATM    4  C   UNL     1      -8.202  17.731  68.540  1.00  0.00    -0.296 C  
BRANCH   4   5
HETATM    5  N   UNL     1      -9.649  17.787  68.424  1.00  0.00    -0.310 NA 
HETATM    6  H   UNL     1     -10.116  18.693  68.388  1.00  0.00     0.000 HD 
BRANCH   5   7
HETATM    7  C   UNL     1     -10.403  16.629  68.362  1.00  0.00    -0.299 A  
HETATM    8  C   UNL     1     -10.724  16.056  67.121  1.00  0.00    -0.283 A  
HETATM    9  N   UNL     1     -10.388  16.409  65.828  1.00  0.00    -0.408 NA 
HETATM   10  C   UNL     1     -10.903  15.452  65.072  1.00  0.00    -0.444 A  
HETATM   11  N   UNL     1     -11.582  14.513  65.819  1.00  0.00    -0.350 NA 
HETATM   12  C   UNL     1     -11.472  14.888  67.128  1.00  0.00    -0.335 A  
HETATM   13  N   UNL     1     -10.865  16.008  69.487  1.00  0.00    -0.291 NA 
HETATM   14  C   UNL     1     -11.621  14.900  69.350  1.00  0.00    -0.309 A  
HETATM   15  N   UNL     1     -11.957  14.264  68.202  1.00  0.00    -0.333 NA 
BRANCH  11  16
HETATM   16  C   UNL     1     -12.103  13.275  65.282  1.00  0.00    -0.418 C  
HETATM   17  O   UNL     1     -11.549  12.202  66.053  1.00  0.00    -0.367 OA 
HETATM   18  C   UNL     1     -10.516  11.548  65.298  1.00  0.00    -0.283 C  
HETATM   19  H   UNL     1     -12.750  11.771  62.427  1.00  0.00     0.000 HD 
HETATM   20  O   UNL     1     -12.906  12.014  63.332  1.00  0.00    -0.760 OA 
HETATM   21  C   UNL     1     -10.570  12.074  63.868  1.00  0.00    -0.400 C  
HETATM   22  H   UNL     1     -10.629  11.298  62.061  1.00  0.00     0.000 HD 
HETATM   23  C   UNL     1     -11.851  12.882  63.818  1.00  0.00    -0.504 C  
HETATM   24  O   UNL     1     -10.595  10.970  62.952  1.00  0.00    -0.085 OA 
BRANCH  18  25
HETATM   25  C   UNL     1      -9.134  11.758  65.919  1.00  0.00    -0.124 C  
BRANCH  25  26
HETATM   26  O   UNL     1      -9.286  11.539  67.322  1.00  0.00    -0.164 OA 
BRANCH  26  27
HETATM   27  P   UNL     1      -8.860  10.080  67.837  1.00  0.00    -0.124 P  
HETATM   28  O   UNL     1      -7.977   9.644  66.555  1.00  0.00    -0.110 OA 
HETATM   29  O   UNL     1      -8.096  10.025  69.126  1.00  0.00    -0.105 OA 
BRANCH  27  30
HETATM   30  O   UNL     1     -10.262   9.242  67.863  1.00  0.00    -0.189 OA 
HETATM   31  P   UNL     1     -10.891   8.834  69.422  1.00  0.00     0.049 P  
HETATM   32  C   UNL     1     -11.555   8.404  71.072  1.00  0.00    -0.275 C  
HETATM   33  O   UNL     1      -9.803   7.593  69.463  1.00  0.00    -0.174 OA 
HETATM   34  O   UNL     1     -10.216  10.070  70.074  1.00  0.00    -0.249 OA 
HETATM   35 CL   UNL     1     -10.247   8.223  72.337  1.00  0.00    -0.376 Cl 
HETATM   36  P   UNL     1     -12.555   9.798  71.710  1.00  0.00    -0.396 P  
HETATM   37 CL   UNL     1     -12.345   6.795  70.966  1.00  0.00    -0.415 Cl 
HETATM   38  O   UNL     1     -13.939   8.998  71.274  1.00  0.00    -0.314 OA 
HETATM   39  O   UNL     1     -12.550  10.534  70.222  1.00  0.00    -0.310 OA 
HETATM   40  O   UNL     1     -13.401  10.977  72.250  1.00  0.00    -0.390 OA 
ENDBRANCH  27  30
ENDBRANCH  26  27
ENDBRANCH  25  26
ENDBRANCH  18  25
ENDBRANCH  11  16
BRANCH  14  41
HETATM   41  S   UNL     1     -12.289  14.150  70.819  1.00  0.00    -0.389 SA 
BRANCH  41  42
HETATM   42  C   UNL     1     -13.484  15.431  71.329  1.00  0.00    -0.519 C  
BRANCH  42  43
HETATM   43  C   UNL     1     -13.723  15.298  72.828  1.00  0.00    -0.584 C  
HETATM   44  C   UNL     1     -12.571  15.847  73.639  1.00  0.00    -0.591 C  
HETATM   45  F   UNL     1     -13.010  16.787  74.510  1.00  0.00    -0.216 F  
HETATM   46  F   UNL     1     -11.612  16.412  72.880  1.00  0.00    -0.536 F  
HETATM   47  F   UNL     1     -11.991  14.870  74.371  1.00  0.00    -0.678 F  
ENDBRANCH  42  43
ENDBRANCH  41  42
ENDBRANCH  14  41
ENDBRANCH   5   7
ENDBRANCH   4   5
ENDBRANCH   3   4
ENDBRANCH   2   3
TORSDOF 12
ENDMDL
MODEL        2
REMARK 921   NORMALIZED FREE ENERGY PREDICTED BY IDOCK:   -8.29 KCAL/MOL
REMARK 922        TOTAL FREE ENERGY PREDICTED BY IDOCK:  -15.11 KCAL/MOL
REMARK 923 INTER-LIGAND FREE ENERGY PREDICTED BY IDOCK:  -14.26 KCAL/MOL
REMARK 924 INTRA-LIGAND FREE ENERGY PREDICTED BY IDOCK:   -0.85 KCAL/MOL
REMARK 927      BINDING AFFINITY PREDICTED BY RF-SCORE:    0.00 PKD
ROOT
HETATM    1  C   UNL     1      -6.677  20.881  66.909  1.00  0.00    -0.316 C  
HETATM    2  S   UNL     1      -8.290  20.128  67.219  1.00  0.00    -0.347 SA 
ENDROOT
BRANCH   2   3
HETATM    3  C   UNL     1      -7.802  18.361  67.238  1.00  0.00    -0.230 C  
BRANCH   3   4
HETATM    4  C   UNL     1      -8.343  17.624  68.482  1.00  0.00    -0.291 C  
BRANCH   4   5
HETATM    5  N   UNL     1      -9.794  17.674  68.519  1.00  0.00    -0.327 NA 
HETATM    6  H   UNL     1     -10.264  18.571  68.639  1.00  0.00     0.000 HD 
BRANCH   5   7
HETATM    7  C   UNL     1     -10.548  16.520  68.395  1.00  0.00    -0.323 A  
HETATM    8  C   UNL     1     -10.851  16.003  67.126  1.00  0.00    -0.239 A  
HETATM    9  N   UNL     1     -10.495  16.411  65.855  1.00  0.00    -0.346 NA 
HETATM   10  C   UNL     1     -11.000  15.489  65.050  1.00  0.00    -0.440 A  
HETATM   11  N   UNL     1     -11.691  14.519  65.746  1.00  0.00    -0.358 NA 
HETATM   12  C   UNL     1     -11.600  14.837  67.071  1.00  0.00    -0.339 A  
HETATM   13  N   UNL     1     -11.027  15.852  69.485  1.00  0.00    -0.284 NA 
HETATM   14  C   UNL     1     -11.783  14.752  69.289  1.00  0.00    -0.316 A  
HETATM   15  N   UNL     1     -12.102  14.167  68.110  1.00  0.00    -0.319 NA 
BRANCH  11  16
HETATM   16  C   UNL     1     -12.205  13.306  65.147  1.00  0.00    -0.443 C  
HETATM   17  O   UNL     1     -11.843  12.215  66.002  1.00  0.00    -0.522 OA 
HETATM   18  C   UNL     1     -10.753  11.483  65.417  1.00  0.00    -0.278 C  
HETATM   19  H   UNL     1     -12.514  11.794  62.241  1.00  0.00     0.000 HD 
HETATM   20  O   UNL     1     -12.788  12.063  63.110  1.00  0.00    -0.661 OA 
HETATM   21  C   UNL     1     -10.559  11.985  63.990  1.00  0.00    -0.377 C  
HETATM   22  H   UNL     1     -10.398  11.181  62.201  1.00  0.00     0.000 HD 
HETATM   23  C   UNL     1     -11.763  12.871  63.741  1.00  0.00    -0.492 C  
HETATM   24  O   UNL     1     -10.519  10.869  63.090  1.00  0.00    -0.253 OA 
BRANCH  18  25
HETATM   25  C   UNL     1      -9.469  11.618  66.237  1.00  0.00    -0.218 C  
BRANCH  25  26
HETATM   26  O   UNL     1      -9.485  10.551  67.186  1.00  0.00    -0.156 OA 
BRANCH  26  27
HETATM   27  P   UNL     1      -9.990  10.952  68.655  1.00  0.00    -0.194 P  
HETATM   28  O   UNL     1      -9.479  12.485  68.653  1.00  0.00    -0.132 OA 
HETATM   29  O   UNL     1     -11.462  10.821  68.913  1.00  0.00    -0.262 OA 
BRANCH  27  30
HETATM   30  O   UNL     1      -9.062  10.051  69.654  1.00  0.00    -0.206 OA 
HETATM   31  P   UNL     1      -9.748   8.567  70.219  1.00  0.00    -0.180 P  
HETATM   32  C   UNL     1     -10.474   6.997  70.815  1.00  0.00    -0.212 C  
HETATM   33  O   UNL     1     -10.596   9.455  71.322  1.00  0.00    -0.313 OA 
HETATM   34  O   UNL     1     -10.630   8.432  68.949  1.00  0.00    -0.212 OA 
HETATM   35 CL   UNL     1     -12.299   7.051  70.909  1.00  0.00    -0.402 Cl 
HETATM   36  P   UNL     1     -10.164   5.675  69.587  1.00  0.00    -0.302 P  
HETATM   37 CL   UNL     1      -9.916   6.715  72.499  1.00  0.00    -0.177 Cl 
HETATM   38  O   UNL     1      -8.918   5.108  70.520  1.00  0.00    -0.128 OA 
HETATM   39  O   UNL     1      -9.075   6.632  68.775  1.00  0.00    -0.132 OA 
HETATM   40  O   UNL     1      -9.901   4.558  68.549  1.00  0.00    -0.150 OA 
ENDBRANCH  27  30
ENDBRANCH  26  27
ENDBRANCH  25  26
ENDBRANCH  18  25
ENDBRANCH  11  16
BRANCH  14  41
HETATM   41  S   UNL     1     -12.474  13.939  70.714  1.00  0.00    -0.375 SA 
BRANCH  41  42
HETATM   42  C   UNL     1     -13.622  15.229  71.304  1.00  0.00    -0.507 C  
BRANCH  42  43
HETATM   43  C   UNL     1     -13.715  15.134  72.821  1.00  0.00    -0.556 C  
HETATM   44  C   UNL     1     -12.576  15.855  73.508  1.00  0.00    -0.578 C  
HETATM   45  F   UNL     1     -13.053  16.772  74.382  1.00  0.00    -0.175 F  
HETATM   46  F   UNL     1     -11.763  16.499  72.647  1.00  0.00    -0.566 F  
HETATM   47  F   UNL     1     -11.818  14.989  74.217  1.00  0.00    -0.628 F  
ENDBRANCH  42  43
ENDBRANCH  41  42
ENDBRANCH  14  41
ENDBRANCH   5   7
ENDBRANCH   4   5
ENDBRANCH   3   4
ENDBRANCH   2   3
TORSDOF 12
ENDMDL
MODEL        3
REMARK 921   NORMALIZED FREE ENERGY PREDICTED BY IDOCK:   -7.67 KCAL/MOL
REMARK 922        TOTAL FREE ENERGY PREDICTED BY IDOCK:  -14.07 KCAL/MOL
REMARK 923 INTER-LIGAND FREE ENERGY PREDICTED BY IDOCK:  -12.78 KCAL/MOL
REMARK 924 INTRA-LIGAND FREE ENERGY PREDICTED BY IDOCK:   -1.29 KCAL/MOL
REMARK 927      BINDING AFFINITY PREDICTED BY RF-SCORE:    0.00 PKD
ROOT
HETATM    1  C   UNL     1      -7.375  18.819  66.195  1.00  0.00    -0.262 C  
HETATM    2  S   UNL     1      -8.948  19.707  66.231  1.00  0.00    -0.346 SA 
ENDROOT
BRANCH   2   3
HETATM    3  C   UNL     1      -9.175  19.850  68.045  1.00  0.00    -0.313 C  
BRANCH   3   4
HETATM    4  C   UNL     1     -10.256  18.881  68.571  1.00  0.00    -0.347 C  
BRANCH   4   5
HETATM    5  N   UNL     1      -9.697  17.559  68.798  1.00  0.00    -0.305 NA 
HETATM    6  H   UNL     1      -8.717  17.467  69.062  1.00  0.00     0.000 HD 
BRANCH   5   7
HETATM    7  C   UNL     1     -10.476  16.424  68.660  1.00  0.00    -0.293 A  
HETATM    8  C   UNL     1     -10.815  15.947  67.384  1.00  0.00    -0.291 A  
HETATM    9  N   UNL     1     -10.476  16.381  66.117  1.00  0.00    -0.328 NA 
HETATM   10  C   UNL     1     -11.015  15.490  65.299  1.00  0.00    -0.380 A  
HETATM   11  N   UNL     1     -11.712  14.517  65.983  1.00  0.00    -0.362 NA 
HETATM   12  C   UNL     1     -11.588  14.797  67.314  1.00  0.00    -0.369 A  
HETATM   13  N   UNL     1     -10.947  15.738  69.742  1.00  0.00    -0.286 NA 
HETATM   14  C   UNL     1     -11.728  14.658  69.533  1.00  0.00    -0.324 A  
HETATM   15  N   UNL     1     -12.083  14.111  68.346  1.00  0.00    -0.323 NA 
BRANCH  11  16
HETATM   16  C   UNL     1     -12.262  13.330  65.365  1.00  0.00    -0.456 C  
HETATM   17  O   UNL     1     -11.937  12.214  66.203  1.00  0.00    -0.593 OA 
HETATM   18  C   UNL     1     -10.870  11.458  65.609  1.00  0.00    -0.218 C  
HETATM   19  H   UNL     1     -12.610  11.874  62.434  1.00  0.00     0.000 HD 
HETATM   20  O   UNL     1     -12.877  12.138  63.306  1.00  0.00    -0.735 OA 
HETATM   21  C   UNL     1     -10.655  11.976  64.191  1.00  0.00    -0.355 C  
HETATM   22  H   UNL     1     -10.513  11.195  62.391  1.00  0.00     0.000 HD 
HETATM   23  C   UNL     1     -11.829  12.903  63.953  1.00  0.00    -0.473 C  
HETATM   24  O   UNL     1     -10.647  10.873  63.274  1.00  0.00    -0.253 OA 
BRANCH  18  25
HETATM   25  C   UNL     1      -9.584  11.539  66.435  1.00  0.00    -0.209 C  
BRANCH  25  26
HETATM   26  O   UNL     1      -8.560  10.938  65.642  1.00  0.00    -0.178 OA 
BRANCH  26  27
HETATM   27  P   UNL     1      -8.056   9.502  66.151  1.00  0.00    -0.113 P  
HETATM   28  O   UNL     1      -8.887   8.593  65.104  1.00  0.00    -0.177 OA 
HETATM   29  O   UNL     1      -6.577   9.257  66.099  1.00  0.00    -0.068 OA 
BRANCH  27  30
HETATM   30  O   UNL     1      -8.697   9.363  67.647  1.00  0.00    -0.116 OA 
HETATM   31  P   UNL     1      -9.355   7.820  68.067  1.00  0.00    -0.142 P  
HETATM   32  C   UNL     1     -10.052   6.186  68.510  1.00  0.00    -0.162 C  
HETATM   33  O   UNL     1     -10.701   8.234  67.205  1.00  0.00    -0.302 OA 
HETATM   34  O   UNL     1      -8.388   7.087  67.100  1.00  0.00    -0.119 OA 
HETATM   35 CL   UNL     1     -10.668   5.262  67.057  1.00  0.00    -0.245 Cl 
HETATM   36  P   UNL     1      -8.718   5.108  69.149  1.00  0.00    -0.093 P  
HETATM   37 CL   UNL     1     -11.487   6.444  69.558  1.00  0.00    -0.464 Cl 
HETATM   38  O   UNL     1      -9.223   5.410  70.698  1.00  0.00    -0.142 OA 
HETATM   39  O   UNL     1      -7.679   6.397  69.271  1.00  0.00    -0.097 OA 
HETATM   40  O   UNL     1      -7.590   4.195  69.690  1.00  0.00    -0.053 OA 
ENDBRANCH  27  30
ENDBRANCH  26  27
ENDBRANCH  25  26
ENDBRANCH  18  25
ENDBRANCH  11  16
BRANCH  14  41
HETATM   41  S   UNL     1     -12.407  13.822  70.950  1.00  0.00    -0.365 SA 
BRANCH  41  42
HETATM   42  C   UNL     1     -12.398  12.099  70.351  1.00  0.00    -0.233 C  
BRANCH  42  43
HETATM   43  C   UNL     1     -12.756  11.183  71.514  1.00  0.00    -0.499 C  
HETATM   44  C   UNL     1     -12.352   9.748  71.254  1.00  0.00    -0.371 C  
HETATM   45  F   UNL     1     -11.550   9.294  72.246  1.00  0.00    -0.410 F  
HETATM   46  F   UNL     1     -11.690   9.588  70.091  1.00  0.00    -0.259 F  
HETATM   47  F   UNL     1     -13.437   8.943  71.222  1.00  0.00    -0.350 F  
ENDBRANCH  42  43
ENDBRANCH  41  42
ENDBRANCH  14  41
ENDBRANCH   5   7
ENDBRANCH   4   5
ENDBRANCH   3   4
ENDBRANCH   2   3
TORSDOF 12
ENDMDL
MODEL        4
REMARK 921   NORMALIZED FREE ENERGY PREDICTED BY IDOCK:   -7.55 KCAL/MOL
REMARK 922        TOTAL FREE ENERGY PREDICTED BY IDOCK:  -13.86 KCAL/MOL
REMARK 923 INTER-LIGAND FREE ENERGY PREDICTED BY IDOCK:  -12.67 KCAL/MOL
REMARK 924 INTRA-LIGAND FREE ENERGY PREDICTED BY IDOCK:   -1.19 KCAL/MOL
REMARK 927      BINDING AFFINITY PREDICTED BY RF-SCORE:    0.00 PKD
ROOT
HETATM    1  C   UNL     1      -6.760  20.887  66.978  1.00  0.00    -0.330 C  
HETATM    2  S   UNL     1      -8.008  19.670  66.503  1.00  0.00    -0.319 SA 
ENDROOT
BRANCH   2   3
HETATM    3  C   UNL     1      -9.452  20.346  67.407  1.00  0.00    -0.424 C  
BRANCH   3   4
HETATM    4  C   UNL     1     -10.471  19.247  67.775  1.00  0.00    -0.435 C  
BRANCH   4   5
HETATM    5  N   UNL     1      -9.800  17.981  68.015  1.00  0.00    -0.307 NA 
HETATM    6  H   UNL     1      -8.794  17.970  68.186  1.00  0.00     0.000 HD 
BRANCH   5   7
HETATM    7  C   UNL     1     -10.506  16.791  68.016  1.00  0.00    -0.333 A  
HETATM    8  C   UNL     1     -10.838  16.162  66.806  1.00  0.00    -0.162 A  
HETATM    9  N   UNL     1     -10.555  16.482  65.492  1.00  0.00    -0.497 NA 
HETATM   10  C   UNL     1     -11.050  15.479  64.784  1.00  0.00    -0.407 A  
HETATM   11  N   UNL     1     -11.667  14.540  65.584  1.00  0.00    -0.347 NA 
HETATM   12  C   UNL     1     -11.535  14.965  66.875  1.00  0.00    -0.313 A  
HETATM   13  N   UNL     1     -10.908  16.192  69.175  1.00  0.00    -0.276 NA 
HETATM   14  C   UNL     1     -11.620  15.049  69.099  1.00  0.00    -0.310 A  
HETATM   15  N   UNL     1     -11.962  14.360  67.985  1.00  0.00    -0.322 NA 
BRANCH  11  16
HETATM   16  C   UNL     1     -12.150  13.263  65.106  1.00  0.00    -0.413 C  
HETATM   17  O   UNL     1     -11.671  12.255  66.004  1.00  0.00    -0.399 OA 
HETATM   18  C   UNL     1     -10.584  11.541  65.394  1.00  0.00    -0.282 C  
HETATM   19  H   UNL     1     -12.567  11.535  62.336  1.00  0.00     0.000 HD 
HETATM   20  O   UNL     1     -12.797  11.850  63.202  1.00  0.00    -0.636 OA 
HETATM   21  C   UNL     1     -10.514  11.950  63.927  1.00  0.00    -0.397 C  
HETATM   22  H   UNL     1     -10.426  11.032  62.189  1.00  0.00     0.000 HD 
HETATM   23  C   UNL     1     -11.779  12.753  63.705  1.00  0.00    -0.519 C  
HETATM   24  O   UNL     1     -10.470  10.777  63.103  1.00  0.00    -0.189 OA 
BRANCH  18  25
HETATM   25  C   UNL     1      -9.257  11.799  66.111  1.00  0.00    -0.210 C  
BRANCH  25  26
HETATM   26  O   UNL     1      -8.749  10.519  66.488  1.00  0.00    -0.134 OA 
BRANCH  26  27
HETATM   27  P   UNL     1      -7.500  10.549  67.495  1.00  0.00    -0.094 P  
HETATM   28  O   UNL     1      -6.409  11.164  66.473  1.00  0.00    -0.118 OA 
HETATM   29  O   UNL     1      -7.667  11.367  68.741  1.00  0.00    -0.132 OA 
BRANCH  27  30
HETATM   30  O   UNL     1      -7.179   8.972  67.777  1.00  0.00    -0.081 OA 
HETATM   31  P   UNL     1      -7.955   8.258  69.148  1.00  0.00    -0.114 P  
HETATM   32  C   UNL     1      -8.777   7.503  70.599  1.00  0.00    -0.141 C  
HETATM   33  O   UNL     1      -6.800   8.969  70.090  1.00  0.00    -0.039 OA 
HETATM   34  O   UNL     1      -9.150   9.243  69.050  1.00  0.00    -0.142 OA 
HETATM   35 CL   UNL     1      -9.130   8.715  71.922  1.00  0.00    -0.318 Cl 
HETATM   36  P   UNL     1     -10.444   6.919  70.120  1.00  0.00    -0.227 P  
HETATM   37 CL   UNL     1      -7.655   6.308  71.331  1.00  0.00    -0.097 Cl 
HETATM   38  O   UNL     1      -9.865   5.370  70.017  1.00  0.00    -0.175 OA 
HETATM   39  O   UNL     1     -10.095   7.121  68.509  1.00  0.00    -0.158 OA 
HETATM   40  O   UNL     1     -11.854   6.424  69.715  1.00  0.00    -0.357 OA 
ENDBRANCH  27  30
ENDBRANCH  26  27
ENDBRANCH  25  26
ENDBRANCH  18  25
ENDBRANCH  11  16
BRANCH  14  41
HETATM   41  S   UNL     1     -12.213  14.325  70.613  1.00  0.00    -0.379 SA 
BRANCH  41  42
HETATM   42  C   UNL     1     -12.159  12.555  70.174  1.00  0.00    -0.292 C  
BRANCH  42  43
HETATM   43  C   UNL     1     -12.814  11.760  71.296  1.00  0.00    -0.409 C  
HETATM   44  C   UNL     1     -12.726  10.267  71.062  1.00  0.00    -0.396 C  
HETATM   45  F   UNL     1     -12.137   9.656  72.117  1.00  0.00    -0.426 F  
HETATM   46  F   UNL     1     -12.021   9.946  69.960  1.00  0.00    -0.257 F  
HETATM   47  F   UNL     1     -13.959   9.729  70.932  1.00  0.00    -0.360 F  
ENDBRANCH  42  43
ENDBRANCH  41  42
ENDBRANCH  14  41
ENDBRANCH   5   7
ENDBRANCH   4   5
ENDBRANCH   3   4
ENDBRANCH   2   3
TORSDOF 12
ENDMDL
MODEL        5
REMARK 921   NORMALIZED FREE ENERGY PREDICTED BY IDOCK:   -7.50 KCAL/MOL
REMARK 922        TOTAL FREE ENERGY PREDICTED BY IDOCK:  -13.77 KCAL/MOL
REMARK 923 INTER-LIGAND FREE ENERGY PREDICTED BY IDOCK:  -12.70 KCAL/MOL
REMARK 924 INTRA-LIGAND FREE ENERGY PREDICTED BY IDOCK:   -1.07 KCAL/MOL
REMARK 927      BINDING AFFINITY PREDICTED BY RF-SCORE:    0.00 PKD
ROOT
HETATM    1  C   UNL     1     -12.296  15.125  73.849  1.00  0.00    -0.591 C  
HETATM    2  S   UNL     1     -13.345  14.394  72.573  1.00  0.00    -0.521 SA 
ENDROOT
BRANCH   2   3
HETATM    3  C   UNL     1     -12.924  15.492  71.167  1.00  0.00    -0.496 C  
BRANCH   3   4
HETATM    4  C   UNL     1     -11.479  16.028  71.264  1.00  0.00    -0.417 C  
BRANCH   4   5
HETATM    5  N   UNL     1     -10.539  15.084  70.686  1.00  0.00    -0.527 NA 
HETATM    6  H   UNL     1      -9.973  14.499  71.299  1.00  0.00     0.000 HD 
BRANCH   5   7
HETATM    7  C   UNL     1     -10.400  14.969  69.314  1.00  0.00    -0.246 A  
HETATM    8  C   UNL     1     -10.941  13.866  68.636  1.00  0.00    -0.261 A  
HETATM    9  N   UNL     1     -11.685  12.788  69.074  1.00  0.00    -0.308 NA 
HETATM   10  C   UNL     1     -11.988  12.115  67.975  1.00  0.00    -0.166 A  
HETATM   11  N   UNL     1     -11.446  12.697  66.849  1.00  0.00    -0.323 NA 
HETATM   12  C   UNL     1     -10.778  13.816  67.259  1.00  0.00    -0.283 A  
HETATM   13  N   UNL     1      -9.735  15.906  68.576  1.00  0.00    -0.207 NA 
HETATM   14  C   UNL     1      -9.611  15.713  67.246  1.00  0.00    -0.217 A  
HETATM   15  N   UNL     1     -10.120  14.699  66.506  1.00  0.00    -0.270 NA 
BRANCH  11  16
HETATM   16  C   UNL     1     -11.746  12.278  65.498  1.00  0.00    -0.377 C  
HETATM   17  O   UNL     1     -11.425  10.885  65.395  1.00  0.00     0.279 OA 
HETATM   18  C   UNL     1     -10.195  10.725  64.669  1.00  0.00    -0.350 C  
HETATM   19  H   UNL     1     -11.457  13.254  62.368  1.00  0.00     0.000 HD 
HETATM   20  O   UNL     1     -11.887  12.848  63.112  1.00  0.00    -0.506 OA 
HETATM   21  C   UNL     1      -9.826  12.074  64.061  1.00  0.00    -0.211 C  
HETATM   22  H   UNL     1      -9.314  12.748  62.285  1.00  0.00     0.000 HD 
HETATM   23  C   UNL     1     -11.052  12.933  64.294  1.00  0.00    -0.378 C  
HETATM   24  O   UNL     1      -9.544  11.908  62.664  1.00  0.00    -0.194 OA 
BRANCH  18  25
HETATM   25  C   UNL     1      -9.073  10.187  65.558  1.00  0.00    -0.178 C  
BRANCH  25  26
HETATM   26  O   UNL     1      -9.698   9.710  66.751  1.00  0.00    -0.174 OA 
BRANCH  26  27
HETATM   27  P   UNL     1      -8.982   8.452  67.442  1.00  0.00    -0.136 P  
HETATM   28  O   UNL     1      -8.424   7.750  66.098  1.00  0.00    -0.123 OA 
HETATM   29  O   UNL     1      -7.902   8.763  68.436  1.00  0.00    -0.102 OA 
BRANCH  27  30
HETATM   30  O   UNL     1     -10.218   7.581  68.060  1.00  0.00    -0.179 OA 
HETATM   31  P   UNL     1     -10.580   7.830  69.733  1.00  0.00    -0.207 P  
HETATM   32  C   UNL     1     -10.963   8.094  71.503  1.00  0.00    -0.243 C  
HETATM   33  O   UNL     1      -9.311   6.836  70.087  1.00  0.00    -0.158 OA 
HETATM   34  O   UNL     1     -10.039   9.283  69.687  1.00  0.00    -0.181 OA 
HETATM   35 CL   UNL     1      -9.500   8.601  72.475  1.00  0.00    -0.322 Cl 
HETATM   36  P   UNL     1     -12.089   9.527  71.676  1.00  0.00    -0.368 P  
HETATM   37 CL   UNL     1     -11.491   6.531  72.211  1.00  0.00    -0.314 Cl 
HETATM   38  O   UNL     1     -13.369   8.491  71.861  1.00  0.00    -0.340 OA 
HETATM   39  O   UNL     1     -12.382   9.544  70.041  1.00  0.00     0.204 OA 
HETATM   40  O   UNL     1     -13.042  10.738  71.823  1.00  0.00    -0.458 OA 
ENDBRANCH  27  30
ENDBRANCH  26  27
ENDBRANCH  25  26
ENDBRANCH  18  25
ENDBRANCH  11  16
BRANCH  14  41
HETATM   41  S   UNL     1      -8.668  16.895  66.309  1.00  0.00    -0.261 SA 
BRANCH  41  42
HETATM   42  C   UNL     1      -8.449  18.207  67.558  1.00  0.00    -0.248 C  
BRANCH  42  43
HETATM   43  C   UNL     1      -8.596  19.558  66.869  1.00  0.00    -0.341 C  
HETATM   44  C   UNL     1     -10.035  20.023  66.829  1.00  0.00    -0.454 C  
HETATM   45  F   UNL     1     -10.152  21.249  67.394  1.00  0.00    -0.498 F  
HETATM   46  F   UNL     1     -10.876  19.195  67.479  1.00  0.00    -0.494 F  
HETATM   47  F   UNL     1     -10.469  20.131  65.554  1.00  0.00    -0.551 F  
ENDBRANCH  42  43
ENDBRANCH  41  42
ENDBRANCH  14  41
ENDBRANCH   5   7
ENDBRANCH   4   5
ENDBRANCH   3   4
ENDBRANCH   2   3
TORSDOF 12
ENDMDL
MODEL        6
REMARK 921   NORMALIZED FREE ENERGY PREDICTED BY IDOCK:   -7.40 KCAL/MOL
REMARK 922        TOTAL FREE ENERGY PREDICTED BY IDOCK:  -13.61 KCAL/MOL
REMARK 923 INTER-LIGAND FREE ENERGY PREDICTED BY IDOCK:  -12.82 KCAL/MOL
REMARK 924 INTRA-LIGAND FREE ENERGY PREDICTED BY IDOCK:   -0.79 KCAL/MOL
REMARK 927      BINDING AFFINITY PREDICTED BY RF-SCORE:    0.00 PKD
ROOT
HETATM    1  C   UNL     1     -14.390  14.935  71.430  1.00  0.00    -0.468 C  
HETATM    2  S   UNL     1     -13.453  13.894  72.571  1.00  0.00    -0.562 SA 
ENDROOT
BRANCH   2   3
HETATM    3  C   UNL     1     -12.188  15.104  73.116  1.00  0.00    -0.411 C  
BRANCH   3   4
HETATM    4  C   UNL     1     -11.870  16.143  72.020  1.00  0.00    -0.530 C  
BRANCH   4   5
HETATM    5  N   UNL     1     -10.748  15.707  71.206  1.00  0.00    -0.117 NA 
HETATM    6  H   UNL     1      -9.891  15.392  71.659  1.00  0.00     0.000 HD 
BRANCH   5   7
HETATM    7  C   UNL     1     -10.827  15.715  69.825  1.00  0.00    -0.308 A  
HETATM    8  C   UNL     1     -11.243  14.568  69.131  1.00  0.00    -0.269 A  
HETATM    9  N   UNL     1     -11.667  13.328  69.569  1.00  0.00    -0.311 NA 
HETATM   10  C   UNL     1     -12.012  12.680  68.468  1.00  0.00    -0.214 A  
HETATM   11  N   UNL     1     -11.800  13.438  67.335  1.00  0.00    -0.372 NA 
HETATM   12  C   UNL     1     -11.312  14.645  67.748  1.00  0.00    -0.322 A  
HETATM   13  N   UNL     1     -10.501  16.819  69.091  1.00  0.00    -0.327 NA 
HETATM   14  C   UNL     1     -10.570  16.745  67.746  1.00  0.00    -0.341 A  
HETATM   15  N   UNL     1     -10.984  15.696  66.995  1.00  0.00    -0.301 NA 
BRANCH  11  16
HETATM   16  C   UNL     1     -12.238  13.053  66.011  1.00  0.00    -0.399 C  
HETATM   17  O   UNL     1     -12.141  11.626  65.921  1.00  0.00    -0.252 OA 
HETATM   18  C   UNL     1     -10.993  11.269  65.134  1.00  0.00    -0.146 C  
HETATM   19  H   UNL     1     -11.979  13.933  62.850  1.00  0.00     0.000 HD 
HETATM   20  O   UNL     1     -12.423  13.609  63.625  1.00  0.00    -0.728 OA 
HETATM   21  C   UNL     1     -10.456  12.536  64.478  1.00  0.00    -0.341 C  
HETATM   22  H   UNL     1      -9.947  13.101  62.663  1.00  0.00     0.000 HD 
HETATM   23  C   UNL     1     -11.519  13.578  64.758  1.00  0.00    -0.346 C  
HETATM   24  O   UNL     1     -10.281  12.312  63.072  1.00  0.00    -0.264 OA 
BRANCH  18  25
HETATM   25  C   UNL     1      -9.918  10.574  65.972  1.00  0.00    -0.237 C  
BRANCH  25  26
HETATM   26  O   UNL     1     -10.601   9.938  67.053  1.00  0.00    -0.238 OA 
BRANCH  26  27
HETATM   27  P   UNL     1      -9.713   9.677  68.363  1.00  0.00    -0.158 P  
HETATM   28  O   UNL     1      -8.990   8.318  67.871  1.00  0.00    -0.134 OA 
HETATM   29  O   UNL     1      -8.743  10.758  68.738  1.00  0.00    -0.150 OA 
BRANCH  27  30
HETATM   30  O   UNL     1     -10.809   9.340  69.527  1.00  0.00    -0.232 OA 
HETATM   31  P   UNL     1     -10.446   8.009  70.570  1.00  0.00    -0.222 P  
HETATM   32  C   UNL     1     -10.062   6.601  71.673  1.00  0.00    -0.184 C  
HETATM   33  O   UNL     1     -10.974   7.009  69.367  1.00  0.00    -0.239 OA 
HETATM   34  O   UNL     1      -8.919   8.208  70.378  1.00  0.00    -0.142 OA 
HETATM   35 CL   UNL     1      -9.026   5.330  70.864  1.00  0.00    -0.150 Cl 
HETATM   36  P   UNL     1      -9.004   7.177  73.052  1.00  0.00    -0.151 P  
HETATM   37 CL   UNL     1     -11.597   5.771  72.094  1.00  0.00    -0.307 Cl 
HETATM   38  O   UNL     1     -10.329   7.209  74.047  1.00  0.00    -0.349 OA 
HETATM   39  O   UNL     1      -9.298   8.765  72.666  1.00  0.00    -0.300 OA 
HETATM   40  O   UNL     1      -8.110   7.664  74.219  1.00  0.00    -0.166 OA 
ENDBRANCH  27  30
ENDBRANCH  26  27
ENDBRANCH  25  26
ENDBRANCH  18  25
ENDBRANCH  11  16
BRANCH  14  41
HETATM   41  S   UNL     1     -10.061  18.162  66.797  1.00  0.00    -0.382 SA 
BRANCH  41  42
HETATM   42  C   UNL     1      -9.665  19.332  68.140  1.00  0.00    -0.363 C  
BRANCH  42  43
HETATM   43  C   UNL     1      -8.640  20.332  67.621  1.00  0.00    -0.340 C  
HETATM   44  C   UNL     1      -7.220  19.862  67.848  1.00  0.00    -0.282 C  
HETATM   45  F   UNL     1      -6.536  19.839  66.679  1.00  0.00    -0.187 F  
HETATM   46  F   UNL     1      -7.151  18.628  68.384  1.00  0.00    -0.242 F  
HETATM   47  F   UNL     1      -6.562  20.705  68.675  1.00  0.00    -0.333 F  
ENDBRANCH  42  43
ENDBRANCH  41  42
ENDBRANCH  14  41
ENDBRANCH   5   7
ENDBRANCH   4   5
ENDBRANCH   3   4
ENDBRANCH   2   3
TORSDOF 12
ENDMDL
MODEL        7
REMARK 921   NORMALIZED FREE ENERGY PREDICTED BY IDOCK:   -7.39 KCAL/MOL
REMARK 922        TOTAL FREE ENERGY PREDICTED BY IDOCK:  -13.58 KCAL/MOL
REMARK 923 INTER-LIGAND FREE ENERGY PREDICTED BY IDOCK:  -12.01 KCAL/MOL
REMARK 924 INTRA-LIGAND FREE ENERGY PREDICTED BY IDOCK:   -1.57 KCAL/MOL
REMARK 927      BINDING AFFINITY PREDICTED BY RF-SCORE:    0.00 PKD
ROOT
HETATM    1  C   UNL     1     -10.731   6.047  69.576  1.00  0.00    -0.335 C  
HETATM    2  S   UNL     1     -11.068   5.734  71.323  1.00  0.00    -0.140 SA 
ENDROOT
BRANCH   2   3
HETATM    3  C   UNL     1     -12.468   6.890  71.574  1.00  0.00    -0.375 C  
BRANCH   3   4
HETATM    4  C   UNL     1     -12.075   8.092  72.459  1.00  0.00    -0.318 C  
BRANCH   4   5
HETATM    5  N   UNL     1     -11.125   8.950  71.771  1.00  0.00    -0.341 NA 
HETATM    6  H   UNL     1     -10.132   8.723  71.799  1.00  0.00     0.000 HD 
BRANCH   5   7
HETATM    7  C   UNL     1     -11.550  10.070  71.079  1.00  0.00    -0.393 A  
HETATM    8  C   UNL     1     -11.211  10.241  69.728  1.00  0.00    -0.282 A  
HETATM    9  N   UNL     1     -10.511   9.442  68.844  1.00  0.00    -0.213 NA 
HETATM   10  C   UNL     1     -10.581  10.077  67.685  1.00  0.00    -0.270 A  
HETATM   11  N   UNL     1     -11.270  11.267  67.789  1.00  0.00    -0.271 NA 
HETATM   12  C   UNL     1     -11.678  11.380  69.088  1.00  0.00    -0.342 A  
HETATM   13  N   UNL     1     -12.299  11.044  71.674  1.00  0.00    -0.197 NA 
HETATM   14  C   UNL     1     -12.652  12.124  70.948  1.00  0.00    -0.247 A  
HETATM   15  N   UNL     1     -12.394  12.361  69.639  1.00  0.00    -0.066 NA 
BRANCH  11  16
HETATM   16  C   UNL     1     -11.645  12.086  66.658  1.00  0.00    -0.319 C  
HETATM   17  O   UNL     1     -10.489  12.222  65.821  1.00  0.00    -0.243 OA 
HETATM   18  C   UNL     1      -9.926  13.534  65.985  1.00  0.00    -0.299 C  
HETATM   19  H   UNL     1     -13.343  14.797  65.884  1.00  0.00     0.000 HD 
HETATM   20  O   UNL     1     -13.025  13.910  65.761  1.00  0.00    -0.506 OA 
HETATM   21  C   UNL     1     -10.911  14.374  66.791  1.00  0.00    -0.301 C  
HETATM   22  H   UNL     1     -11.759  16.141  66.617  1.00  0.00     0.000 HD 
HETATM   23  C   UNL     1     -12.160  13.520  66.857  1.00  0.00    -0.368 C  
HETATM   24  O   UNL     1     -11.145  15.618  66.115  1.00  0.00    -0.257 OA 
BRANCH  18  25
HETATM   25  C   UNL     1      -8.552  13.486  66.656  1.00  0.00     0.077 C  
BRANCH  25  26
HETATM   26  O   UNL     1      -8.593  14.434  67.724  1.00  0.00    -0.154 OA 
BRANCH  26  27
HETATM   27  P   UNL     1      -7.162  14.952  68.233  1.00  0.00    -0.141 P  
HETATM   28  O   UNL     1      -6.865  13.769  69.293  1.00  0.00    -0.112 OA 
HETATM   29  O   UNL     1      -6.094  15.091  67.190  1.00  0.00    -0.259 OA 
BRANCH  27  30
HETATM   30  O   UNL     1      -7.501  16.342  69.022  1.00  0.00    -0.197 OA 
HETATM   31  P   UNL     1      -7.570  17.779  68.063  1.00  0.00    -0.251 P  
HETATM   32  C   UNL     1      -7.643  19.300  67.047  1.00  0.00    -0.235 C  
HETATM   33  O   UNL     1      -5.920  17.808  68.105  1.00  0.00    -0.160 OA 
HETATM   34  O   UNL     1      -7.992  16.979  66.802  1.00  0.00    -0.194 OA 
HETATM   35 CL   UNL     1      -6.574  19.214  65.566  1.00  0.00    -0.295 Cl 
HETATM   36  P   UNL     1      -9.320  19.477  66.334  1.00  0.00    -0.369 P  
HETATM   37 CL   UNL     1      -7.005  20.667  68.020  1.00  0.00    -0.308 Cl 
HETATM   38  O   UNL     1      -9.691  20.595  67.499  1.00  0.00    -0.438 OA 
HETATM   39  O   UNL     1      -9.913  18.289  67.332  1.00  0.00    -0.309 OA 
HETATM   40  O   UNL     1     -10.739  19.627  65.732  1.00  0.00    -0.516 OA 
ENDBRANCH  27  30
ENDBRANCH  26  27
ENDBRANCH  25  26
ENDBRANCH  18  25
ENDBRANCH  11  16
BRANCH  14  41
HETATM   41  S   UNL     1     -13.554  13.427  71.758  1.00  0.00    -0.257 SA 
BRANCH  41  42
HETATM   42  C   UNL     1     -12.200  14.600  72.103  1.00  0.00    -0.271 C  
BRANCH  42  43
HETATM   43  C   UNL     1     -12.447  15.870  71.300  1.00  0.00    -0.442 C  
HETATM   44  C   UNL     1     -11.484  16.007  70.141  1.00  0.00    -0.344 C  
HETATM   45  F   UNL     1     -12.161  16.150  68.976  1.00  0.00    -0.320 F  
HETATM   46  F   UNL     1     -10.665  14.946  70.007  1.00  0.00    -0.255 F  
HETATM   47  F   UNL     1     -10.711  17.106  70.286  1.00  0.00    -0.174 F  
ENDBRANCH  42  43
ENDBRANCH  41  42
ENDBRANCH  14  41
ENDBRANCH   5   7
ENDBRANCH   4   5
ENDBRANCH   3   4
ENDBRANCH   2   3
TORSDOF 12
ENDMDL
MODEL        8
REMARK 921   NORMALIZED FREE ENERGY PREDICTED BY IDOCK:   -7.33 KCAL/MOL
REMARK 922        TOTAL FREE ENERGY PREDICTED BY IDOCK:  -13.48 KCAL/MOL
REMARK 923 INTER-LIGAND FREE ENERGY PREDICTED BY IDOCK:  -13.47 KCAL/MOL
REMARK 924 INTRA-LIGAND FREE ENERGY PREDICTED BY IDOCK:   -0.01 KCAL/MOL
REMARK 927      BINDING AFFINITY PREDICTED BY RF-SCORE:    0.00 PKD
ROOT
HETATM    1  C   UNL     1     -11.875  15.558  72.885  1.00  0.00    -0.457 C  
HETATM    2  S   UNL     1     -13.662  15.806  72.784  1.00  0.00    -0.465 SA 
ENDROOT
BRANCH   2   3
HETATM    3  C   UNL     1     -14.152  14.194  72.063  1.00  0.00    -0.528 C  
BRANCH   3   4
HETATM    4  C   UNL     1     -13.189  13.059  72.473  1.00  0.00    -0.274 C  
BRANCH   4   5
HETATM    5  N   UNL     1     -13.582  11.803  71.860  1.00  0.00    -0.155 NA 
HETATM    6  H   UNL     1     -14.558  11.509  71.896  1.00  0.00     0.000 HD 
BRANCH   5   7
HETATM    7  C   UNL     1     -12.651  10.997  71.228  1.00  0.00    -0.412 A  
HETATM    8  C   UNL     1     -11.987  11.450  70.077  1.00  0.00    -0.363 A  
HETATM    9  N   UNL     1     -12.036  12.650  69.394  1.00  0.00    -0.230 NA 
HETATM   10  C   UNL     1     -11.129  12.533  68.437  1.00  0.00    -0.258 A  
HETATM   11  N   UNL     1     -10.518  11.297  68.454  1.00  0.00    -0.188 NA 
HETATM   12  C   UNL     1     -11.056  10.599  69.498  1.00  0.00    -0.274 A  
HETATM   13  N   UNL     1     -12.350   9.748  71.686  1.00  0.00    -0.388 NA 
HETATM   14  C   UNL     1     -11.455   9.005  71.001  1.00  0.00    -0.295 A  
HETATM   15  N   UNL     1     -10.749   9.366  69.903  1.00  0.00    -0.225 NA 
BRANCH  11  16
HETATM   16  C   UNL     1      -9.378  10.948  67.635  1.00  0.00    -0.156 C  
HETATM   17  O   UNL     1      -9.191  12.001  66.682  1.00  0.00    -0.201 OA 
HETATM   18  C   UNL     1      -9.655  11.573  65.391  1.00  0.00    -0.224 C  
HETATM   19  H   UNL     1      -8.006   8.395  66.076  1.00  0.00     0.000 HD 
HETATM   20  O   UNL     1      -8.011   9.194  66.590  1.00  0.00    -0.102 OA 
HETATM   21  C   UNL     1      -9.934  10.076  65.463  1.00  0.00    -0.296 C  
HETATM   22  H   UNL     1      -9.453   8.480  64.416  1.00  0.00     0.000 HD 
HETATM   23  C   UNL     1      -9.369   9.656  66.804  1.00  0.00    -0.152 C  
HETATM   24  O   UNL     1      -9.279   9.413  64.372  1.00  0.00    -0.202 OA 
BRANCH  18  25
HETATM   25  C   UNL     1     -10.891  12.352  64.940  1.00  0.00    -0.297 C  
BRANCH  25  26
HETATM   26  O   UNL     1     -10.475  13.709  64.782  1.00  0.00    -0.387 OA 
BRANCH  26  27
HETATM   27  P   UNL     1     -11.585  14.810  65.143  1.00  0.00    -0.306 P  
HETATM   28  O   UNL     1     -11.052  15.986  64.171  1.00  0.00    -0.507 OA 
HETATM   29  O   UNL     1     -13.012  14.430  64.881  1.00  0.00    -0.641 OA 
BRANCH  27  30
HETATM   30  O   UNL     1     -11.277  15.188  66.702  1.00  0.00    -0.328 OA 
HETATM   31  P   UNL     1     -10.025  16.347  66.985  1.00  0.00    -0.276 P  
HETATM   32  C   UNL     1      -8.700  17.574  67.283  1.00  0.00    -0.230 C  
HETATM   33  O   UNL     1      -8.935  15.128  66.755  1.00  0.00    -0.229 OA 
HETATM   34  O   UNL     1     -10.269  17.023  65.610  1.00  0.00    -0.556 OA 
HETATM   35 CL   UNL     1      -7.423  17.569  65.975  1.00  0.00    -0.324 Cl 
HETATM   36  P   UNL     1      -9.396  19.263  67.172  1.00  0.00    -0.343 P  
HETATM   37 CL   UNL     1      -7.839  17.127  68.795  1.00  0.00    -0.264 Cl 
HETATM   38  O   UNL     1      -9.438  19.349  68.827  1.00  0.00    -0.377 OA 
HETATM   39  O   UNL     1     -10.946  18.668  67.198  1.00  0.00    -0.357 OA 
HETATM   40  O   UNL     1      -9.985  20.692  67.079  1.00  0.00    -0.441 OA 
ENDBRANCH  27  30
ENDBRANCH  26  27
ENDBRANCH  25  26
ENDBRANCH  18  25
ENDBRANCH  11  16
BRANCH  14  41
HETATM   41  S   UNL     1     -11.135   7.346  71.559  1.00  0.00    -0.243 SA 
BRANCH  41  42
HETATM   42  C   UNL     1     -11.723   6.395  70.116  1.00  0.00    -0.303 C  
BRANCH  42  43
HETATM   43  C   UNL     1     -10.550   5.603  69.552  1.00  0.00    -0.384 C  
HETATM   44  C   UNL     1     -10.377   5.825  68.065  1.00  0.00    -0.206 C  
HETATM   45  F   UNL     1      -9.122   6.255  67.794  1.00  0.00    -0.118 F  
HETATM   46  F   UNL     1     -11.235   6.734  67.563  1.00  0.00    -0.359 F  
HETATM   47  F   UNL     1     -10.556   4.672  67.384  1.00  0.00    -0.147 F  
ENDBRANCH  42  43
ENDBRANCH  41  42
ENDBRANCH  14  41
ENDBRANCH   5   7
ENDBRANCH   4   5
ENDBRANCH   3   4
ENDBRANCH   2   3
TORSDOF 12
ENDMDL
MODEL        9
REMARK 921   NORMALIZED FREE ENERGY PREDICTED BY IDOCK:   -7.27 KCAL/MOL
REMARK 922        TOTAL FREE ENERGY PREDICTED BY IDOCK:  -13.38 KCAL/MOL
REMARK 923 INTER-LIGAND FREE ENERGY PREDICTED BY IDOCK:  -12.36 KCAL/MOL
REMARK 924 INTRA-LIGAND FREE ENERGY PREDICTED BY IDOCK:   -1.02 KCAL/MOL
REMARK 927      BINDING AFFINITY PREDICTED BY RF-SCORE:    0.00 PKD
ROOT
HETATM    1  C   UNL     1      -5.151  18.565  70.948  1.00  0.00    -0.267 C  
HETATM    2  S   UNL     1      -6.006  17.579  69.699  1.00  0.00    -0.244 SA 
ENDROOT
BRANCH   2   3
HETATM    3  C   UNL     1      -7.030  18.888  68.926  1.00  0.00    -0.311 C  
BRANCH   3   4
HETATM    4  C   UNL     1      -7.863  18.349  67.744  1.00  0.00    -0.241 C  
BRANCH   4   5
HETATM    5  N   UNL     1      -9.284  18.437  68.031  1.00  0.00    -0.286 NA 
HETATM    6  H   UNL     1      -9.722  19.354  68.122  1.00  0.00     0.000 HD 
BRANCH   5   7
HETATM    7  C   UNL     1     -10.052  17.296  68.184  1.00  0.00    -0.325 A  
HETATM    8  C   UNL     1     -10.544  16.616  67.059  1.00  0.00    -0.247 A  
HETATM    9  N   UNL     1     -10.384  16.836  65.705  1.00  0.00    -0.562 NA 
HETATM   10  C   UNL     1     -11.007  15.824  65.121  1.00  0.00    -0.382 A  
HETATM   11  N   UNL     1     -11.588  14.977  66.041  1.00  0.00    -0.230 NA 
HETATM   12  C   UNL     1     -11.296  15.472  67.280  1.00  0.00    -0.167 A  
HETATM   13  N   UNL     1     -10.362  16.796  69.416  1.00  0.00    -0.299 NA 
HETATM   14  C   UNL     1     -11.142  15.698  69.490  1.00  0.00    -0.298 A  
HETATM   15  N   UNL     1     -11.637  14.964  68.466  1.00  0.00    -0.311 NA 
BRANCH  11  16
HETATM   16  C   UNL     1     -12.189  13.706  65.702  1.00  0.00    -0.454 C  
HETATM   17  O   UNL     1     -11.775  12.753  66.689  1.00  0.00    -0.355 OA 
HETATM   18  C   UNL     1     -10.767  11.891  66.135  1.00  0.00    -0.278 C  
HETATM   19  H   UNL     1     -12.821  11.756  63.127  1.00  0.00     0.000 HD 
HETATM   20  O   UNL     1     -13.001  12.174  63.961  1.00  0.00    -0.696 OA 
HETATM   21  C   UNL     1     -10.700  12.146  64.633  1.00  0.00    -0.304 C  
HETATM   22  H   UNL     1     -10.735  11.056  62.996  1.00  0.00     0.000 HD 
HETATM   23  C   UNL     1     -11.898  13.029  64.353  1.00  0.00    -0.386 C  
HETATM   24  O   UNL     1     -10.777  10.898  63.931  1.00  0.00    -0.339 OA 
BRANCH  18  25
HETATM   25  C   UNL     1      -9.406  12.102  66.800  1.00  0.00    -0.212 C  
BRANCH  25  26
HETATM   26  O   UNL     1      -8.657  10.908  66.571  1.00  0.00    -0.145 OA 
BRANCH  26  27
HETATM   27  P   UNL     1      -8.360  10.026  67.878  1.00  0.00    -0.117 P  
HETATM   28  O   UNL     1      -8.036   8.629  67.133  1.00  0.00    -0.099 OA 
HETATM   29  O   UNL     1      -7.242  10.498  68.760  1.00  0.00    -0.074 OA 
BRANCH  27  30
HETATM   30  O   UNL     1      -9.806   9.937  68.634  1.00  0.00    -0.151 OA 
HETATM   31  P   UNL     1     -10.048   8.584  69.684  1.00  0.00    -0.211 P  
HETATM   32  C   UNL     1     -10.302   7.151  70.795  1.00  0.00    -0.206 C  
HETATM   33  O   UNL     1     -10.360   7.680  68.338  1.00  0.00    -0.192 OA 
HETATM   34  O   UNL     1      -8.528   8.475  69.978  1.00  0.00    -0.119 OA 
HETATM   35 CL   UNL     1      -9.333   5.685  70.292  1.00  0.00    -0.176 Cl 
HETATM   36  P   UNL     1      -9.632   7.539  72.453  1.00  0.00    -0.184 P  
HETATM   37 CL   UNL     1     -12.022   6.648  70.690  1.00  0.00    -0.449 Cl 
HETATM   38  O   UNL     1     -11.167   7.852  72.994  1.00  0.00    -0.411 OA 
HETATM   39  O   UNL     1      -9.480   9.145  72.060  1.00  0.00    -0.323 OA 
HETATM   40  O   UNL     1      -9.066   7.867  73.857  1.00  0.00    -0.273 OA 
ENDBRANCH  27  30
ENDBRANCH  26  27
ENDBRANCH  25  26
ENDBRANCH  18  25
ENDBRANCH  11  16
BRANCH  14  41
HETATM   41  S   UNL     1     -11.611  15.106  71.102  1.00  0.00    -0.369 SA 
BRANCH  41  42
HETATM   42  C   UNL     1     -12.957  13.960  70.652  1.00  0.00    -0.153 C  
BRANCH  42  43
HETATM   43  C   UNL     1     -12.928  12.781  71.617  1.00  0.00    -0.402 C  
HETATM   44  C   UNL     1     -12.533  11.493  70.929  1.00  0.00    -0.366 C  
HETATM   45  F   UNL     1     -11.465  10.934  71.546  1.00  0.00    -0.069 F  
HETATM   46  F   UNL     1     -12.211  11.664  69.632  1.00  0.00    -0.334 F  
HETATM   47  F   UNL     1     -13.539  10.591  70.985  1.00  0.00    -0.344 F  
ENDBRANCH  42  43
ENDBRANCH  41  42
ENDBRANCH  14  41
ENDBRANCH   5   7
ENDBRANCH   4   5
ENDBRANCH   3   4
ENDBRANCH   2   3
TORSDOF 12
ENDMDL
MODEL       10
REMARK 921   NORMALIZED FREE ENERGY PREDICTED BY IDOCK:   -7.24 KCAL/MOL
REMARK 922        TOTAL FREE ENERGY PREDICTED BY IDOCK:  -13.33 KCAL/MOL
REMARK 923 INTER-LIGAND FREE ENERGY PREDICTED BY IDOCK:  -13.06 KCAL/MOL
REMARK 924 INTRA-LIGAND FREE ENERGY PREDICTED BY IDOCK:   -0.28 KCAL/MOL
REMARK 927      BINDING AFFINITY PREDICTED BY RF-SCORE:    0.00 PKD
ROOT
HETATM    1  C   UNL     1      -5.958  20.751  65.893  1.00  0.00    -0.234 C  
HETATM    2  S   UNL     1      -6.060  19.074  66.556  1.00  0.00    -0.166 SA 
ENDROOT
BRANCH   2   3
HETATM    3  C   UNL     1      -7.664  19.192  67.436  1.00  0.00    -0.238 C  
BRANCH   3   4
HETATM    4  C   UNL     1      -8.139  17.820  67.960  1.00  0.00    -0.243 C  
BRANCH   4   5
HETATM    5  N   UNL     1      -9.544  17.867  68.328  1.00  0.00    -0.299 NA 
HETATM    6  H   UNL     1      -9.951  18.746  68.645  1.00  0.00     0.000 HD 
BRANCH   5   7
HETATM    7  C   UNL     1     -10.336  16.735  68.255  1.00  0.00    -0.319 A  
HETATM    8  C   UNL     1     -10.717  16.214  67.009  1.00  0.00    -0.254 A  
HETATM    9  N   UNL     1     -10.414  16.598  65.717  1.00  0.00    -0.427 NA 
HETATM   10  C   UNL     1     -10.984  15.684  64.948  1.00  0.00    -0.431 A  
HETATM   11  N   UNL     1     -11.668  14.742  65.689  1.00  0.00    -0.304 NA 
HETATM   12  C   UNL     1     -11.501  15.070  67.004  1.00  0.00    -0.284 A  
HETATM   13  N   UNL     1     -10.780  16.092  69.375  1.00  0.00    -0.282 NA 
HETATM   14  C   UNL     1     -11.575  15.013  69.229  1.00  0.00    -0.315 A  
HETATM   15  N   UNL     1     -11.970  14.426  68.074  1.00  0.00    -0.322 NA 
BRANCH  11  16
HETATM   16  C   UNL     1     -12.246  13.539  65.131  1.00  0.00    -0.428 C  
HETATM   17  O   UNL     1     -11.942  12.459  66.023  1.00  0.00    -0.537 OA 
HETATM   18  C   UNL     1     -10.894  11.651  65.464  1.00  0.00    -0.279 C  
HETATM   19  H   UNL     1     -12.636  11.949  62.276  1.00  0.00     0.000 HD 
HETATM   20  O   UNL     1     -12.895  12.261  63.135  1.00  0.00    -0.646 OA 
HETATM   21  C   UNL     1     -10.673  12.094  64.021  1.00  0.00    -0.384 C  
HETATM   22  H   UNL     1     -10.556  11.223  62.261  1.00  0.00     0.000 HD 
HETATM   23  C   UNL     1     -11.828  13.034  63.741  1.00  0.00    -0.502 C  
HETATM   24  O   UNL     1     -10.693  10.948  63.159  1.00  0.00    -0.119 OA 
BRANCH  18  25
HETATM   25  C   UNL     1      -9.604  11.744  66.280  1.00  0.00    -0.225 C  
BRANCH  25  26
HETATM   26  O   UNL     1      -8.591  11.100  65.506  1.00  0.00    -0.149 OA 
BRANCH  26  27
HETATM   27  P   UNL     1      -8.155   9.646  66.026  1.00  0.00    -0.116 P  
HETATM   28  O   UNL     1      -8.882   8.774  64.875  1.00  0.00    -0.167 OA 
HETATM   29  O   UNL     1      -6.681   9.385  66.120  1.00  0.00    -0.075 OA 
BRANCH  27  30
HETATM   30  O   UNL     1      -8.948   9.476  67.444  1.00  0.00    -0.130 OA 
HETATM   31  P   UNL     1      -9.317   7.859  67.935  1.00  0.00    -0.143 P  
HETATM   32  C   UNL     1      -9.707   6.148  68.455  1.00  0.00    -0.122 C  
HETATM   33  O   UNL     1     -10.592   7.901  66.887  1.00  0.00    -0.341 OA 
HETATM   34  O   UNL     1      -8.096   7.292  67.165  1.00  0.00    -0.111 OA 
HETATM   35 CL   UNL     1      -9.913   5.009  67.040  1.00  0.00    -0.203 Cl 
HETATM   36  P   UNL     1      -8.274   5.441  69.348  1.00  0.00    -0.097 P  
HETATM   37 CL   UNL     1     -11.292   6.156  69.299  1.00  0.00    -0.462 Cl 
HETATM   38  O   UNL     1      -9.036   5.734  70.790  1.00  0.00    -0.144 OA 
HETATM   39  O   UNL     1      -7.557   6.934  69.461  1.00  0.00    -0.094 OA 
HETATM   40  O   UNL     1      -7.063   4.842  70.104  1.00  0.00    -0.047 OA 
ENDBRANCH  27  30
ENDBRANCH  26  27
ENDBRANCH  25  26
ENDBRANCH  18  25
ENDBRANCH  11  16
BRANCH  14  41
HETATM   41  S   UNL     1     -12.217  14.236  70.696  1.00  0.00    -0.379 SA 
BRANCH  41  42
HETATM   42  C   UNL     1     -13.424  15.494  71.234  1.00  0.00    -0.480 C  
BRANCH  42  43
HETATM   43  C   UNL     1     -13.765  15.241  72.697  1.00  0.00    -0.608 C  
HETATM   44  C   UNL     1     -12.612  15.577  73.617  1.00  0.00    -0.582 C  
HETATM   45  F   UNL     1     -13.001  16.469  74.559  1.00  0.00    -0.330 F  
HETATM   46  F   UNL     1     -11.556  16.106  72.968  1.00  0.00    -0.513 F  
HETATM   47  F   UNL     1     -12.181  14.474  74.270  1.00  0.00    -0.527 F  
ENDBRANCH  42  43
ENDBRANCH  41  42
ENDBRANCH  14  41
ENDBRANCH   5   7
ENDBRANCH   4   5
ENDBRANCH   3   4
ENDBRANCH   2   3
TORSDOF 12
ENDMDL
MODEL       11
REMARK 921   NORMALIZED FREE ENERGY PREDICTED BY IDOCK:   -7.22 KCAL/MOL
REMARK 922        TOTAL FREE ENERGY PREDICTED BY IDOCK:  -13.29 KCAL/MOL
REMARK 923 INTER-LIGAND FREE ENERGY PREDICTED BY IDOCK:  -11.23 KCAL/MOL
REMARK 924 INTRA-LIGAND FREE ENERGY PREDICTED BY IDOCK:   -2.06 KCAL/MOL
REMARK 927      BINDING AFFINITY PREDICTED BY RF-SCORE:    0.00 PKD
ROOT
HETATM    1  C   UNL     1     -14.093  13.665  72.362  1.00  0.00    -0.484 C  
HETATM    2  S   UNL     1     -13.032  14.947  73.065  1.00  0.00    -0.522 SA 
ENDROOT
BRANCH   2   3
HETATM    3  C   UNL     1     -11.970  15.294  71.612  1.00  0.00    -0.372 C  
BRANCH   3   4
HETATM    4  C   UNL     1     -12.696  15.000  70.282  1.00  0.00    -0.275 C  
BRANCH   4   5
HETATM    5  N   UNL     1     -11.834  14.261  69.376  1.00  0.00    -0.306 NA 
HETATM    6  H   UNL     1     -11.538  13.317  69.621  1.00  0.00     0.000 HD 
BRANCH   5   7
HETATM    7  C   UNL     1     -11.408  14.821  68.184  1.00  0.00    -0.307 A  
HETATM    8  C   UNL     1     -10.559  15.939  68.189  1.00  0.00    -0.280 A  
HETATM    9  N   UNL     1      -9.970  16.646  69.220  1.00  0.00    -0.249 NA 
HETATM   10  C   UNL     1      -9.205  17.545  68.621  1.00  0.00    -0.267 A  
HETATM   11  N   UNL     1      -9.299  17.468  67.247  1.00  0.00    -0.241 NA 
HETATM   12  C   UNL     1     -10.158  16.446  66.962  1.00  0.00    -0.272 A  
HETATM   13  N   UNL     1     -11.795  14.322  66.974  1.00  0.00    -0.413 NA 
HETATM   14  C   UNL     1     -11.367  14.938  65.853  1.00  0.00    -0.306 A  
HETATM   15  N   UNL     1     -10.529  15.999  65.761  1.00  0.00    -0.358 NA 
BRANCH  11  16
HETATM   16  C   UNL     1      -8.455  18.211  66.337  1.00  0.00    -0.238 C  
HETATM   17  O   UNL     1      -7.390  17.344  65.928  1.00  0.00    -0.393 OA 
HETATM   18  C   UNL     1      -6.179  17.714  66.607  1.00  0.00    -0.186 C  
HETATM   19  H   UNL     1      -7.089  21.177  65.923  1.00  0.00     0.000 HD 
HETATM   20  O   UNL     1      -7.518  20.375  65.647  1.00  0.00    -0.217 OA 
HETATM   21  C   UNL     1      -6.419  19.045  67.312  1.00  0.00    -0.188 C  
HETATM   22  H   UNL     1      -5.516  20.790  67.417  1.00  0.00     0.000 HD 
HETATM   23  C   UNL     1      -7.761  19.508  66.783  1.00  0.00    -0.258 C  
HETATM   24  O   UNL     1      -5.366  19.961  66.979  1.00  0.00    -0.166 OA 
BRANCH  18  25
HETATM   25  C   UNL     1      -5.723  16.635  67.591  1.00  0.00    -0.142 C  
BRANCH  25  26
HETATM   26  O   UNL     1      -6.113  15.384  67.024  1.00  0.00    -0.247 OA 
BRANCH  26  27
HETATM   27  P   UNL     1      -6.734  14.328  68.061  1.00  0.00    -0.178 P  
HETATM   28  O   UNL     1      -5.430  13.387  68.223  1.00  0.00    -0.082 OA 
HETATM   29  O   UNL     1      -7.227  14.884  69.364  1.00  0.00    -0.159 OA 
BRANCH  27  30
HETATM   30  O   UNL     1      -7.883  13.551  67.197  1.00  0.00    -0.123 OA 
HETATM   31  P   UNL     1      -8.178  11.898  67.612  1.00  0.00    -0.171 P  
HETATM   32  C   UNL     1      -8.490  10.150  68.052  1.00  0.00    -0.118 C  
HETATM   33  O   UNL     1      -6.834  11.507  66.737  1.00  0.00    -0.138 OA 
HETATM   34  O   UNL     1      -7.730  12.133  69.079  1.00  0.00    -0.018 OA 
HETATM   35 CL   UNL     1      -7.015   9.321  68.747  1.00  0.00    -0.061 Cl 
HETATM   36  P   UNL     1      -9.692  10.073  69.431  1.00  0.00    -0.231 P  
HETATM   37 CL   UNL     1      -8.886   9.246  66.552  1.00  0.00    -0.144 Cl 
HETATM   38  O   UNL     1     -10.896   9.705  68.352  1.00  0.00    -0.219 OA 
HETATM   39  O   UNL     1     -10.065  11.681  69.247  1.00  0.00    -0.002 OA 
HETATM   40  O   UNL     1     -10.710  10.007  70.595  1.00  0.00    -0.303 OA 
ENDBRANCH  27  30
ENDBRANCH  26  27
ENDBRANCH  25  26
ENDBRANCH  18  25
ENDBRANCH  11  16
BRANCH  14  41
HETATM   41  S   UNL     1     -11.947  14.332  64.284  1.00  0.00    -0.372 SA 
BRANCH  41  42
HETATM   42  C   UNL     1     -12.398  12.623  64.739  1.00  0.00    -0.489 C  
BRANCH  42  43
HETATM   43  C   UNL     1     -11.875  11.684  63.659  1.00  0.00    -0.390 C  
HETATM   44  C   UNL     1     -10.385  11.454  63.778  1.00  0.00    -0.393 C  
HETATM   45  F   UNL     1     -10.115  10.130  63.871  1.00  0.00    -0.361 F  
HETATM   46  F   UNL     1      -9.841  12.055  64.854  1.00  0.00    -0.258 F  
HETATM   47  F   UNL     1      -9.740  11.913  62.682  1.00  0.00    -0.332 F  
ENDBRANCH  42  43
ENDBRANCH  41  42
ENDBRANCH  14  41
ENDBRANCH   5   7
ENDBRANCH   4   5
ENDBRANCH   3   4
ENDBRANCH   2   3
TORSDOF 12
ENDMDL
MODEL       12
REMARK 921   NORMALIZED FREE ENERGY PREDICTED BY IDOCK:   -7.13 KCAL/MOL
REMARK 922        TOTAL FREE ENERGY PREDICTED BY IDOCK:  -13.14 KCAL/MOL
REMARK 923 INTER-LIGAND FREE ENERGY PREDICTED BY IDOCK:  -11.82 KCAL/MOL
REMARK 924 INTRA-LIGAND FREE ENERGY PREDICTED BY IDOCK:   -1.33 KCAL/MOL
REMARK 927      BINDING AFFINITY PREDICTED BY RF-SCORE:    0.00 PKD
ROOT
HETATM    1  C   UNL     1     -11.182   4.693  73.296  1.00  0.00    -0.325 C  
HETATM    2  S   UNL     1     -10.337   5.940  72.297  1.00  0.00    -0.205 SA 
ENDROOT
BRANCH   2   3
HETATM    3  C   UNL     1     -10.916   7.456  73.150  1.00  0.00    -0.359 C  
BRANCH   3   4
HETATM    4  C   UNL     1     -11.627   8.427  72.185  1.00  0.00    -0.374 C  
BRANCH   4   5
HETATM    5  N   UNL     1     -10.660   9.229  71.455  1.00  0.00    -0.339 NA 
HETATM    6  H   UNL     1      -9.932   9.727  71.966  1.00  0.00     0.000 HD 
BRANCH   5   7
HETATM    7  C   UNL     1     -10.715   9.327  70.076  1.00  0.00    -0.232 A  
HETATM    8  C   UNL     1     -11.275  10.461  69.466  1.00  0.00    -0.269 A  
HETATM    9  N   UNL     1     -11.799  11.626  69.991  1.00  0.00    -0.344 NA 
HETATM   10  C   UNL     1     -12.097  12.370  68.937  1.00  0.00    -0.123 A  
HETATM   11  N   UNL     1     -11.814  11.720  67.753  1.00  0.00    -0.592 NA 
HETATM   12  C   UNL     1     -11.288  10.504  68.080  1.00  0.00    -0.246 A  
HETATM   13  N   UNL     1     -10.239   8.338  69.264  1.00  0.00    -0.201 NA 
HETATM   14  C   UNL     1     -10.354   8.487  67.928  1.00  0.00    -0.223 A  
HETATM   15  N   UNL     1     -10.852   9.551  67.254  1.00  0.00    -0.202 NA 
BRANCH  11  16
HETATM   16  C   UNL     1     -11.881  12.348  66.451  1.00  0.00    -0.354 C  
HETATM   17  O   UNL     1     -10.584  12.243  65.853  1.00  0.00    -0.244 OA 
HETATM   18  C   UNL     1      -9.920  13.516  65.912  1.00  0.00    -0.283 C  
HETATM   19  H   UNL     1     -13.101  14.995  64.923  1.00  0.00     0.000 HD 
HETATM   20  O   UNL     1     -12.865  14.080  65.012  1.00  0.00    -0.695 OA 
HETATM   21  C   UNL     1     -10.939  14.560  66.356  1.00  0.00    -0.324 C  
HETATM   22  H   UNL     1     -11.542  16.326  65.731  1.00  0.00     0.000 HD 
HETATM   23  C   UNL     1     -12.265  13.829  66.308  1.00  0.00    -0.447 C  
HETATM   24  O   UNL     1     -10.907  15.675  65.455  1.00  0.00    -0.358 OA 
BRANCH  18  25
HETATM   25  C   UNL     1      -8.707  13.486  66.844  1.00  0.00    -0.145 C  
BRANCH  25  26
HETATM   26  O   UNL     1      -8.749  14.700  67.595  1.00  0.00    -0.162 OA 
BRANCH  26  27
HETATM   27  P   UNL     1      -7.338  15.187  68.184  1.00  0.00    -0.138 P  
HETATM   28  O   UNL     1      -7.144  14.021  69.286  1.00  0.00    -0.111 OA 
HETATM   29  O   UNL     1      -6.201  15.271  67.208  1.00  0.00    -0.321 OA 
BRANCH  27  30
HETATM   30  O   UNL     1      -7.682  16.604  68.920  1.00  0.00    -0.222 OA 
HETATM   31  P   UNL     1      -7.793  17.998  67.902  1.00  0.00    -0.246 P  
HETATM   32  C   UNL     1      -7.911  19.472  66.824  1.00  0.00    -0.287 C  
HETATM   33  O   UNL     1      -6.144  18.054  67.910  1.00  0.00    -0.159 OA 
HETATM   34  O   UNL     1      -8.227  17.138  66.685  1.00  0.00    -0.214 OA 
HETATM   35 CL   UNL     1      -6.870  19.339  65.327  1.00  0.00    -0.256 Cl 
HETATM   36  P   UNL     1      -9.604  19.593  66.139  1.00  0.00    -0.264 P  
HETATM   37 CL   UNL     1      -7.276  20.889  67.725  1.00  0.00    -0.294 Cl 
HETATM   38  O   UNL     1      -9.970  20.755  67.263  1.00  0.00    -0.433 OA 
HETATM   39  O   UNL     1     -10.158  18.441  67.199  1.00  0.00    -0.320 OA 
HETATM   40  O   UNL     1     -11.037  19.696  65.560  1.00  0.00    -0.372 OA 
ENDBRANCH  27  30
ENDBRANCH  26  27
ENDBRANCH  25  26
ENDBRANCH  18  25
ENDBRANCH  11  16
BRANCH  14  41
HETATM   41  S   UNL     1      -9.810   7.154  66.882  1.00  0.00    -0.213 SA 
BRANCH  41  42
HETATM   42  C   UNL     1      -8.272   7.869  66.210  1.00  0.00    -0.117 C  
BRANCH  42  43
HETATM   43  C   UNL     1      -8.446   8.060  64.709  1.00  0.00    -0.037 C  
HETATM   44  C   UNL     1      -8.476   9.522  64.321  1.00  0.00    -0.184 C  
HETATM   45  F   UNL     1      -7.529   9.785  63.390  1.00  0.00    -0.109 F  
HETATM   46  F   UNL     1      -8.263  10.350  65.363  1.00  0.00    -0.139 F  
HETATM   47  F   UNL     1      -9.669   9.849  63.776  1.00  0.00    -0.334 F  
ENDBRANCH  42  43
ENDBRANCH  41  42
ENDBRANCH  14  41
ENDBRANCH   5   7
ENDBRANCH   4   5
ENDBRANCH   3   4
ENDBRANCH   2   3
TORSDOF 12
ENDMDL
MODEL       13
REMARK 921   NORMALIZED FREE ENERGY PREDICTED BY IDOCK:   -7.11 KCAL/MOL
REMARK 922        TOTAL FREE ENERGY PREDICTED BY IDOCK:  -13.12 KCAL/MOL
REMARK 923 INTER-LIGAND FREE ENERGY PREDICTED BY IDOCK:  -12.37 KCAL/MOL
REMARK 924 INTRA-LIGAND FREE ENERGY PREDICTED BY IDOCK:   -0.75 KCAL/MOL
REMARK 927      BINDING AFFINITY PREDICTED BY RF-SCORE:    0.00 PKD
ROOT
HETATM    1  C   UNL     1      -8.819   3.796  70.136  1.00  0.00    -0.079 C  
HETATM    2  S   UNL     1      -8.699   4.897  68.708  1.00  0.00    -0.094 SA 
ENDROOT
BRANCH   2   3
HETATM    3  C   UNL     1      -8.112   6.418  69.545  1.00  0.00    -0.118 C  
BRANCH   3   4
HETATM    4  C   UNL     1      -7.639   7.488  68.538  1.00  0.00    -0.114 C  
BRANCH   4   5
HETATM    5  N   UNL     1      -7.811   8.823  69.085  1.00  0.00    -0.096 NA 
HETATM    6  H   UNL     1      -7.140   9.177  69.767  1.00  0.00     0.000 HD 
BRANCH   5   7
HETATM    7  C   UNL     1      -8.871   9.621  68.693  1.00  0.00    -0.128 A  
HETATM    8  C   UNL     1      -8.984  10.048  67.361  1.00  0.00    -0.131 A  
HETATM    9  N   UNL     1      -8.217   9.790  66.241  1.00  0.00    -0.116 NA 
HETATM   10  C   UNL     1      -8.854  10.390  65.248  1.00  0.00    -0.186 A  
HETATM   11  N   UNL     1      -9.983  11.050  65.685  1.00  0.00    -0.235 NA 
HETATM   12  C   UNL     1     -10.077  10.836  67.030  1.00  0.00    -0.208 A  
HETATM   13  N   UNL     1      -9.832  10.026  69.574  1.00  0.00    -0.217 NA 
HETATM   14  C   UNL     1     -10.820  10.830  69.130  1.00  0.00    -0.237 A  
HETATM   15  N   UNL     1     -11.024  11.268  67.865  1.00  0.00    -0.228 NA 
BRANCH  11  16
HETATM   16  C   UNL     1     -10.960  11.651  64.803  1.00  0.00    -0.289 C  
HETATM   17  O   UNL     1     -10.327  12.755  64.144  1.00  0.00    -0.390 OA 
HETATM   18  C   UNL     1     -10.784  13.989  64.722  1.00  0.00    -0.427 C  
HETATM   19  H   UNL     1     -14.127  12.538  64.681  1.00  0.00     0.000 HD 
HETATM   20  O   UNL     1     -13.313  12.185  64.340  1.00  0.00    -0.740 OA 
HETATM   21  C   UNL     1     -11.958  13.674  65.642  1.00  0.00    -0.395 C  
HETATM   22  H   UNL     1     -13.791  14.341  65.901  1.00  0.00     0.000 HD 
HETATM   23  C   UNL     1     -12.276  12.221  65.353  1.00  0.00    -0.208 C  
HETATM   24  O   UNL     1     -13.059  14.538  65.328  1.00  0.00    -0.524 OA 
BRANCH  18  25
HETATM   25  C   UNL     1      -9.667  14.718  65.471  1.00  0.00    -0.226 C  
BRANCH  25  26
HETATM   26  O   UNL     1      -9.857  14.429  66.857  1.00  0.00    -0.248 OA 
BRANCH  26  27
HETATM   27  P   UNL     1      -9.330  15.557  67.868  1.00  0.00    -0.192 P  
HETATM   28  O   UNL     1     -10.526  16.623  67.654  1.00  0.00    -0.304 OA 
HETATM   29  O   UNL     1      -9.159  15.142  69.300  1.00  0.00    -0.218 OA 
BRANCH  27  30
HETATM   30  O   UNL     1      -7.958  16.106  67.171  1.00  0.00    -0.163 OA 
HETATM   31  P   UNL     1      -7.708  17.817  67.197  1.00  0.00    -0.219 P  
HETATM   32  C   UNL     1      -7.443  19.628  67.226  1.00  0.00    -0.246 C  
HETATM   33  O   UNL     1      -8.751  17.923  65.922  1.00  0.00    -0.508 OA 
HETATM   34  O   UNL     1      -8.540  17.971  68.498  1.00  0.00    -0.297 OA 
HETATM   35 CL   UNL     1      -9.010  20.572  67.253  1.00  0.00    -0.461 Cl 
HETATM   36  P   UNL     1      -6.649  20.104  68.805  1.00  0.00    -0.238 P  
HETATM   37 CL   UNL     1      -6.621  20.108  65.704  1.00  0.00    -0.261 Cl 
HETATM   38  O   UNL     1      -5.186  20.203  68.032  1.00  0.00    -0.184 OA 
HETATM   39  O   UNL     1      -6.315  18.517  69.161  1.00  0.00    -0.237 OA 
HETATM   40  O   UNL     1      -5.976  20.507  70.140  1.00  0.00    -0.400 OA 
ENDBRANCH  27  30
ENDBRANCH  26  27
ENDBRANCH  25  26
ENDBRANCH  18  25
ENDBRANCH  11  16
BRANCH  14  41
HETATM   41  S   UNL     1     -12.018  11.421  70.306  1.00  0.00    -0.370 SA 
BRANCH  41  42
HETATM   42  C   UNL     1     -12.000  13.205  69.925  1.00  0.00    -0.317 C  
BRANCH  42  43
HETATM   43  C   UNL     1     -12.400  13.970  71.180  1.00  0.00    -0.443 C  
HETATM   44  C   UNL     1     -12.729  15.417  70.885  1.00  0.00    -0.461 C  
HETATM   45  F   UNL     1     -13.973  15.720  71.326  1.00  0.00    -0.525 F  
HETATM   46  F   UNL     1     -12.680  15.712  69.571  1.00  0.00    -0.248 F  
HETATM   47  F   UNL     1     -11.870  16.243  71.523  1.00  0.00    -0.442 F  
ENDBRANCH  42  43
ENDBRANCH  41  42
ENDBRANCH  14  41
ENDBRANCH   5   7
ENDBRANCH   4   5
ENDBRANCH   3   4
ENDBRANCH   2   3
TORSDOF 12
ENDMDL
MODEL       14
REMARK 921   NORMALIZED FREE ENERGY PREDICTED BY IDOCK:   -7.08 KCAL/MOL
REMARK 922        TOTAL FREE ENERGY PREDICTED BY IDOCK:  -13.06 KCAL/MOL
REMARK 923 INTER-LIGAND FREE ENERGY PREDICTED BY IDOCK:  -12.76 KCAL/MOL
REMARK 924 INTRA-LIGAND FREE ENERGY PREDICTED BY IDOCK:   -0.31 KCAL/MOL
REMARK 927      BINDING AFFINITY PREDICTED BY RF-SCORE:    0.00 PKD
ROOT
HETATM    1  C   UNL     1     -13.488   7.354  71.710  1.00  0.00    -0.313 C  
HETATM    2  S   UNL     1     -14.121   8.966  72.227  1.00  0.00    -0.372 SA 
ENDROOT
BRANCH   2   3
HETATM    3  C   UNL     1     -12.672  10.009  71.811  1.00  0.00    -0.428 C  
BRANCH   3   4
HETATM    4  C   UNL     1     -11.395   9.167  71.598  1.00  0.00    -0.376 C  
BRANCH   4   5
HETATM    5  N   UNL     1     -10.390   9.930  70.878  1.00  0.00    -0.349 NA 
HETATM    6  H   UNL     1      -9.774  10.560  71.391  1.00  0.00     0.000 HD 
BRANCH   5   7
HETATM    7  C   UNL     1     -10.256   9.812  69.506  1.00  0.00    -0.221 A  
HETATM    8  C   UNL     1     -10.889  10.727  68.650  1.00  0.00    -0.220 A  
HETATM    9  N   UNL     1     -11.659  11.846  68.903  1.00  0.00    -0.285 NA 
HETATM   10  C   UNL     1     -11.910  12.361  67.709  1.00  0.00    -0.298 A  
HETATM   11  N   UNL     1     -11.360  11.604  66.696  1.00  0.00    -0.400 NA 
HETATM   12  C   UNL     1     -10.705  10.561  67.285  1.00  0.00    -0.277 A  
HETATM   13  N   UNL     1      -9.520   8.814  68.937  1.00  0.00    -0.145 NA 
HETATM   14  C   UNL     1      -9.459   8.741  67.591  1.00  0.00    -0.141 A  
HETATM   15  N   UNL     1     -10.011   9.589  66.691  1.00  0.00    -0.229 NA 
BRANCH  11  16
HETATM   16  C   UNL     1     -11.332  12.011  65.308  1.00  0.00    -0.312 C  
HETATM   17  O   UNL     1     -10.220  12.899  65.139  1.00  0.00    -0.288 OA 
HETATM   18  C   UNL     1     -10.693  14.252  65.038  1.00  0.00    -0.420 C  
HETATM   19  H   UNL     1     -13.313  12.962  62.857  1.00  0.00     0.000 HD 
HETATM   20  O   UNL     1     -12.576  12.507  63.247  1.00  0.00    -0.667 OA 
HETATM   21  C   UNL     1     -12.210  14.213  64.891  1.00  0.00    -0.438 C  
HETATM   22  H   UNL     1     -13.550  14.993  63.678  1.00  0.00     0.000 HD 
HETATM   23  C   UNL     1     -12.525  12.747  64.676  1.00  0.00    -0.456 C  
HETATM   24  O   UNL     1     -12.605  15.017  63.770  1.00  0.00    -0.776 OA 
BRANCH  18  25
HETATM   25  C   UNL     1     -10.269  15.097  66.240  1.00  0.00    -0.288 C  
BRANCH  25  26
HETATM   26  O   UNL     1      -9.095  14.481  66.770  1.00  0.00    -0.245 OA 
BRANCH  26  27
HETATM   27  P   UNL     1      -8.356  15.305  67.932  1.00  0.00    -0.163 P  
HETATM   28  O   UNL     1      -9.578  16.292  68.313  1.00  0.00    -0.212 OA 
HETATM   29  O   UNL     1      -7.855  14.508  69.100  1.00  0.00    -0.134 OA 
BRANCH  27  30
HETATM   30  O   UNL     1      -7.187  16.136  67.149  1.00  0.00    -0.179 OA 
HETATM   31  P   UNL     1      -7.264  17.861  67.248  1.00  0.00    -0.191 P  
HETATM   32  C   UNL     1      -7.346  19.686  67.354  1.00  0.00    -0.238 C  
HETATM   33  O   UNL     1      -8.427  17.810  66.077  1.00  0.00    -0.496 OA 
HETATM   34  O   UNL     1      -7.981  17.801  68.623  1.00  0.00    -0.282 OA 
HETATM   35 CL   UNL     1      -9.053  20.306  67.571  1.00  0.00    -0.461 Cl 
HETATM   36  P   UNL     1      -6.507  20.247  68.882  1.00  0.00    -0.205 P  
HETATM   37 CL   UNL     1      -6.781  20.373  65.795  1.00  0.00    -0.271 Cl 
HETATM   38  O   UNL     1      -5.171  20.656  67.990  1.00  0.00    -0.205 OA 
HETATM   39  O   UNL     1      -5.846  18.742  69.118  1.00  0.00    -0.212 OA 
HETATM   40  O   UNL     1      -5.797  20.721  70.173  1.00  0.00    -0.492 OA 
ENDBRANCH  27  30
ENDBRANCH  26  27
ENDBRANCH  25  26
ENDBRANCH  18  25
ENDBRANCH  11  16
BRANCH  14  41
HETATM   41  S   UNL     1      -8.568   7.385  66.860  1.00  0.00    -0.124 SA 
BRANCH  41  42
HETATM   42  C   UNL     1      -9.843   6.081  66.923  1.00  0.00    -0.158 C  
BRANCH  42  43
HETATM   43  C   UNL     1      -9.237   4.847  67.581  1.00  0.00    -0.138 C  
HETATM   44  C   UNL     1      -9.398   4.867  69.085  1.00  0.00    -0.128 C  
HETATM   45  F   UNL     1     -10.026   3.745  69.509  1.00  0.00    -0.261 F  
HETATM   46  F   UNL     1     -10.109   5.923  69.526  1.00  0.00    -0.190 F  
HETATM   47  F   UNL     1      -8.192   4.901  69.695  1.00  0.00    -0.076 F  
ENDBRANCH  42  43
ENDBRANCH  41  42
ENDBRANCH  14  41
ENDBRANCH   5   7
ENDBRANCH   4   5
ENDBRANCH   3   4
ENDBRANCH   2   3
TORSDOF 12
ENDMDL
MODEL       15
REMARK 921   NORMALIZED FREE ENERGY PREDICTED BY IDOCK:   -7.03 KCAL/MOL
REMARK 922        TOTAL FREE ENERGY PREDICTED BY IDOCK:  -12.98 KCAL/MOL
REMARK 923 INTER-LIGAND FREE ENERGY PREDICTED BY IDOCK:  -12.59 KCAL/MOL
REMARK 924 INTRA-LIGAND FREE ENERGY PREDICTED BY IDOCK:   -0.39 KCAL/MOL
REMARK 927      BINDING AFFINITY PREDICTED BY RF-SCORE:    0.00 PKD
ROOT
HETATM    1  C   UNL     1     -12.932   6.997  71.353  1.00  0.00    -0.340 C  
HETATM    2  S   UNL     1     -13.949   8.365  71.954  1.00  0.00    -0.424 SA 
ENDROOT
BRANCH   2   3
HETATM    3  C   UNL     1     -12.773   9.749  71.706  1.00  0.00    -0.426 C  
BRANCH   3   4
HETATM    4  C   UNL     1     -11.304   9.281  71.775  1.00  0.00    -0.367 C  
BRANCH   4   5
HETATM    5  N   UNL     1     -10.473  10.055  70.870  1.00  0.00    -0.341 NA 
HETATM    6  H   UNL     1      -9.823  10.744  71.249  1.00  0.00     0.000 HD 
BRANCH   5   7
HETATM    7  C   UNL     1     -10.551   9.872  69.500  1.00  0.00    -0.242 A  
HETATM    8  C   UNL     1     -11.048  10.893  68.675  1.00  0.00    -0.252 A  
HETATM    9  N   UNL     1     -11.482  12.174  68.953  1.00  0.00    -0.272 NA 
HETATM   10  C   UNL     1     -11.753  12.704  67.770  1.00  0.00    -0.356 A  
HETATM   11  N   UNL     1     -11.541  11.808  66.743  1.00  0.00    -0.536 NA 
HETATM   12  C   UNL     1     -11.088  10.651  67.309  1.00  0.00    -0.243 A  
HETATM   13  N   UNL     1     -10.160   8.707  68.906  1.00  0.00    -0.197 NA 
HETATM   14  C   UNL     1     -10.294   8.586  67.569  1.00  0.00    -0.267 A  
HETATM   15  N   UNL     1     -10.735   9.521  66.694  1.00  0.00    -0.089 NA 
BRANCH  11  16
HETATM   16  C   UNL     1     -11.594  12.159  65.341  1.00  0.00    -0.330 C  
HETATM   17  O   UNL     1     -10.425  12.931  65.042  1.00  0.00    -0.298 OA 
HETATM   18  C   UNL     1     -10.780  14.318  64.919  1.00  0.00    -0.432 C  
HETATM   19  H   UNL     1     -13.683  13.200  63.020  1.00  0.00     0.000 HD 
HETATM   20  O   UNL     1     -12.959  12.693  63.368  1.00  0.00    -0.649 OA 
HETATM   21  C   UNL     1     -12.301  14.417  64.899  1.00  0.00    -0.405 C  
HETATM   22  H   UNL     1     -13.663  15.274  63.766  1.00  0.00     0.000 HD 
HETATM   23  C   UNL     1     -12.765  12.980  64.776  1.00  0.00    -0.342 C  
HETATM   24  O   UNL     1     -12.715  15.212  63.779  1.00  0.00    -0.722 OA 
BRANCH  18  25
HETATM   25  C   UNL     1     -10.179  15.164  66.044  1.00  0.00    -0.307 C  
BRANCH  25  26
HETATM   26  O   UNL     1      -9.027  14.458  66.505  1.00  0.00    -0.239 OA 
BRANCH  26  27
HETATM   27  P   UNL     1      -8.305  15.094  67.789  1.00  0.00    -0.173 P  
HETATM   28  O   UNL     1      -9.517  16.049  68.272  1.00  0.00    -0.202 OA 
HETATM   29  O   UNL     1      -7.856  14.131  68.847  1.00  0.00    -0.135 OA 
BRANCH  27  30
HETATM   30  O   UNL     1      -7.096  15.996  67.161  1.00  0.00    -0.187 OA 
HETATM   31  P   UNL     1      -7.222  17.709  67.365  1.00  0.00    -0.188 P  
HETATM   32  C   UNL     1      -7.355  19.521  67.583  1.00  0.00    -0.242 C  
HETATM   33  O   UNL     1      -8.285  17.716  66.102  1.00  0.00    -0.427 OA 
HETATM   34  O   UNL     1      -8.046  17.545  68.670  1.00  0.00    -0.267 OA 
HETATM   35 CL   UNL     1      -9.088  20.095  67.699  1.00  0.00    -0.437 Cl 
HETATM   36  P   UNL     1      -6.655  19.994  69.207  1.00  0.00    -0.231 P  
HETATM   37 CL   UNL     1      -6.682  20.321  66.123  1.00  0.00    -0.250 Cl 
HETATM   38  O   UNL     1      -5.262  20.486  68.457  1.00  0.00    -0.208 OA 
HETATM   39  O   UNL     1      -5.980  18.489  69.398  1.00  0.00    -0.232 OA 
HETATM   40  O   UNL     1      -6.063  20.394  70.580  1.00  0.00    -0.474 OA 
ENDBRANCH  27  30
ENDBRANCH  26  27
ENDBRANCH  25  26
ENDBRANCH  18  25
ENDBRANCH  11  16
BRANCH  14  41
HETATM   41  S   UNL     1      -9.863   7.033  66.816  1.00  0.00    -0.169 SA 
BRANCH  41  42
HETATM   42  C   UNL     1      -8.132   7.366  66.343  1.00  0.00    -0.118 C  
BRANCH  42  43
HETATM   43  C   UNL     1      -8.130   8.078  64.996  1.00  0.00    -0.145 C  
HETATM   44  C   UNL     1      -7.497   9.450  65.079  1.00  0.00    -0.106 C  
HETATM   45  F   UNL     1      -6.485   9.560  64.186  1.00  0.00    -0.086 F  
HETATM   46  F   UNL     1      -6.995   9.727  66.298  1.00  0.00    -0.085 F  
HETATM   47  F   UNL     1      -8.397  10.412  64.779  1.00  0.00    -0.156 F  
ENDBRANCH  42  43
ENDBRANCH  41  42
ENDBRANCH  14  41
ENDBRANCH   5   7
ENDBRANCH   4   5
ENDBRANCH   3   4
ENDBRANCH   2   3
TORSDOF 12
ENDMDL
MODEL       16
REMARK 921   NORMALIZED FREE ENERGY PREDICTED BY IDOCK:   -7.01 KCAL/MOL
REMARK 922        TOTAL FREE ENERGY PREDICTED BY IDOCK:  -12.94 KCAL/MOL
REMARK 923 INTER-LIGAND FREE ENERGY PREDICTED BY IDOCK:  -12.13 KCAL/MOL
REMARK 924 INTRA-LIGAND FREE ENERGY PREDICTED BY IDOCK:   -0.82 KCAL/MOL
REMARK 927      BINDING AFFINITY PREDICTED BY RF-SCORE:    0.00 PKD
ROOT
HETATM    1  C   UNL     1     -11.166   4.756  73.374  1.00  0.00    -0.343 C  
HETATM    2  S   UNL     1     -10.809   5.988  72.101  1.00  0.00    -0.264 SA 
ENDROOT
BRANCH   2   3
HETATM    3  C   UNL     1     -11.092   7.518  73.071  1.00  0.00    -0.362 C  
BRANCH   3   4
HETATM    4  C   UNL     1     -11.642   8.664  72.196  1.00  0.00    -0.370 C  
BRANCH   4   5
HETATM    5  N   UNL     1     -10.569   9.309  71.457  1.00  0.00    -0.352 NA 
HETATM    6  H   UNL     1      -9.766   9.683  71.961  1.00  0.00     0.000 HD 
BRANCH   5   7
HETATM    7  C   UNL     1     -10.624   9.423  70.079  1.00  0.00    -0.235 A  
HETATM    8  C   UNL     1     -11.207  10.553  69.483  1.00  0.00    -0.271 A  
HETATM    9  N   UNL     1     -11.755  11.700  70.022  1.00  0.00    -0.330 NA 
HETATM   10  C   UNL     1     -12.067  12.450  68.976  1.00  0.00    -0.136 A  
HETATM   11  N   UNL     1     -11.770  11.822  67.785  1.00  0.00    -0.536 NA 
HETATM   12  C   UNL     1     -11.218  10.612  68.097  1.00  0.00    -0.302 A  
HETATM   13  N   UNL     1     -10.127   8.454  69.256  1.00  0.00    -0.197 NA 
HETATM   14  C   UNL     1     -10.243   8.618  67.922  1.00  0.00    -0.219 A  
HETATM   15  N   UNL     1     -10.762   9.679  67.260  1.00  0.00    -0.250 NA 
BRANCH  11  16
HETATM   16  C   UNL     1     -11.848  12.464  66.491  1.00  0.00    -0.339 C  
HETATM   17  O   UNL     1     -10.558  12.358  65.876  1.00  0.00    -0.248 OA 
HETATM   18  C   UNL     1      -9.886  13.626  65.941  1.00  0.00    -0.246 C  
HETATM   19  H   UNL     1     -13.069  15.136  65.006  1.00  0.00     0.000 HD 
HETATM   20  O   UNL     1     -12.837  14.218  65.082  1.00  0.00    -0.659 OA 
HETATM   21  C   UNL     1     -10.893  14.672  66.409  1.00  0.00    -0.315 C  
HETATM   22  H   UNL     1     -11.492  16.448  65.810  1.00  0.00     0.000 HD 
HETATM   23  C   UNL     1     -12.224  13.949  66.368  1.00  0.00    -0.449 C  
HETATM   24  O   UNL     1     -10.865  15.797  65.520  1.00  0.00    -0.344 OA 
BRANCH  18  25
HETATM   25  C   UNL     1      -8.662  13.579  66.859  1.00  0.00    -0.145 C  
BRANCH  25  26
HETATM   26  O   UNL     1      -8.685  14.786  67.621  1.00  0.00    -0.164 OA 
BRANCH  26  27
HETATM   27  P   UNL     1      -7.276  15.221  68.253  1.00  0.00    -0.137 P  
HETATM   28  O   UNL     1      -7.150  14.037  69.346  1.00  0.00    -0.094 OA 
HETATM   29  O   UNL     1      -6.111  15.280  67.310  1.00  0.00    -0.325 OA 
BRANCH  27  30
HETATM   30  O   UNL     1      -7.595  16.640  68.998  1.00  0.00    -0.226 OA 
HETATM   31  P   UNL     1      -7.682  18.041  67.988  1.00  0.00    -0.265 P  
HETATM   32  C   UNL     1      -7.774  19.524  66.918  1.00  0.00    -0.254 C  
HETATM   33  O   UNL     1      -6.031  18.068  67.996  1.00  0.00    -0.160 OA 
HETATM   34  O   UNL     1      -8.131  17.197  66.766  1.00  0.00    -0.205 OA 
HETATM   35 CL   UNL     1      -6.735  19.381  65.420  1.00  0.00    -0.305 Cl 
HETATM   36  P   UNL     1      -9.464  19.679  66.234  1.00  0.00    -0.336 P  
HETATM   37 CL   UNL     1      -7.113  20.924  67.828  1.00  0.00    -0.320 Cl 
HETATM   38  O   UNL     1      -9.809  20.840  67.365  1.00  0.00    -0.464 OA 
HETATM   39  O   UNL     1     -10.038  18.530  67.287  1.00  0.00    -0.319 OA 
HETATM   40  O   UNL     1     -10.895  19.810  65.656  1.00  0.00    -0.462 OA 
ENDBRANCH  27  30
ENDBRANCH  26  27
ENDBRANCH  25  26
ENDBRANCH  18  25
ENDBRANCH  11  16
BRANCH  14  41
HETATM   41  S   UNL     1      -9.670   7.309  66.860  1.00  0.00    -0.205 SA 
BRANCH  41  42
HETATM   42  C   UNL     1     -10.076   5.854  67.884  1.00  0.00    -0.162 C  
BRANCH  42  43
HETATM   43  C   UNL     1      -8.983   4.810  67.692  1.00  0.00    -0.120 C  
HETATM   44  C   UNL     1      -9.332   3.814  66.607  1.00  0.00    -0.190 C  
HETATM   45  F   UNL     1      -8.357   3.777  65.667  1.00  0.00    -0.102 F  
HETATM   46  F   UNL     1     -10.490   4.100  65.981  1.00  0.00    -0.215 F  
HETATM   47  F   UNL     1      -9.438   2.567  67.117  1.00  0.00    -0.184 F  
ENDBRANCH  42  43
ENDBRANCH  41  42
ENDBRANCH  14  41
ENDBRANCH   5   7
ENDBRANCH   4   5
ENDBRANCH   3   4
ENDBRANCH   2   3
TORSDOF 12
ENDMDL
MODEL       17
REMARK 921   NORMALIZED FREE ENERGY PREDICTED BY IDOCK:   -7.00 KCAL/MOL
REMARK 922        TOTAL FREE ENERGY PREDICTED BY IDOCK:  -12.93 KCAL/MOL
REMARK 923 INTER-LIGAND FREE ENERGY PREDICTED BY IDOCK:  -12.46 KCAL/MOL
REMARK 924 INTRA-LIGAND FREE ENERGY PREDICTED BY IDOCK:   -0.47 KCAL/MOL
REMARK 927      BINDING AFFINITY PREDICTED BY RF-SCORE:    0.00 PKD
ROOT
HETATM    1  C   UNL     1      -8.275  19.863  67.465  1.00  0.00    -0.322 C  
HETATM    2  S   UNL     1      -9.696  19.539  68.532  1.00  0.00    -0.430 SA 
ENDROOT
BRANCH   2   3
HETATM    3  C   UNL     1     -11.015  19.444  67.263  1.00  0.00    -0.342 C  
BRANCH   3   4
HETATM    4  C   UNL     1     -10.440  19.429  65.831  1.00  0.00    -0.472 C  
BRANCH   4   5
HETATM    5  N   UNL     1     -10.905  18.263  65.101  1.00  0.00    -0.555 NA 
HETATM    6  H   UNL     1     -11.607  18.375  64.369  1.00  0.00     0.000 HD 
BRANCH   5   7
HETATM    7  C   UNL     1     -10.411  17.002  65.384  1.00  0.00    -0.112 A  
HETATM    8  C   UNL     1     -11.082  15.857  64.925  1.00  0.00    -0.389 A  
HETATM    9  N   UNL     1     -12.212  15.700  64.146  1.00  0.00    -0.538 NA 
HETATM   10  C   UNL     1     -12.320  14.393  63.965  1.00  0.00    -0.205 A  
HETATM   11  N   UNL     1     -11.324  13.698  64.620  1.00  0.00    -0.352 NA 
HETATM   12  C   UNL     1     -10.528  14.623  65.233  1.00  0.00    -0.398 A  
HETATM   13  N   UNL     1      -9.274  16.822  66.117  1.00  0.00    -0.409 NA 
HETATM   14  C   UNL     1      -8.868  15.563  66.383  1.00  0.00    -0.324 A  
HETATM   15  N   UNL     1      -9.432  14.406  65.962  1.00  0.00    -0.254 NA 
BRANCH  11  16
HETATM   16  C   UNL     1     -11.095  12.278  64.466  1.00  0.00    -0.321 C  
HETATM   17  O   UNL     1     -11.923  11.600  65.419  1.00  0.00    -0.203 OA 
HETATM   18  C   UNL     1     -11.118  11.134  66.514  1.00  0.00    -0.167 C  
HETATM   19  H   UNL     1      -8.679  10.089  64.016  1.00  0.00     0.000 HD 
HETATM   20  O   UNL     1      -9.545  10.459  63.894  1.00  0.00    -0.277 OA 
HETATM   21  C   UNL     1      -9.652  11.310  66.132  1.00  0.00    -0.214 C  
HETATM   22  H   UNL     1      -8.034  10.191  66.120  1.00  0.00     0.000 HD 
HETATM   23  C   UNL     1      -9.693  11.679  64.663  1.00  0.00    -0.185 C  
HETATM   24  O   UNL     1      -8.947  10.082  66.358  1.00  0.00    -0.141 OA 
BRANCH  18  25
HETATM   25  C   UNL     1     -11.448  11.865  67.817  1.00  0.00    -0.319 C  
BRANCH  25  26
HETATM   26  O   UNL     1     -12.279  10.982  68.572  1.00  0.00    -0.582 OA 
BRANCH  26  27
HETATM   27  P   UNL     1     -11.979  10.943  70.148  1.00  0.00    -0.400 P  
HETATM   28  O   UNL     1     -11.991  12.537  70.415  1.00  0.00    -0.340 OA 
HETATM   29  O   UNL     1     -12.965  10.195  70.996  1.00  0.00    -0.364 OA 
BRANCH  27  30
HETATM   30  O   UNL     1     -10.453  10.368  70.248  1.00  0.00    -0.227 OA 
HETATM   31  P   UNL     1     -10.281   8.689  70.623  1.00  0.00    -0.224 P  
HETATM   32  C   UNL     1     -10.100   6.911  71.020  1.00  0.00    -0.193 C  
HETATM   33  O   UNL     1     -10.554   9.082  72.203  1.00  0.00    -0.324 OA 
HETATM   34  O   UNL     1     -11.653   8.352  69.981  1.00  0.00    -0.016 OA 
HETATM   35 CL   UNL     1     -11.490   6.264  72.017  1.00  0.00    -0.343 Cl 
HETATM   36  P   UNL     1     -10.205   5.929  69.480  1.00  0.00    -0.280 P  
HETATM   37 CL   UNL     1      -8.639   6.702  72.042  1.00  0.00    -0.124 Cl 
HETATM   38  O   UNL     1      -8.554   5.787  69.464  1.00  0.00    -0.110 OA 
HETATM   39  O   UNL     1     -10.063   7.297  68.550  1.00  0.00    -0.161 OA 
HETATM   40  O   UNL     1     -10.293   5.097  68.176  1.00  0.00    -0.146 OA 
ENDBRANCH  27  30
ENDBRANCH  26  27
ENDBRANCH  25  26
ENDBRANCH  18  25
ENDBRANCH  11  16
BRANCH  14  41
HETATM   41  S   UNL     1      -7.433  15.340  67.412  1.00  0.00    -0.208 SA 
BRANCH  41  42
HETATM   42  C   UNL     1      -8.142  15.716  69.051  1.00  0.00    -0.222 C  
BRANCH  42  43
HETATM   43  C   UNL     1      -9.381  14.852  69.250  1.00  0.00    -0.106 C  
HETATM   44  C   UNL     1     -10.588  15.671  69.649  1.00  0.00    -0.283 C  
HETATM   45  F   UNL     1     -11.612  15.456  68.790  1.00  0.00    -0.291 F  
HETATM   46  F   UNL     1     -10.344  16.996  69.668  1.00  0.00    -0.268 F  
HETATM   47  F   UNL     1     -11.022  15.317  70.879  1.00  0.00    -0.316 F  
ENDBRANCH  42  43
ENDBRANCH  41  42
ENDBRANCH  14  41
ENDBRANCH   5   7
ENDBRANCH   4   5
ENDBRANCH   3   4
ENDBRANCH   2   3
TORSDOF 12
ENDMDL
MODEL       18
REMARK 921   NORMALIZED FREE ENERGY PREDICTED BY IDOCK:   -7.00 KCAL/MOL
REMARK 922        TOTAL FREE ENERGY PREDICTED BY IDOCK:  -12.92 KCAL/MOL
REMARK 923 INTER-LIGAND FREE ENERGY PREDICTED BY IDOCK:  -12.27 KCAL/MOL
REMARK 924 INTRA-LIGAND FREE ENERGY PREDICTED BY IDOCK:   -0.65 KCAL/MOL
REMARK 927      BINDING AFFINITY PREDICTED BY RF-SCORE:    0.00 PKD
ROOT
HETATM    1  C   UNL     1     -12.486  15.106  73.892  1.00  0.00    -0.579 C  
HETATM    2  S   UNL     1     -13.290  14.170  72.573  1.00  0.00    -0.544 SA 
ENDROOT
BRANCH   2   3
HETATM    3  C   UNL     1     -13.551  15.518  71.359  1.00  0.00    -0.474 C  
BRANCH   3   4
HETATM    4  C   UNL     1     -12.480  15.511  70.247  1.00  0.00    -0.367 C  
BRANCH   4   5
HETATM    5  N   UNL     1     -12.458  14.230  69.561  1.00  0.00    -0.518 NA 
HETATM    6  H   UNL     1     -13.021  13.459  69.918  1.00  0.00     0.000 HD 
BRANCH   5   7
HETATM    7  C   UNL     1     -11.682  14.042  68.431  1.00  0.00    -0.354 A  
HETATM    8  C   UNL     1     -11.441  12.748  67.943  1.00  0.00    -0.317 A  
HETATM    9  N   UNL     1     -11.882  11.508  68.361  1.00  0.00    -0.515 NA 
HETATM   10  C   UNL     1     -11.401  10.658  67.467  1.00  0.00    -0.162 A  
HETATM   11  N   UNL     1     -10.645  11.295  66.506  1.00  0.00    -0.257 NA 
HETATM   12  C   UNL     1     -10.666  12.629  66.799  1.00  0.00    -0.239 A  
HETATM   13  N   UNL     1     -11.122  15.090  67.759  1.00  0.00    -0.299 NA 
HETATM   14  C   UNL     1     -10.351  14.830  66.683  1.00  0.00    -0.273 A  
HETATM   15  N   UNL     1     -10.086  13.625  66.126  1.00  0.00    -0.299 NA 
BRANCH  11  16
HETATM   16  C   UNL     1     -10.135  10.646  65.317  1.00  0.00    -0.297 C  
HETATM   17  O   UNL     1      -9.790   9.302  65.672  1.00  0.00    -0.289 OA 
HETATM   18  C   UNL     1      -8.362   9.182  65.778  1.00  0.00    -0.126 C  
HETATM   19  H   UNL     1      -8.168  11.173  62.732  1.00  0.00     0.000 HD 
HETATM   20  O   UNL     1      -8.933  10.835  63.182  1.00  0.00    -0.200 OA 
HETATM   21  C   UNL     1      -7.738  10.460  65.226  1.00  0.00    -0.124 C  
HETATM   22  H   UNL     1      -6.334  10.919  63.926  1.00  0.00     0.000 HD 
HETATM   23  C   UNL     1      -8.899  11.193  64.587  1.00  0.00     0.069 C  
HETATM   24  O   UNL     1      -6.723  10.123  64.270  1.00  0.00    -0.128 OA 
BRANCH  18  25
HETATM   25  C   UNL     1      -7.916   8.919  67.218  1.00  0.00    -0.097 C  
BRANCH  25  26
HETATM   26  O   UNL     1      -9.072   8.460  67.919  1.00  0.00    -0.133 OA 
BRANCH  26  27
HETATM   27  P   UNL     1      -8.922   7.024  68.618  1.00  0.00    -0.127 P  
HETATM   28  O   UNL     1      -8.305   6.227  67.355  1.00  0.00    -0.109 OA 
HETATM   29  O   UNL     1      -8.050   6.964  69.837  1.00  0.00    -0.121 OA 
BRANCH  27  30
HETATM   30  O   UNL     1     -10.463   6.549  68.884  1.00  0.00    -0.179 OA 
HETATM   31  P   UNL     1     -11.114   6.875  70.453  1.00  0.00    -0.334 P  
HETATM   32  C   UNL     1     -11.802   7.222  72.113  1.00  0.00    -0.286 C  
HETATM   33  O   UNL     1     -10.296   5.548  70.996  1.00  0.00    -0.217 OA 
HETATM   34  O   UNL     1     -10.186   8.105  70.638  1.00  0.00    -0.194 OA 
HETATM   35 CL   UNL     1     -10.519   7.265  73.416  1.00  0.00    -0.398 Cl 
HETATM   36  P   UNL     1     -12.482   8.921  72.149  1.00  0.00    -0.360 P  
HETATM   37 CL   UNL     1     -12.900   5.876  72.567  1.00  0.00     0.203 Cl 
HETATM   38  O   UNL     1     -14.011   8.306  71.971  1.00  0.00    -0.369 OA 
HETATM   39  O   UNL     1     -12.375   9.041  70.496  1.00  0.00    -0.017 OA 
HETATM   40  O   UNL     1     -13.059  10.357  72.179  1.00  0.00    -0.445 OA 
ENDBRANCH  27  30
ENDBRANCH  26  27
ENDBRANCH  25  26
ENDBRANCH  18  25
ENDBRANCH  11  16
BRANCH  14  41
HETATM   41  S   UNL     1      -9.556  16.198  65.867  1.00  0.00    -0.278 SA 
BRANCH  41  42
HETATM   42  C   UNL     1      -9.396  17.365  67.260  1.00  0.00    -0.238 C  
BRANCH  42  43
HETATM   43  C   UNL     1     -10.431  18.469  67.086  1.00  0.00    -0.446 C  
HETATM   44  C   UNL     1      -9.805  19.769  66.632  1.00  0.00    -0.425 C  
HETATM   45  F   UNL     1     -10.390  20.204  65.490  1.00  0.00    -0.539 F  
HETATM   46  F   UNL     1      -8.483  19.665  66.398  1.00  0.00    -0.293 F  
HETATM   47  F   UNL     1      -9.982  20.736  67.560  1.00  0.00    -0.574 F  
ENDBRANCH  42  43
ENDBRANCH  41  42
ENDBRANCH  14  41
ENDBRANCH   5   7
ENDBRANCH   4   5
ENDBRANCH   3   4
ENDBRANCH   2   3
TORSDOF 12
ENDMDL
MODEL       19
REMARK 921   NORMALIZED FREE ENERGY PREDICTED BY IDOCK:   -7.00 KCAL/MOL
REMARK 922        TOTAL FREE ENERGY PREDICTED BY IDOCK:  -12.92 KCAL/MOL
REMARK 923 INTER-LIGAND FREE ENERGY PREDICTED BY IDOCK:  -12.67 KCAL/MOL
REMARK 924 INTRA-LIGAND FREE ENERGY PREDICTED BY IDOCK:   -0.26 KCAL/MOL
REMARK 927      BINDING AFFINITY PREDICTED BY RF-SCORE:    0.00 PKD
ROOT
HETATM    1  C   UNL     1      -9.239   5.784  71.095  1.00  0.00    -0.153 C  
HETATM    2  S   UNL     1      -9.260   4.929  69.503  1.00  0.00    -0.130 SA 
ENDROOT
BRANCH   2   3
HETATM    3  C   UNL     1      -7.863   5.785  68.680  1.00  0.00    -0.097 C  
BRANCH   3   4
HETATM    4  C   UNL     1      -8.206   6.192  67.232  1.00  0.00    -0.106 C  
BRANCH   4   5
HETATM    5  N   UNL     1      -7.782   7.555  66.965  1.00  0.00    -0.109 NA 
HETATM    6  H   UNL     1      -6.791   7.758  66.835  1.00  0.00     0.000 HD 
BRANCH   5   7
HETATM    7  C   UNL     1      -8.704   8.584  66.885  1.00  0.00    -0.128 A  
HETATM    8  C   UNL     1      -8.975   9.200  65.653  1.00  0.00    -0.203 A  
HETATM    9  N   UNL     1      -8.506   8.956  64.377  1.00  0.00    -0.172 NA 
HETATM   10  C   UNL     1      -9.178   9.794  63.602  1.00  0.00    -0.183 A  
HETATM   11  N   UNL     1     -10.039  10.589  64.330  1.00  0.00    -0.342 NA 
HETATM   12  C   UNL     1      -9.919  10.217  65.638  1.00  0.00    -0.279 A  
HETATM   13  N   UNL     1      -9.373   9.040  67.984  1.00  0.00    -0.141 NA 
HETATM   14  C   UNL     1     -10.234  10.067  67.838  1.00  0.00    -0.188 A  
HETATM   15  N   UNL     1     -10.577  10.702  66.692  1.00  0.00    -0.236 NA 
BRANCH  11  16
HETATM   16  C   UNL     1     -11.015  11.476  63.736  1.00  0.00    -0.409 C  
HETATM   17  O   UNL     1     -10.403  12.765  63.601  1.00  0.00    -0.364 OA 
HETATM   18  C   UNL     1     -10.911  13.649  64.614  1.00  0.00    -0.407 C  
HETATM   19  H   UNL     1     -14.205  12.272  63.883  1.00  0.00     0.000 HD 
HETATM   20  O   UNL     1     -13.374  12.104  63.455  1.00  0.00    -0.628 OA 
HETATM   21  C   UNL     1     -12.093  12.964  65.290  1.00  0.00    -0.453 C  
HETATM   22  H   UNL     1     -13.951  13.433  65.739  1.00  0.00     0.000 HD 
HETATM   23  C   UNL     1     -12.360  11.747  64.428  1.00  0.00    -0.025 C  
HETATM   24  O   UNL     1     -13.214  13.859  65.318  1.00  0.00    -0.774 OA 
BRANCH  18  25
HETATM   25  C   UNL     1      -9.832  14.034  65.628  1.00  0.00    -0.228 C  
BRANCH  25  26
HETATM   26  O   UNL     1     -10.485  14.116  66.896  1.00  0.00    -0.269 OA 
BRANCH  26  27
HETATM   27  P   UNL     1      -9.963  15.290  67.858  1.00  0.00    -0.230 P  
HETATM   28  O   UNL     1     -10.963  16.453  67.349  1.00  0.00    -0.263 OA 
HETATM   29  O   UNL     1     -10.059  15.034  69.333  1.00  0.00    -0.226 OA 
BRANCH  27  30
HETATM   30  O   UNL     1      -8.444  15.587  67.336  1.00  0.00    -0.160 OA 
HETATM   31  P   UNL     1      -7.989  17.248  67.183  1.00  0.00    -0.230 P  
HETATM   32  C   UNL     1      -7.509  19.007  67.022  1.00  0.00    -0.218 C  
HETATM   33  O   UNL     1      -8.806  17.272  65.748  1.00  0.00    -0.530 OA 
HETATM   34  O   UNL     1      -8.984  17.676  68.295  1.00  0.00    -0.261 OA 
HETATM   35 CL   UNL     1      -8.931  20.099  66.665  1.00  0.00    -0.420 Cl 
HETATM   36  P   UNL     1      -6.910  19.626  68.637  1.00  0.00    -0.330 P  
HETATM   37 CL   UNL     1      -6.412  19.171  65.609  1.00  0.00    -0.266 Cl 
HETATM   38  O   UNL     1      -5.346  19.460  68.114  1.00  0.00    -0.183 OA 
HETATM   39  O   UNL     1      -6.834  18.083  69.245  1.00  0.00    -0.248 OA 
HETATM   40  O   UNL     1      -6.401  20.150  70.002  1.00  0.00    -0.354 OA 
ENDBRANCH  27  30
ENDBRANCH  26  27
ENDBRANCH  25  26
ENDBRANCH  18  25
ENDBRANCH  11  16
BRANCH  14  41
HETATM   41  S   UNL     1     -11.035  10.709  69.292  1.00  0.00    -0.264 SA 
BRANCH  41  42
HETATM   42  C   UNL     1     -11.368   9.159  70.195  1.00  0.00    -0.142 C  
BRANCH  42  43
HETATM   43  C   UNL     1     -11.663   9.503  71.650  1.00  0.00    -0.460 C  
HETATM   44  C   UNL     1     -13.129   9.799  71.878  1.00  0.00    -0.446 C  
HETATM   45  F   UNL     1     -13.629   8.998  72.849  1.00  0.00    -0.476 F  
HETATM   46  F   UNL     1     -13.882   9.620  70.776  1.00  0.00    -0.358 F  
HETATM   47  F   UNL     1     -13.302  11.075  72.289  1.00  0.00    -0.575 F  
ENDBRANCH  42  43
ENDBRANCH  41  42
ENDBRANCH  14  41
ENDBRANCH   5   7
ENDBRANCH   4   5
ENDBRANCH   3   4
ENDBRANCH   2   3
TORSDOF 12
ENDMDL
MODEL       20
REMARK 921   NORMALIZED FREE ENERGY PREDICTED BY IDOCK:   -6.98 KCAL/MOL
REMARK 922        TOTAL FREE ENERGY PREDICTED BY IDOCK:  -12.89 KCAL/MOL
REMARK 923 INTER-LIGAND FREE ENERGY PREDICTED BY IDOCK:  -12.28 KCAL/MOL
REMARK 924 INTRA-LIGAND FREE ENERGY PREDICTED BY IDOCK:   -0.61 KCAL/MOL
REMARK 927      BINDING AFFINITY PREDICTED BY RF-SCORE:    0.00 PKD
ROOT
HETATM    1  C   UNL     1     -11.072   3.037  73.336  1.00  0.00    -0.181 C  
HETATM    2  S   UNL     1     -10.830   4.752  73.850  1.00  0.00    -0.245 SA 
ENDROOT
BRANCH   2   3
HETATM    3  C   UNL     1      -9.602   5.276  72.594  1.00  0.00    -0.147 C  
BRANCH   3   4
HETATM    4  C   UNL     1     -10.234   6.166  71.503  1.00  0.00    -0.203 C  
BRANCH   4   5
HETATM    5  N   UNL     1      -9.711   7.519  71.575  1.00  0.00    -0.166 NA 
HETATM    6  H   UNL     1      -8.836   7.695  72.068  1.00  0.00     0.000 HD 
BRANCH   5   7
HETATM    7  C   UNL     1     -10.384   8.574  70.983  1.00  0.00    -0.209 A  
HETATM    8  C   UNL     1     -10.034   9.005  69.694  1.00  0.00    -0.192 A  
HETATM    9  N   UNL     1      -9.104   8.538  68.786  1.00  0.00    -0.143 NA 
HETATM   10  C   UNL     1      -9.282   9.282  67.705  1.00  0.00    -0.129 A  
HETATM   11  N   UNL     1     -10.268  10.229  67.889  1.00  0.00    -0.173 NA 
HETATM   12  C   UNL     1     -10.755  10.059  69.153  1.00  0.00    -0.220 A  
HETATM   13  N   UNL     1     -11.394   9.234  71.622  1.00  0.00    -0.381 NA 
HETATM   14  C   UNL     1     -11.984  10.274  70.998  1.00  0.00    -0.385 A  
HETATM   15  N   UNL     1     -11.734  10.741  69.752  1.00  0.00    -0.296 NA 
BRANCH  11  16
HETATM   16  C   UNL     1     -10.789  11.068  66.831  1.00  0.00    -0.269 C  
HETATM   17  O   UNL     1      -9.672  11.668  66.164  1.00  0.00    -0.216 OA 
HETATM   18  C   UNL     1      -9.557  13.045  66.558  1.00  0.00    -0.260 C  
HETATM   19  H   UNL     1     -13.180  13.241  66.203  1.00  0.00     0.000 HD 
HETATM   20  O   UNL     1     -12.594  12.519  66.009  1.00  0.00    -0.456 OA 
HETATM   21  C   UNL     1     -10.813  13.420  67.338  1.00  0.00    -0.268 C  
HETATM   22  H   UNL     1     -12.151  14.862  67.285  1.00  0.00     0.000 HD 
HETATM   23  C   UNL     1     -11.737  12.236  67.145  1.00  0.00    -0.326 C  
HETATM   24  O   UNL     1     -11.369  14.628  66.800  1.00  0.00    -0.339 OA 
BRANCH  18  25
HETATM   25  C   UNL     1      -8.292  13.301  67.379  1.00  0.00    -0.192 C  
BRANCH  25  26
HETATM   26  O   UNL     1      -8.722  13.897  68.604  1.00  0.00    -0.158 OA 
BRANCH  26  27
HETATM   27  P   UNL     1      -8.265  15.420  68.821  1.00  0.00    -0.205 P  
HETATM   28  O   UNL     1      -9.461  15.869  69.811  1.00  0.00    -0.221 OA 
HETATM   29  O   UNL     1      -6.901  15.629  69.409  1.00  0.00    -0.161 OA 
BRANCH  27  30
HETATM   30  O   UNL     1      -8.465  16.107  67.352  1.00  0.00    -0.162 OA 
HETATM   31  P   UNL     1      -8.806  17.802  67.331  1.00  0.00    -0.246 P  
HETATM   32  C   UNL     1      -9.167  19.597  67.310  1.00  0.00    -0.328 C  
HETATM   33  O   UNL     1     -10.371  17.425  67.696  1.00  0.00    -0.327 OA 
HETATM   34  O   UNL     1      -8.053  18.023  68.670  1.00  0.00    -0.303 OA 
HETATM   35 CL   UNL     1     -10.038  20.161  68.816  1.00  0.00    -0.421 Cl 
HETATM   36  P   UNL     1      -7.597  20.536  67.366  1.00  0.00    -0.264 P  
HETATM   37 CL   UNL     1     -10.291  19.936  65.952  1.00  0.00    -0.598 Cl 
HETATM   38  O   UNL     1      -7.703  20.798  65.734  1.00  0.00     0.159 OA 
HETATM   39  O   UNL     1      -6.718  19.161  67.054  1.00  0.00    -0.197 OA 
HETATM   40  O   UNL     1      -6.269  21.330  67.413  1.00  0.00    -0.321 OA 
ENDBRANCH  27  30
ENDBRANCH  26  27
ENDBRANCH  25  26
ENDBRANCH  18  25
ENDBRANCH  11  16
BRANCH  14  41
HETATM   41  S   UNL     1     -13.240  11.180  71.875  1.00  0.00    -0.229 SA 
BRANCH  41  42
HETATM   42  C   UNL     1     -12.830  12.884  71.369  1.00  0.00    -0.283 C  
BRANCH  42  43
HETATM   43  C   UNL     1     -13.506  13.849  72.335  1.00  0.00    -0.661 C  
HETATM   44  C   UNL     1     -12.576  14.959  72.774  1.00  0.00    -0.385 C  
HETATM   45  F   UNL     1     -13.125  16.169  72.511  1.00  0.00    -0.500 F  
HETATM   46  F   UNL     1     -11.376  14.916  72.163  1.00  0.00    -0.437 F  
HETATM   47  F   UNL     1     -12.359  14.904  74.107  1.00  0.00    -0.639 F  
ENDBRANCH  42  43
ENDBRANCH  41  42
ENDBRANCH  14  41
ENDBRANCH   5   7
ENDBRANCH   4   5
ENDBRANCH   3   4
ENDBRANCH   2   3
TORSDOF 12
ENDMDL
MODEL       21
REMARK 921   NORMALIZED FREE ENERGY PREDICTED BY IDOCK:   -6.91 KCAL/MOL
REMARK 922        TOTAL FREE ENERGY PREDICTED BY IDOCK:  -12.77 KCAL/MOL
REMARK 923 INTER-LIGAND FREE ENERGY PREDICTED BY IDOCK:  -12.44 KCAL/MOL
REMARK 924 INTRA-LIGAND FREE ENERGY PREDICTED BY IDOCK:   -0.32 KCAL/MOL
REMARK 927      BINDING AFFINITY PREDICTED BY RF-SCORE:    0.00 PKD
ROOT
HETATM    1  C   UNL     1     -10.350   5.165  73.909  1.00  0.00    -0.253 C  
HETATM    2  S   UNL     1     -10.348   6.413  72.602  1.00  0.00    -0.203 SA 
ENDROOT
BRANCH   2   3
HETATM    3  C   UNL     1     -12.083   6.257  72.032  1.00  0.00    -0.266 C  
BRANCH   3   4
HETATM    4  C   UNL     1     -12.760   7.633  71.855  1.00  0.00    -0.293 C  
BRANCH   4   5
HETATM    5  N   UNL     1     -11.793   8.707  72.004  1.00  0.00    -0.347 NA 
HETATM    6  H   UNL     1     -11.221   8.754  72.847  1.00  0.00     0.000 HD 
BRANCH   5   7
HETATM    7  C   UNL     1     -11.637   9.665  71.019  1.00  0.00    -0.359 A  
HETATM    8  C   UNL     1     -11.008   9.341  69.806  1.00  0.00    -0.196 A  
HETATM    9  N   UNL     1     -10.498   8.152  69.321  1.00  0.00    -0.222 NA 
HETATM   10  C   UNL     1     -10.108   8.430  68.087  1.00  0.00    -0.200 A  
HETATM   11  N   UNL     1     -10.318   9.755  67.766  1.00  0.00    -0.209 NA 
HETATM   12  C   UNL     1     -10.894  10.344  68.855  1.00  0.00    -0.236 A  
HETATM   13  N   UNL     1     -12.074  10.948  71.185  1.00  0.00    -0.317 NA 
HETATM   14  C   UNL     1     -11.859  11.838  70.195  1.00  0.00    -0.324 A  
HETATM   15  N   UNL     1     -11.290  11.611  68.987  1.00  0.00    -0.250 NA 
BRANCH  11  16
HETATM   16  C   UNL     1     -10.143  10.302  66.438  1.00  0.00    -0.234 C  
HETATM   17  O   UNL     1      -8.780  10.729  66.322  1.00  0.00    -0.157 OA 
HETATM   18  C   UNL     1      -8.714  12.162  66.411  1.00  0.00    -0.052 C  
HETATM   19  H   UNL     1     -11.631  12.232  64.226  1.00  0.00     0.000 HD 
HETATM   20  O   UNL     1     -11.116  11.489  64.519  1.00  0.00    -0.321 OA 
HETATM   21  C   UNL     1     -10.137  12.706  66.338  1.00  0.00    -0.253 C  
HETATM   22  H   UNL     1     -11.091  14.079  65.300  1.00  0.00     0.000 HD 
HETATM   23  C   UNL     1     -10.976  11.502  65.962  1.00  0.00    -0.259 C  
HETATM   24  O   UNL     1     -10.205  13.739  65.345  1.00  0.00    -0.317 OA 
BRANCH  18  25
HETATM   25  C   UNL     1      -8.003  12.624  67.684  1.00  0.00    -0.169 C  
BRANCH  25  26
HETATM   26  O   UNL     1      -7.363  13.859  67.361  1.00  0.00    -0.174 OA 
BRANCH  26  27
HETATM   27  P   UNL     1      -6.568  14.554  68.569  1.00  0.00    -0.116 P  
HETATM   28  O   UNL     1      -6.367  13.237  69.485  1.00  0.00    -0.109 OA 
HETATM   29  O   UNL     1      -5.277  15.230  68.216  1.00  0.00    -0.097 OA 
BRANCH  27  30
HETATM   30  O   UNL     1      -7.671  15.549  69.250  1.00  0.00    -0.191 OA 
HETATM   31  P   UNL     1      -8.068  16.982  68.368  1.00  0.00    -0.261 P  
HETATM   32  C   UNL     1      -8.489  18.499  67.434  1.00  0.00    -0.257 C  
HETATM   33  O   UNL     1      -6.672  17.646  68.947  1.00  0.00    -0.216 OA 
HETATM   34  O   UNL     1      -7.737  16.302  67.013  1.00  0.00    -0.169 OA 
HETATM   35 CL   UNL     1      -7.114  19.085  66.380  1.00  0.00    -0.235 Cl 
HETATM   36  P   UNL     1      -9.806  18.122  66.220  1.00  0.00    -0.218 P  
HETATM   37 CL   UNL     1      -8.793  19.824  68.606  1.00  0.00    -0.303 Cl 
HETATM   38  O   UNL     1     -10.928  18.796  67.237  1.00  0.00    -0.412 OA 
HETATM   39  O   UNL     1     -10.095  16.649  66.932  1.00  0.00    -0.265 OA 
HETATM   40  O   UNL     1     -10.922  17.803  65.194  1.00  0.00    -0.651 OA 
ENDBRANCH  27  30
ENDBRANCH  26  27
ENDBRANCH  25  26
ENDBRANCH  18  25
ENDBRANCH  11  16
BRANCH  14  41
HETATM   41  S   UNL     1     -12.356  13.527  70.458  1.00  0.00    -0.308 SA 
BRANCH  41  42
HETATM   42  C   UNL     1     -13.521  13.314  71.847  1.00  0.00    -0.438 C  
BRANCH  42  43
HETATM   43  C   UNL     1     -13.092  14.237  72.981  1.00  0.00    -0.526 C  
HETATM   44  C   UNL     1     -13.305  15.695  72.639  1.00  0.00    -0.536 C  
HETATM   45  F   UNL     1     -14.078  16.293  73.577  1.00  0.00    -0.512 F  
HETATM   46  F   UNL     1     -13.902  15.876  71.445  1.00  0.00    -0.494 F  
HETATM   47  F   UNL     1     -12.128  16.359  72.614  1.00  0.00    -0.516 F  
ENDBRANCH  42  43
ENDBRANCH  41  42
ENDBRANCH  14  41
ENDBRANCH   5   7
ENDBRANCH   4   5
ENDBRANCH   3   4
ENDBRANCH   2   3
TORSDOF 12
ENDMDL
MODEL       22
REMARK 921   NORMALIZED FREE ENERGY PREDICTED BY IDOCK:   -6.85 KCAL/MOL
REMARK 922        TOTAL FREE ENERGY PREDICTED BY IDOCK:  -12.66 KCAL/MOL
REMARK 923 INTER-LIGAND FREE ENERGY PREDICTED BY IDOCK:  -12.38 KCAL/MOL
REMARK 924 INTRA-LIGAND FREE ENERGY PREDICTED BY IDOCK:   -0.28 KCAL/MOL
REMARK 927      BINDING AFFINITY PREDICTED BY RF-SCORE:    0.00 PKD
ROOT
HETATM    1  C   UNL     1     -12.360  15.386  73.725  1.00  0.00    -0.610 C  
HETATM    2  S   UNL     1     -13.736  15.259  72.560  1.00  0.00    -0.541 SA 
ENDROOT
BRANCH   2   3
HETATM    3  C   UNL     1     -12.851  15.641  71.001  1.00  0.00    -0.463 C  
BRANCH   3   4
HETATM    4  C   UNL     1     -11.368  15.993  71.249  1.00  0.00    -0.336 C  
BRANCH   4   5
HETATM    5  N   UNL     1     -10.496  14.975  70.688  1.00  0.00    -0.507 NA 
HETATM    6  H   UNL     1      -9.993  14.345  71.313  1.00  0.00     0.000 HD 
BRANCH   5   7
HETATM    7  C   UNL     1     -10.338  14.848  69.319  1.00  0.00    -0.234 A  
HETATM    8  C   UNL     1     -10.917  13.768  68.635  1.00  0.00    -0.266 A  
HETATM    9  N   UNL     1     -11.716  12.726  69.064  1.00  0.00    -0.308 NA 
HETATM   10  C   UNL     1     -12.029  12.063  67.962  1.00  0.00    -0.144 A  
HETATM   11  N   UNL     1     -11.441  12.616  66.843  1.00  0.00    -0.323 NA 
HETATM   12  C   UNL     1     -10.732  13.705  67.262  1.00  0.00    -0.279 A  
HETATM   13  N   UNL     1      -9.619  15.751  68.591  1.00  0.00    -0.199 NA 
HETATM   14  C   UNL     1      -9.480  15.548  67.264  1.00  0.00    -0.213 A  
HETATM   15  N   UNL     1     -10.021  14.555  66.518  1.00  0.00    -0.270 NA 
BRANCH  11  16
HETATM   16  C   UNL     1     -11.737  12.205  65.488  1.00  0.00    -0.324 C  
HETATM   17  O   UNL     1     -11.438  10.808  65.385  1.00  0.00     0.399 OA 
HETATM   18  C   UNL     1     -10.205  10.629  64.669  1.00  0.00    -0.334 C  
HETATM   19  H   UNL     1     -11.403  13.185  62.364  1.00  0.00     0.000 HD 
HETATM   20  O   UNL     1     -11.846  12.785  63.103  1.00  0.00    -0.493 OA 
HETATM   21  C   UNL     1      -9.808  11.973  64.068  1.00  0.00    -0.211 C  
HETATM   22  H   UNL     1      -9.268  12.644  62.299  1.00  0.00     0.000 HD 
HETATM   23  C   UNL     1     -11.020  12.853  64.293  1.00  0.00    -0.388 C  
HETATM   24  O   UNL     1      -9.515  11.807  62.674  1.00  0.00    -0.283 OA 
BRANCH  18  25
HETATM   25  C   UNL     1      -9.099  10.070  65.567  1.00  0.00    -0.186 C  
BRANCH  25  26
HETATM   26  O   UNL     1      -9.739   9.634  66.767  1.00  0.00    -0.174 OA 
BRANCH  26  27
HETATM   27  P   UNL     1      -9.284   8.190  67.298  1.00  0.00    -0.149 P  
HETATM   28  O   UNL     1     -10.750   7.514  67.382  1.00  0.00    -0.280 OA 
HETATM   29  O   UNL     1      -8.333   7.427  66.424  1.00  0.00    -0.116 OA 
BRANCH  27  30
HETATM   30  O   UNL     1      -8.713   8.480  68.801  1.00  0.00    -0.136 OA 
HETATM   31  P   UNL     1      -9.580   7.758  70.111  1.00  0.00    -0.166 P  
HETATM   32  C   UNL     1     -10.499   6.994  71.497  1.00  0.00    -0.204 C  
HETATM   33  O   UNL     1     -10.680   8.982  69.971  1.00  0.00    -0.221 OA 
HETATM   34  O   UNL     1     -10.064   6.588  69.214  1.00  0.00    -0.159 OA 
HETATM   35 CL   UNL     1     -12.271   6.746  71.121  1.00  0.00    -0.424 Cl 
HETATM   36  P   UNL     1      -9.893   5.287  71.763  1.00  0.00    -0.182 P  
HETATM   37 CL   UNL     1     -10.459   8.118  72.897  1.00  0.00    -0.398 Cl 
HETATM   38  O   UNL     1      -8.987   5.815  73.047  1.00  0.00    -0.124 OA 
HETATM   39  O   UNL     1      -8.586   5.555  70.774  1.00  0.00    -0.122 OA 
HETATM   40  O   UNL     1      -9.379   3.844  71.989  1.00  0.00    -0.116 OA 
ENDBRANCH  27  30
ENDBRANCH  26  27
ENDBRANCH  25  26
ENDBRANCH  18  25
ENDBRANCH  11  16
BRANCH  14  41
HETATM   41  S   UNL     1      -8.469  16.683  66.340  1.00  0.00    -0.327 SA 
BRANCH  41  42
HETATM   42  C   UNL     1      -8.346  18.060  67.531  1.00  0.00    -0.233 C  
BRANCH  42  43
HETATM   43  C   UNL     1      -8.539  19.369  66.776  1.00  0.00    -0.336 C  
HETATM   44  C   UNL     1      -9.985  19.814  66.768  1.00  0.00    -0.427 C  
HETATM   45  F   UNL     1     -10.098  21.067  67.269  1.00  0.00    -0.560 F  
HETATM   46  F   UNL     1     -10.788  19.012  67.493  1.00  0.00    -0.480 F  
HETATM   47  F   UNL     1     -10.469  19.846  65.506  1.00  0.00    -0.537 F  
ENDBRANCH  42  43
ENDBRANCH  41  42
ENDBRANCH  14  41
ENDBRANCH   5   7
ENDBRANCH   4   5
ENDBRANCH   3   4
ENDBRANCH   2   3
TORSDOF 12
ENDMDL
MODEL       23
REMARK 921   NORMALIZED FREE ENERGY PREDICTED BY IDOCK:   -6.82 KCAL/MOL
REMARK 922        TOTAL FREE ENERGY PREDICTED BY IDOCK:  -12.61 KCAL/MOL
REMARK 923 INTER-LIGAND FREE ENERGY PREDICTED BY IDOCK:  -12.52 KCAL/MOL
REMARK 924 INTRA-LIGAND FREE ENERGY PREDICTED BY IDOCK:   -0.09 KCAL/MOL
REMARK 927      BINDING AFFINITY PREDICTED BY RF-SCORE:    0.00 PKD
ROOT
HETATM    1  C   UNL     1     -11.418   5.299  72.994  1.00  0.00    -0.269 C  
HETATM    2  S   UNL     1     -11.521   6.618  71.763  1.00  0.00    -0.307 SA 
ENDROOT
BRANCH   2   3
HETATM    3  C   UNL     1      -9.756   7.109  71.696  1.00  0.00    -0.159 C  
BRANCH   3   4
HETATM    4  C   UNL     1      -9.526   8.311  70.755  1.00  0.00    -0.161 C  
BRANCH   4   5
HETATM    5  N   UNL     1     -10.693   8.545  69.922  1.00  0.00    -0.229 NA 
HETATM    6  H   UNL     1     -11.271   7.756  69.633  1.00  0.00     0.000 HD 
BRANCH   5   7
HETATM    7  C   UNL     1     -11.032   9.824  69.516  1.00  0.00    -0.227 A  
HETATM    8  C   UNL     1     -11.847  10.633  70.323  1.00  0.00    -0.342 A  
HETATM    9  N   UNL     1     -12.407  10.426  71.568  1.00  0.00    -0.381 NA 
HETATM   10  C   UNL     1     -13.004  11.569  71.866  1.00  0.00    -0.348 A  
HETATM   11  N   UNL     1     -12.877  12.495  70.852  1.00  0.00    -0.163 NA 
HETATM   12  C   UNL     1     -12.139  11.909  69.864  1.00  0.00    -0.272 A  
HETATM   13  N   UNL     1     -10.599  10.341  68.329  1.00  0.00    -0.206 NA 
HETATM   14  C   UNL     1     -10.994  11.583  67.981  1.00  0.00    -0.231 A  
HETATM   15  N   UNL     1     -11.753  12.441  68.703  1.00  0.00    -0.312 NA 
BRANCH  11  16
HETATM   16  C   UNL     1     -13.283  13.879  70.966  1.00  0.00    -0.190 C  
HETATM   17  O   UNL     1     -12.459  14.647  70.079  1.00  0.00    -0.326 OA 
HETATM   18  C   UNL     1     -11.472  15.364  70.838  1.00  0.00    -0.361 C  
HETATM   19  H   UNL     1     -14.139  16.142  73.197  1.00  0.00     0.000 HD 
HETATM   20  O   UNL     1     -14.185  15.687  72.365  1.00  0.00    -0.551 OA 
HETATM   21  C   UNL     1     -11.830  15.242  72.315  1.00  0.00    -0.437 C  
HETATM   22  H   UNL     1     -12.055  16.469  73.837  1.00  0.00     0.000 HD 
HETATM   23  C   UNL     1     -13.209  14.616  72.312  1.00  0.00    -0.378 C  
HETATM   24  O   UNL     1     -11.832  16.544  72.917  1.00  0.00    -0.519 OA 
BRANCH  18  25
HETATM   25  C   UNL     1     -10.057  14.853  70.561  1.00  0.00     0.534 C  
BRANCH  25  26
HETATM   26  O   UNL     1      -9.455  15.798  69.676  1.00  0.00    -0.276 OA 
BRANCH  26  27
HETATM   27  P   UNL     1      -8.191  15.253  68.851  1.00  0.00    -0.216 P  
HETATM   28  O   UNL     1      -7.045  16.089  69.626  1.00  0.00    -0.200 OA 
HETATM   29  O   UNL     1      -7.963  13.771  68.883  1.00  0.00    -0.083 OA 
BRANCH  27  30
HETATM   30  O   UNL     1      -8.406  15.856  67.348  1.00  0.00    -0.155 OA 
HETATM   31  P   UNL     1      -8.864  17.521  67.241  1.00  0.00    -0.239 P  
HETATM   32  C   UNL     1      -9.347  19.282  67.128  1.00  0.00    -0.315 C  
HETATM   33  O   UNL     1     -10.406  17.052  67.596  1.00  0.00    -0.310 OA 
HETATM   34  O   UNL     1      -8.156  17.855  68.580  1.00  0.00    -0.295 OA 
HETATM   35 CL   UNL     1     -10.286  19.853  68.590  1.00  0.00    -0.518 Cl 
HETATM   36  P   UNL     1      -7.847  20.330  67.167  1.00  0.00    -0.317 P  
HETATM   37 CL   UNL     1     -10.463  19.479  65.735  1.00  0.00    -0.565 Cl 
HETATM   38  O   UNL     1      -7.937  20.509  65.522  1.00  0.00     0.057 OA 
HETATM   39  O   UNL     1      -6.869  19.008  66.936  1.00  0.00    -0.197 OA 
HETATM   40  O   UNL     1      -6.579  21.217  67.199  1.00  0.00    -0.425 OA 
ENDBRANCH  27  30
ENDBRANCH  26  27
ENDBRANCH  25  26
ENDBRANCH  18  25
ENDBRANCH  11  16
BRANCH  14  41
HETATM   41  S   UNL     1     -10.496  12.212  66.393  1.00  0.00    -0.237 SA 
BRANCH  41  42
HETATM   42  C   UNL     1     -10.960  13.968  66.574  1.00  0.00    -0.306 C  
BRANCH  42  43
HETATM   43  C   UNL     1     -10.917  14.622  65.199  1.00  0.00    -0.395 C  
HETATM   44  C   UNL     1     -12.266  14.601  64.516  1.00  0.00    -0.456 C  
HETATM   45  F   UNL     1     -12.641  15.854  64.167  1.00  0.00    -0.270 F  
HETATM   46  F   UNL     1     -13.242  14.086  65.290  1.00  0.00    -0.461 F  
HETATM   47  F   UNL     1     -12.217  13.871  63.379  1.00  0.00    -0.504 F  
ENDBRANCH  42  43
ENDBRANCH  41  42
ENDBRANCH  14  41
ENDBRANCH   5   7
ENDBRANCH   4   5
ENDBRANCH   3   4
ENDBRANCH   2   3
TORSDOF 12
ENDMDL
MODEL       24
REMARK 921   NORMALIZED FREE ENERGY PREDICTED BY IDOCK:   -6.81 KCAL/MOL
REMARK 922        TOTAL FREE ENERGY PREDICTED BY IDOCK:  -12.60 KCAL/MOL
REMARK 923 INTER-LIGAND FREE ENERGY PREDICTED BY IDOCK:  -12.91 KCAL/MOL
REMARK 924 INTRA-LIGAND FREE ENERGY PREDICTED BY IDOCK:    0.32 KCAL/MOL
REMARK 927      BINDING AFFINITY PREDICTED BY RF-SCORE:    0.00 PKD
ROOT
HETATM    1  C   UNL     1     -12.713  15.140  70.812  1.00  0.00    -0.405 C  
HETATM    2  S   UNL     1     -14.038  15.089  72.040  1.00  0.00    -0.586 SA 
ENDROOT
BRANCH   2   3
HETATM    3  C   UNL     1     -14.103  13.282  72.341  1.00  0.00    -0.359 C  
BRANCH   3   4
HETATM    4  C   UNL     1     -12.844  12.561  71.815  1.00  0.00    -0.242 C  
BRANCH   4   5
HETATM    5  N   UNL     1     -13.165  11.214  71.377  1.00  0.00    -0.292 NA 
HETATM    6  H   UNL     1     -14.073  10.813  71.609  1.00  0.00     0.000 HD 
BRANCH   5   7
HETATM    7  C   UNL     1     -12.255  10.467  70.649  1.00  0.00    -0.347 A  
HETATM    8  C   UNL     1     -11.663  10.999  69.494  1.00  0.00    -0.329 A  
HETATM    9  N   UNL     1     -11.770  12.236  68.888  1.00  0.00    -0.313 NA 
HETATM   10  C   UNL     1     -10.915  12.194  67.878  1.00  0.00    -0.229 A  
HETATM   11  N   UNL     1     -10.282  10.972  67.790  1.00  0.00    -0.179 NA 
HETATM   12  C   UNL     1     -10.750  10.203  68.817  1.00  0.00    -0.220 A  
HETATM   13  N   UNL     1     -11.908   9.199  71.016  1.00  0.00    -0.287 NA 
HETATM   14  C   UNL     1     -11.039   8.516  70.242  1.00  0.00    -0.214 A  
HETATM   15  N   UNL     1     -10.400   8.955  69.131  1.00  0.00    -0.217 NA 
BRANCH  11  16
HETATM   16  C   UNL     1      -9.182  10.695  66.892  1.00  0.00    -0.155 C  
HETATM   17  O   UNL     1      -8.990  11.855  66.072  1.00  0.00    -0.171 OA 
HETATM   18  C   UNL     1      -9.510  11.607  64.755  1.00  0.00    -0.063 C  
HETATM   19  H   UNL     1      -7.952   8.320  64.975  1.00  0.00     0.000 HD 
HETATM   20  O   UNL     1      -7.912   9.047  65.585  1.00  0.00    -0.099 OA 
HETATM   21  C   UNL     1      -9.839  10.122  64.648  1.00  0.00    -0.291 C  
HETATM   22  H   UNL     1      -9.449   8.658  63.393  1.00  0.00     0.000 HD 
HETATM   23  C   UNL     1      -9.245   9.519  65.905  1.00  0.00    -0.206 C  
HETATM   24  O   UNL     1      -9.244   9.583  63.460  1.00  0.00    -0.197 OA 
BRANCH  18  25
HETATM   25  C   UNL     1     -10.734  12.474  64.452  1.00  0.00    -0.350 C  
BRANCH  25  26
HETATM   26  O   UNL     1     -10.319  13.829  64.631  1.00  0.00    -0.426 OA 
BRANCH  26  27
HETATM   27  P   UNL     1     -11.478  14.844  65.081  1.00  0.00    -0.305 P  
HETATM   28  O   UNL     1     -11.044  16.097  64.157  1.00  0.00    -0.627 OA 
HETATM   29  O   UNL     1     -12.888  14.394  64.841  1.00  0.00    -0.645 OA 
BRANCH  27  30
HETATM   30  O   UNL     1     -11.142  15.159  66.649  1.00  0.00    -0.328 OA 
HETATM   31  P   UNL     1      -9.883  16.305  66.955  1.00  0.00    -0.260 P  
HETATM   32  C   UNL     1      -8.551  17.518  67.278  1.00  0.00    -0.225 C  
HETATM   33  O   UNL     1      -8.800  15.096  66.658  1.00  0.00    -0.258 OA 
HETATM   34  O   UNL     1     -10.150  17.035  65.612  1.00  0.00    -0.554 OA 
HETATM   35 CL   UNL     1      -7.297  17.563  65.948  1.00  0.00    -0.272 Cl 
HETATM   36  P   UNL     1      -9.247  19.211  67.246  1.00  0.00    -0.305 P  
HETATM   37 CL   UNL     1      -7.665  17.011  68.755  1.00  0.00    -0.244 Cl 
HETATM   38  O   UNL     1      -9.259  19.231  68.903  1.00  0.00    -0.367 OA 
HETATM   39  O   UNL     1     -10.797  18.617  67.276  1.00  0.00    -0.426 OA 
HETATM   40  O   UNL     1      -9.835  20.643  67.220  1.00  0.00    -0.471 OA 
ENDBRANCH  27  30
ENDBRANCH  26  27
ENDBRANCH  25  26
ENDBRANCH  18  25
ENDBRANCH  11  16
BRANCH  14  41
HETATM   41  S   UNL     1     -10.661   6.834  70.681  1.00  0.00    -0.232 SA 
BRANCH  41  42
HETATM   42  C   UNL     1      -8.918   7.011  71.192  1.00  0.00    -0.146 C  
BRANCH  42  43
HETATM   43  C   UNL     1      -8.749   6.368  72.562  1.00  0.00    -0.123 C  
HETATM   44  C   UNL     1      -9.041   7.337  73.686  1.00  0.00    -0.205 C  
HETATM   45  F   UNL     1      -9.997   6.839  74.506  1.00  0.00    -0.300 F  
HETATM   46  F   UNL     1      -9.467   8.539  73.250  1.00  0.00    -0.290 F  
HETATM   47  F   UNL     1      -7.939   7.542  74.441  1.00  0.00    -0.151 F  
ENDBRANCH  42  43
ENDBRANCH  41  42
ENDBRANCH  14  41
ENDBRANCH   5   7
ENDBRANCH   4   5
ENDBRANCH   3   4
ENDBRANCH   2   3
TORSDOF 12
ENDMDL
MODEL       25
REMARK 921   NORMALIZED FREE ENERGY PREDICTED BY IDOCK:   -6.68 KCAL/MOL
REMARK 922        TOTAL FREE ENERGY PREDICTED BY IDOCK:  -12.38 KCAL/MOL
REMARK 923 INTER-LIGAND FREE ENERGY PREDICTED BY IDOCK:  -10.52 KCAL/MOL
REMARK 924 INTRA-LIGAND FREE ENERGY PREDICTED BY IDOCK:   -1.85 KCAL/MOL
REMARK 927      BINDING AFFINITY PREDICTED BY RF-SCORE:    0.00 PKD
ROOT
HETATM    1  C   UNL     1     -14.374  15.128  71.530  1.00  0.00    -0.559 C  
HETATM    2  S   UNL     1     -13.236  14.199  72.582  1.00  0.00    -0.506 SA 
ENDROOT
BRANCH   2   3
HETATM    3  C   UNL     1     -12.977  12.726  71.523  1.00  0.00    -0.292 C  
BRANCH   3   4
HETATM    4  C   UNL     1     -12.140  13.054  70.268  1.00  0.00    -0.314 C  
BRANCH   4   5
HETATM    5  N   UNL     1     -11.399  11.887  69.822  1.00  0.00    -0.478 NA 
HETATM    6  H   UNL     1     -11.117  11.181  70.502  1.00  0.00     0.000 HD 
BRANCH   5   7
HETATM    7  C   UNL     1     -11.071  11.720  68.488  1.00  0.00    -0.239 A  
HETATM    8  C   UNL     1      -9.882  11.067  68.127  1.00  0.00    -0.176 A  
HETATM    9  N   UNL     1      -8.894  10.465  68.881  1.00  0.00    -0.153 NA 
HETATM   10  C   UNL     1      -8.063   9.941  67.994  1.00  0.00    -0.108 A  
HETATM   11  N   UNL     1      -8.457  10.205  66.699  1.00  0.00    -0.126 NA 
HETATM   12  C   UNL     1      -9.618  10.921  66.773  1.00  0.00    -0.183 A  
HETATM   13  N   UNL     1     -11.873  12.182  67.486  1.00  0.00    -0.553 NA 
HETATM   14  C   UNL     1     -11.475  12.012  66.208  1.00  0.00    -0.345 A  
HETATM   15  N   UNL     1     -10.365  11.375  65.765  1.00  0.00    -0.247 NA 
BRANCH  11  16
HETATM   16  C   UNL     1      -7.836   9.621  65.530  1.00  0.00    -0.111 C  
HETATM   17  O   UNL     1      -8.717   8.606  65.034  1.00  0.00    -0.179 OA 
HETATM   18  C   UNL     1      -8.200   7.309  65.376  1.00  0.00    -0.137 C  
HETATM   19  H   UNL     1      -4.925   8.579  64.404  1.00  0.00     0.000 HD 
HETATM   20  O   UNL     1      -5.775   8.999  64.346  1.00  0.00    -0.063 OA 
HETATM   21  C   UNL     1      -6.785   7.491  65.913  1.00  0.00    -0.046 C  
HETATM   22  H   UNL     1      -5.013   6.708  65.566  1.00  0.00     0.000 HD 
HETATM   23  C   UNL     1      -6.461   8.942  65.622  1.00  0.00    -0.063 C  
HETATM   24  O   UNL     1      -5.895   6.595  65.232  1.00  0.00    -0.029 OA 
BRANCH  18  25
HETATM   25  C   UNL     1      -9.093   6.586  66.386  1.00  0.00    -0.155 C  
BRANCH  25  26
HETATM   26  O   UNL     1      -8.298   6.389  67.556  1.00  0.00    -0.116 OA 
BRANCH  26  27
HETATM   27  P   UNL     1      -8.366   4.916  68.188  1.00  0.00    -0.098 P  
HETATM   28  O   UNL     1      -8.301   4.080  66.807  1.00  0.00    -0.100 OA 
HETATM   29  O   UNL     1      -7.274   4.552  69.150  1.00  0.00    -0.051 OA 
BRANCH  27  30
HETATM   30  O   UNL     1      -9.867   4.828  68.828  1.00  0.00    -0.165 OA 
HETATM   31  P   UNL     1     -10.098   5.583  70.367  1.00  0.00    -0.269 P  
HETATM   32  C   UNL     1     -10.341   6.383  71.995  1.00  0.00    -0.197 C  
HETATM   33  O   UNL     1      -9.404   4.251  71.052  1.00  0.00    -0.130 OA 
HETATM   34  O   UNL     1      -8.967   6.609  70.090  1.00  0.00    -0.150 OA 
HETATM   35 CL   UNL     1      -8.815   6.420  73.001  1.00  0.00    -0.127 Cl 
HETATM   36  P   UNL     1     -10.717   8.158  71.752  1.00  0.00    -0.294 P  
HETATM   37 CL   UNL     1     -11.515   5.407  72.940  1.00  0.00    -0.367 Cl 
HETATM   38  O   UNL     1     -12.325   7.846  71.999  1.00  0.00    -0.299 OA 
HETATM   39  O   UNL     1     -10.956   7.926  70.125  1.00  0.00    -0.253 OA 
HETATM   40  O   UNL     1     -11.035   9.659  71.547  1.00  0.00    -0.348 OA 
ENDBRANCH  27  30
ENDBRANCH  26  27
ENDBRANCH  25  26
ENDBRANCH  18  25
ENDBRANCH  11  16
BRANCH  14  41
HETATM   41  S   UNL     1     -12.487  12.695  64.913  1.00  0.00    -0.422 SA 
BRANCH  41  42
HETATM   42  C   UNL     1     -12.497  14.455  65.396  1.00  0.00    -0.350 C  
BRANCH  42  43
HETATM   43  C   UNL     1     -11.256  15.121  64.816  1.00  0.00    -0.396 C  
HETATM   44  C   UNL     1     -10.398  15.756  65.888  1.00  0.00    -0.354 C  
HETATM   45  F   UNL     1      -9.133  15.276  65.829  1.00  0.00    -0.344 F  
HETATM   46  F   UNL     1     -10.859  15.535  67.134  1.00  0.00    -0.301 F  
HETATM   47  F   UNL     1     -10.321  17.094  65.711  1.00  0.00    -0.332 F  
ENDBRANCH  42  43
ENDBRANCH  41  42
ENDBRANCH  14  41
ENDBRANCH   5   7
ENDBRANCH   4   5
ENDBRANCH   3   4
ENDBRANCH   2   3
TORSDOF 12
ENDMDL
MODEL       26
REMARK 921   NORMALIZED FREE ENERGY PREDICTED BY IDOCK:   -6.62 KCAL/MOL
REMARK 922        TOTAL FREE ENERGY PREDICTED BY IDOCK:  -12.27 KCAL/MOL
REMARK 923 INTER-LIGAND FREE ENERGY PREDICTED BY IDOCK:  -11.33 KCAL/MOL
REMARK 924 INTRA-LIGAND FREE ENERGY PREDICTED BY IDOCK:   -0.94 KCAL/MOL
REMARK 927      BINDING AFFINITY PREDICTED BY RF-SCORE:    0.00 PKD
ROOT
HETATM    1  C   UNL     1     -14.020   9.280  72.211  1.00  0.00    -0.369 C  
HETATM    2  S   UNL     1     -14.366   7.601  71.638  1.00  0.00    -0.461 SA 
ENDROOT
BRANCH   2   3
HETATM    3  C   UNL     1     -12.696   6.868  71.816  1.00  0.00    -0.327 C  
BRANCH   3   4
HETATM    4  C   UNL     1     -11.637   7.927  72.192  1.00  0.00    -0.328 C  
BRANCH   4   5
HETATM    5  N   UNL     1     -10.554   7.939  71.225  1.00  0.00    -0.210 NA 
HETATM    6  H   UNL     1      -9.974   7.108  71.109  1.00  0.00     0.000 HD 
BRANCH   5   7
HETATM    7  C   UNL     1     -10.297   9.062  70.458  1.00  0.00    -0.218 A  
HETATM    8  C   UNL     1      -9.119   9.150  69.700  1.00  0.00    -0.160 A  
HETATM    9  N   UNL     1      -8.080   8.261  69.503  1.00  0.00    -0.112 NA 
HETATM   10  C   UNL     1      -7.291   8.853  68.621  1.00  0.00    -0.077 A  
HETATM   11  N   UNL     1      -7.761  10.099  68.263  1.00  0.00    -0.087 NA 
HETATM   12  C   UNL     1      -8.928  10.297  68.943  1.00  0.00    -0.164 A  
HETATM   13  N   UNL     1     -11.162  10.117  70.414  1.00  0.00    -0.308 NA 
HETATM   14  C   UNL     1     -10.833  11.193  69.671  1.00  0.00    -0.142 A  
HETATM   15  N   UNL     1      -9.738  11.356  68.890  1.00  0.00    -0.143 NA 
BRANCH  11  16
HETATM   16  C   UNL     1      -7.196  10.901  67.199  1.00  0.00    -0.104 C  
HETATM   17  O   UNL     1      -8.258  11.677  66.631  1.00  0.00    -0.170 OA 
HETATM   18  C   UNL     1      -8.643  11.115  65.366  1.00  0.00    -0.009 C  
HETATM   19  H   UNL     1      -5.084  10.729  64.681  1.00  0.00     0.000 HD 
HETATM   20  O   UNL     1      -5.514  11.137  65.424  1.00  0.00    -0.185 OA 
HETATM   21  C   UNL     1      -7.610  10.061  64.982  1.00  0.00    -0.139 C  
HETATM   22  H   UNL     1      -6.513   9.642  63.404  1.00  0.00     0.000 HD 
HETATM   23  C   UNL     1      -6.501  10.243  65.998  1.00  0.00    -0.107 C  
HETATM   24  O   UNL     1      -7.156  10.298  63.643  1.00  0.00    -0.130 OA 
BRANCH  18  25
HETATM   25  C   UNL     1     -10.054  10.526  65.407  1.00  0.00    -0.291 C  
BRANCH  25  26
HETATM   26  O   UNL     1     -10.765  11.111  64.314  1.00  0.00    -0.358 OA 
BRANCH  26  27
HETATM   27  P   UNL     1     -11.725  12.336  64.702  1.00  0.00    -0.327 P  
HETATM   28  O   UNL     1     -12.888  12.057  63.614  1.00  0.00    -0.713 OA 
HETATM   29  O   UNL     1     -12.233  12.366  66.113  1.00  0.00    -0.635 OA 
BRANCH  27  30
HETATM   30  O   UNL     1     -10.868  13.662  64.280  1.00  0.00    -0.388 OA 
HETATM   31  P   UNL     1     -10.606  14.840  65.518  1.00  0.00    -0.422 P  
HETATM   32  C   UNL     1     -10.328  16.086  66.829  1.00  0.00    -0.300 C  
HETATM   33  O   UNL     1     -12.141  15.379  65.239  1.00  0.00     0.096 OA 
HETATM   34  O   UNL     1     -10.683  13.762  66.632  1.00  0.00    -0.276 OA 
HETATM   35 CL   UNL     1     -11.658  16.101  68.085  1.00  0.00    -0.224 Cl 
HETATM   36  P   UNL     1      -8.848  15.628  67.803  1.00  0.00    -0.175 P  
HETATM   37 CL   UNL     1     -10.359  17.718  66.080  1.00  0.00    -0.374 Cl 
HETATM   38  O   UNL     1      -7.957  16.747  66.965  1.00  0.00    -0.168 OA 
HETATM   39  O   UNL     1      -8.411  14.488  66.677  1.00  0.00    -0.149 OA 
HETATM   40  O   UNL     1      -7.595  15.241  68.626  1.00  0.00    -0.117 OA 
ENDBRANCH  27  30
ENDBRANCH  26  27
ENDBRANCH  25  26
ENDBRANCH  18  25
ENDBRANCH  11  16
BRANCH  14  41
HETATM   41  S   UNL     1     -11.927  12.597  69.690  1.00  0.00    -0.239 SA 
BRANCH  41  42
HETATM   42  C   UNL     1     -12.540  12.512  71.406  1.00  0.00    -0.194 C  
BRANCH  42  43
HETATM   43  C   UNL     1     -13.503  13.672  71.632  1.00  0.00    -0.398 C  
HETATM   44  C   UNL     1     -12.796  14.906  72.147  1.00  0.00    -0.325 C  
HETATM   45  F   UNL     1     -13.043  15.965  71.340  1.00  0.00    -0.504 F  
HETATM   46  F   UNL     1     -11.460  14.756  72.224  1.00  0.00    -0.398 F  
HETATM   47  F   UNL     1     -13.243  15.234  73.380  1.00  0.00    -0.505 F  
ENDBRANCH  42  43
ENDBRANCH  41  42
ENDBRANCH  14  41
ENDBRANCH   5   7
ENDBRANCH   4   5
ENDBRANCH   3   4
ENDBRANCH   2   3
TORSDOF 12
ENDMDL
MODEL       27
REMARK 921   NORMALIZED FREE ENERGY PREDICTED BY IDOCK:   -6.61 KCAL/MOL
REMARK 922        TOTAL FREE ENERGY PREDICTED BY IDOCK:  -12.27 KCAL/MOL
REMARK 923 INTER-LIGAND FREE ENERGY PREDICTED BY IDOCK:  -11.91 KCAL/MOL
REMARK 924 INTRA-LIGAND FREE ENERGY PREDICTED BY IDOCK:   -0.35 KCAL/MOL
REMARK 927      BINDING AFFINITY PREDICTED BY RF-SCORE:    0.00 PKD
ROOT
HETATM    1  C   UNL     1     -12.485  16.203  74.404  1.00  0.00    -0.519 C  
HETATM    2  S   UNL     1     -12.419  14.863  73.194  1.00  0.00    -0.407 SA 
ENDROOT
BRANCH   2   3
HETATM    3  C   UNL     1     -13.994  15.174  72.309  1.00  0.00    -0.530 C  
BRANCH   3   4
HETATM    4  C   UNL     1     -13.799  15.216  70.779  1.00  0.00    -0.108 C  
BRANCH   4   5
HETATM    5  N   UNL     1     -12.416  15.508  70.442  1.00  0.00    -0.445 NA 
HETATM    6  H   UNL     1     -11.872  16.125  71.044  1.00  0.00     0.000 HD 
BRANCH   5   7
HETATM    7  C   UNL     1     -11.827  14.959  69.317  1.00  0.00    -0.318 A  
HETATM    8  C   UNL     1     -11.709  13.566  69.186  1.00  0.00    -0.327 A  
HETATM    9  N   UNL     1     -12.124  12.525  69.993  1.00  0.00    -0.301 NA 
HETATM   10  C   UNL     1     -11.815  11.429  69.318  1.00  0.00    -0.349 A  
HETATM   11  N   UNL     1     -11.190  11.719  68.123  1.00  0.00    -0.239 NA 
HETATM   12  C   UNL     1     -11.120  13.079  68.028  1.00  0.00    -0.260 A  
HETATM   13  N   UNL     1     -11.339  15.736  68.307  1.00  0.00    -0.358 NA 
HETATM   14  C   UNL     1     -10.748  15.134  67.254  1.00  0.00    -0.305 A  
HETATM   15  N   UNL     1     -10.613  13.806  67.030  1.00  0.00    -0.277 NA 
BRANCH  11  16
HETATM   16  C   UNL     1     -10.889  10.732  67.108  1.00  0.00    -0.277 C  
HETATM   17  O   UNL     1     -11.189   9.442  67.655  1.00  0.00    -0.030 OA 
HETATM   18  C   UNL     1      -9.968   8.770  68.003  1.00  0.00    -0.182 C  
HETATM   19  H   UNL     1      -8.635   9.976  64.833  1.00  0.00     0.000 HD 
HETATM   20  O   UNL     1      -9.512  10.059  65.188  1.00  0.00    -0.227 OA 
HETATM   21  C   UNL     1      -8.806   9.570  67.426  1.00  0.00    -0.128 C  
HETATM   22  H   UNL     1      -7.217   9.195  66.328  1.00  0.00     0.000 HD 
HETATM   23  C   UNL     1      -9.471  10.598  66.533  1.00  0.00    -0.169 C  
HETATM   24  O   UNL     1      -7.941   8.696  66.688  1.00  0.00    -0.095 OA 
BRANCH  18  25
HETATM   25  C   UNL     1      -9.826   8.588  69.515  1.00  0.00    -0.187 C  
BRANCH  25  26
HETATM   26  O   UNL     1     -11.094   8.130  69.986  1.00  0.00    -0.233 OA 
BRANCH  26  27
HETATM   27  P   UNL     1     -11.262   8.103  71.581  1.00  0.00    -0.300 P  
HETATM   28  O   UNL     1     -11.364   9.698  71.819  1.00  0.00    -0.347 OA 
HETATM   29  O   UNL     1     -12.444   7.350  72.115  1.00  0.00    -0.265 OA 
BRANCH  27  30
HETATM   30  O   UNL     1      -9.824   7.546  72.123  1.00  0.00    -0.163 OA 
HETATM   31  P   UNL     1      -9.749   5.866  72.530  1.00  0.00    -0.156 P  
HETATM   32  C   UNL     1      -9.671   4.089  72.961  1.00  0.00    -0.129 C  
HETATM   33  O   UNL     1     -10.477   6.249  73.962  1.00  0.00    -0.293 OA 
HETATM   34  O   UNL     1     -10.869   5.517  71.514  1.00  0.00    -0.244 OA 
HETATM   35 CL   UNL     1     -11.283   3.421  73.506  1.00  0.00    -0.318 Cl 
HETATM   36  P   UNL     1      -9.308   3.112  71.456  1.00  0.00    -0.153 P  
HETATM   37 CL   UNL     1      -8.570   3.891  74.365  1.00  0.00    -0.095 Cl 
HETATM   38  O   UNL     1      -7.723   2.990  71.924  1.00  0.00    -0.051 OA 
HETATM   39  O   UNL     1      -8.917   4.487  70.610  1.00  0.00    -0.099 OA 
HETATM   40  O   UNL     1      -9.000   2.286  70.183  1.00  0.00    -0.074 OA 
ENDBRANCH  27  30
ENDBRANCH  26  27
ENDBRANCH  25  26
ENDBRANCH  18  25
ENDBRANCH  11  16
BRANCH  14  41
HETATM   41  S   UNL     1     -10.038  16.161  65.986  1.00  0.00    -0.370 SA 
BRANCH  41  42
HETATM   42  C   UNL     1      -9.117  17.358  67.010  1.00  0.00    -0.242 C  
BRANCH  42  43
HETATM   43  C   UNL     1      -9.059  18.686  66.264  1.00  0.00    -0.236 C  
HETATM   44  C   UNL     1     -10.335  19.483  66.421  1.00  0.00    -0.496 C  
HETATM   45  F   UNL     1     -10.066  20.715  66.914  1.00  0.00    -0.577 F  
HETATM   46  F   UNL     1     -11.224  18.899  67.249  1.00  0.00    -0.472 F  
HETATM   47  F   UNL     1     -10.941  19.658  65.226  1.00  0.00    -0.561 F  
ENDBRANCH  42  43
ENDBRANCH  41  42
ENDBRANCH  14  41
ENDBRANCH   5   7
ENDBRANCH   4   5
ENDBRANCH   3   4
ENDBRANCH   2   3
TORSDOF 12
ENDMDL
MODEL       28
REMARK 921   NORMALIZED FREE ENERGY PREDICTED BY IDOCK:   -6.54 KCAL/MOL
REMARK 922        TOTAL FREE ENERGY PREDICTED BY IDOCK:  -12.15 KCAL/MOL
REMARK 923 INTER-LIGAND FREE ENERGY PREDICTED BY IDOCK:  -10.98 KCAL/MOL
REMARK 924 INTRA-LIGAND FREE ENERGY PREDICTED BY IDOCK:   -1.16 KCAL/MOL
REMARK 927      BINDING AFFINITY PREDICTED BY RF-SCORE:    0.00 PKD
ROOT
HETATM    1  C   UNL     1     -12.732  15.365  73.860  1.00  0.00    -0.554 C  
HETATM    2  S   UNL     1     -14.082  15.323  72.660  1.00  0.00    -0.232 SA 
ENDROOT
BRANCH   2   3
HETATM    3  C   UNL     1     -13.125  15.581  71.117  1.00  0.00    -0.507 C  
BRANCH   3   4
HETATM    4  C   UNL     1     -11.732  16.185  71.394  1.00  0.00    -0.444 C  
BRANCH   4   5
HETATM    5  N   UNL     1     -10.709  15.495  70.629  1.00  0.00    -0.397 NA 
HETATM    6  H   UNL     1      -9.933  15.048  71.116  1.00  0.00     0.000 HD 
BRANCH   5   7
HETATM    7  C   UNL     1     -10.773  15.435  69.247  1.00  0.00    -0.251 A  
HETATM    8  C   UNL     1     -10.991  14.208  68.600  1.00  0.00    -0.258 A  
HETATM    9  N   UNL     1     -11.214  12.935  69.086  1.00  0.00    -0.254 NA 
HETATM   10  C   UNL     1     -11.438  12.196  68.011  1.00  0.00    -0.319 A  
HETATM   11  N   UNL     1     -11.340  12.933  66.850  1.00  0.00    -0.296 NA 
HETATM   12  C   UNL     1     -11.057  14.218  67.214  1.00  0.00    -0.306 A  
HETATM   13  N   UNL     1     -10.623  16.547  68.470  1.00  0.00    -0.298 NA 
HETATM   14  C   UNL     1     -10.665  16.409  67.129  1.00  0.00    -0.233 A  
HETATM   15  N   UNL     1     -10.896  15.278  66.420  1.00  0.00    -0.318 NA 
BRANCH  11  16
HETATM   16  C   UNL     1     -11.695  12.430  65.541  1.00  0.00    -0.407 C  
HETATM   17  O   UNL     1     -11.470  11.014  65.545  1.00  0.00     0.152 OA 
HETATM   18  C   UNL     1     -10.269  10.715  64.816  1.00  0.00    -0.331 C  
HETATM   19  H   UNL     1     -11.406  13.135  62.339  1.00  0.00     0.000 HD 
HETATM   20  O   UNL     1     -11.847  12.819  63.119  1.00  0.00    -0.493 OA 
HETATM   21  C   UNL     1      -9.823  11.983  64.096  1.00  0.00    -0.184 C  
HETATM   22  H   UNL     1      -9.303  12.480  62.265  1.00  0.00     0.000 HD 
HETATM   23  C   UNL     1     -10.984  12.940  64.278  1.00  0.00    -0.388 C  
HETATM   24  O   UNL     1      -9.581  11.690  62.713  1.00  0.00    -0.339 OA 
BRANCH  18  25
HETATM   25  C   UNL     1      -9.166  10.173  65.728  1.00  0.00    -0.178 C  
BRANCH  25  26
HETATM   26  O   UNL     1      -8.919   8.832  65.305  1.00  0.00    -0.194 OA 
BRANCH  26  27
HETATM   27  P   UNL     1      -9.011   7.723  66.460  1.00  0.00    -0.174 P  
HETATM   28  O   UNL     1     -10.618   7.721  66.636  1.00  0.00    -0.276 OA 
HETATM   29  O   UNL     1      -8.452   6.370  66.133  1.00  0.00    -0.127 OA 
BRANCH  27  30
HETATM   30  O   UNL     1      -8.306   8.434  67.751  1.00  0.00    -0.128 OA 
HETATM   31  P   UNL     1      -8.884   7.955  69.310  1.00  0.00    -0.141 P  
HETATM   32  C   UNL     1      -9.495   7.447  70.958  1.00  0.00    -0.157 C  
HETATM   33  O   UNL     1     -10.164   8.970  69.075  1.00  0.00    -0.194 OA 
HETATM   34  O   UNL     1      -9.294   6.554  68.784  1.00  0.00    -0.131 OA 
HETATM   35 CL   UNL     1     -11.242   6.910  70.931  1.00  0.00    -0.311 Cl 
HETATM   36  P   UNL     1      -8.609   5.939  71.500  1.00  0.00    -0.132 P  
HETATM   37 CL   UNL     1      -9.449   8.874  72.047  1.00  0.00    -0.336 Cl 
HETATM   38  O   UNL     1      -7.640   6.865  72.474  1.00  0.00    -0.090 OA 
HETATM   39  O   UNL     1      -7.492   6.111  70.283  1.00  0.00    -0.085 OA 
HETATM   40  O   UNL     1      -7.859   4.665  71.958  1.00  0.00    -0.094 OA 
ENDBRANCH  27  30
ENDBRANCH  26  27
ENDBRANCH  25  26
ENDBRANCH  18  25
ENDBRANCH  11  16
BRANCH  14  41
HETATM   41  S   UNL     1     -10.381  17.851  66.125  1.00  0.00    -0.283 SA 
BRANCH  41  42
HETATM   42  C   UNL     1      -8.687  18.286  66.646  1.00  0.00    -0.277 C  
BRANCH  42  43
HETATM   43  C   UNL     1      -7.732  17.226  66.112  1.00  0.00    -0.317 C  
HETATM   44  C   UNL     1      -7.023  16.487  67.226  1.00  0.00    -0.173 C  
HETATM   45  F   UNL     1      -7.223  15.153  67.112  1.00  0.00    -0.212 F  
HETATM   46  F   UNL     1      -7.438  16.857  68.453  1.00  0.00    -0.173 F  
HETATM   47  F   UNL     1      -5.689  16.694  67.164  1.00  0.00    -0.142 F  
ENDBRANCH  42  43
ENDBRANCH  41  42
ENDBRANCH  14  41
ENDBRANCH   5   7
ENDBRANCH   4   5
ENDBRANCH   3   4
ENDBRANCH   2   3
TORSDOF 12
ENDMDL
MODEL       29
REMARK 921   NORMALIZED FREE ENERGY PREDICTED BY IDOCK:   -6.51 KCAL/MOL
REMARK 922        TOTAL FREE ENERGY PREDICTED BY IDOCK:  -12.09 KCAL/MOL
REMARK 923 INTER-LIGAND FREE ENERGY PREDICTED BY IDOCK:  -12.36 KCAL/MOL
REMARK 924 INTRA-LIGAND FREE ENERGY PREDICTED BY IDOCK:    0.27 KCAL/MOL
REMARK 927      BINDING AFFINITY PREDICTED BY RF-SCORE:    0.00 PKD
ROOT
HETATM    1  C   UNL     1      -9.910  20.590  67.675  1.00  0.00    -0.343 C  
HETATM    2  S   UNL     1      -8.454  19.524  67.588  1.00  0.00    -0.318 SA 
ENDROOT
BRANCH   2   3
HETATM    3  C   UNL     1      -8.902  18.517  66.123  1.00  0.00    -0.111 C  
BRANCH   3   4
HETATM    4  C   UNL     1     -10.430  18.376  65.963  1.00  0.00    -0.374 C  
BRANCH   4   5
HETATM    5  N   UNL     1     -10.783  17.033  65.537  1.00  0.00    -0.482 NA 
HETATM    6  H   UNL     1     -11.220  16.893  64.626  1.00  0.00     0.000 HD 
BRANCH   5   7
HETATM    7  C   UNL     1     -10.533  15.941  66.349  1.00  0.00    -0.308 A  
HETATM    8  C   UNL     1     -10.458  14.651  65.801  1.00  0.00    -0.325 A  
HETATM    9  N   UNL     1     -10.550  14.194  64.501  1.00  0.00    -0.362 NA 
HETATM   10  C   UNL     1     -10.316  12.894  64.581  1.00  0.00    -0.344 A  
HETATM   11  N   UNL     1     -10.107  12.487  65.882  1.00  0.00    -0.252 NA 
HETATM   12  C   UNL     1     -10.193  13.600  66.668  1.00  0.00    -0.276 A  
HETATM   13  N   UNL     1     -10.360  16.070  67.697  1.00  0.00    -0.277 NA 
HETATM   14  C   UNL     1     -10.152  14.959  68.432  1.00  0.00    -0.225 A  
HETATM   15  N   UNL     1     -10.038  13.684  67.990  1.00  0.00    -0.243 NA 
BRANCH  11  16
HETATM   16  C   UNL     1      -9.668  11.160  66.253  1.00  0.00    -0.211 C  
HETATM   17  O   UNL     1     -10.771  10.499  66.884  1.00  0.00    -0.253 OA 
HETATM   18  C   UNL     1     -10.560  10.455  68.305  1.00  0.00    -0.212 C  
HETATM   19  H   UNL     1      -7.105   9.561  67.561  1.00  0.00     0.000 HD 
HETATM   20  O   UNL     1      -7.836   9.685  66.968  1.00  0.00    -0.098 OA 
HETATM   21  C   UNL     1      -9.127  10.897  68.583  1.00  0.00    -0.175 C  
HETATM   22  H   UNL     1      -7.594  10.213  69.609  1.00  0.00     0.000 HD 
HETATM   23  C   UNL     1      -8.485  10.959  67.213  1.00  0.00    -0.125 C  
HETATM   24  O   UNL     1      -8.486   9.938  69.435  1.00  0.00    -0.137 OA 
BRANCH  18  25
HETATM   25  C   UNL     1     -11.570  11.321  69.060  1.00  0.00    -0.319 C  
BRANCH  25  26
HETATM   26  O   UNL     1     -12.594  10.437  69.517  1.00  0.00    -0.120 OA 
BRANCH  26  27
HETATM   27  P   UNL     1     -12.582  10.133  71.092  1.00  0.00    -0.440 P  
HETATM   28  O   UNL     1     -12.855  11.639  71.609  1.00  0.00    -0.395 OA 
HETATM   29  O   UNL     1     -13.596   9.145  71.588  1.00  0.00    -0.373 OA 
BRANCH  27  30
HETATM   30  O   UNL     1     -11.036   9.704  71.402  1.00  0.00    -0.360 OA 
HETATM   31  P   UNL     1     -10.735   8.020  71.654  1.00  0.00    -0.259 P  
HETATM   32  C   UNL     1     -10.418   6.237  71.920  1.00  0.00    -0.209 C  
HETATM   33  O   UNL     1     -11.302   8.216  73.192  1.00  0.00    -0.247 OA 
HETATM   34  O   UNL     1     -11.937   7.619  70.759  1.00  0.00    -0.264 OA 
HETATM   35 CL   UNL     1     -11.866   5.355  72.602  1.00  0.00    -0.243 Cl 
HETATM   36  P   UNL     1     -10.159   5.416  70.304  1.00  0.00    -0.284 P  
HETATM   37 CL   UNL     1      -9.126   6.066  73.155  1.00  0.00    -0.131 Cl 
HETATM   38  O   UNL     1      -8.522   5.441  70.560  1.00  0.00    -0.117 OA 
HETATM   39  O   UNL     1     -10.027   6.882  69.535  1.00  0.00    -0.161 OA 
HETATM   40  O   UNL     1      -9.940   4.721  68.938  1.00  0.00    -0.171 OA 
ENDBRANCH  27  30
ENDBRANCH  26  27
ENDBRANCH  25  26
ENDBRANCH  18  25
ENDBRANCH  11  16
BRANCH  14  41
HETATM   41  S   UNL     1     -10.014  15.131  70.198  1.00  0.00     0.207 SA 
BRANCH  41  42
HETATM   42  C   UNL     1     -11.684  15.746  70.601  1.00  0.00    -0.385 C  
BRANCH  42  43
HETATM   43  C   UNL     1     -12.021  15.327  72.026  1.00  0.00    -0.488 C  
HETATM   44  C   UNL     1     -13.506  15.405  72.306  1.00  0.00    -0.472 C  
HETATM   45  F   UNL     1     -13.968  14.211  72.746  1.00  0.00    -0.541 F  
HETATM   46  F   UNL     1     -14.230  15.747  71.222  1.00  0.00    -0.486 F  
HETATM   47  F   UNL     1     -13.765  16.311  73.274  1.00  0.00    -0.651 F  
ENDBRANCH  42  43
ENDBRANCH  41  42
ENDBRANCH  14  41
ENDBRANCH   5   7
ENDBRANCH   4   5
ENDBRANCH   3   4
ENDBRANCH   2   3
TORSDOF 12
ENDMDL
MODEL       30
REMARK 921   NORMALIZED FREE ENERGY PREDICTED BY IDOCK:   -6.51 KCAL/MOL
REMARK 922        TOTAL FREE ENERGY PREDICTED BY IDOCK:  -12.08 KCAL/MOL
REMARK 923 INTER-LIGAND FREE ENERGY PREDICTED BY IDOCK:  -11.86 KCAL/MOL
REMARK 924 INTRA-LIGAND FREE ENERGY PREDICTED BY IDOCK:   -0.22 KCAL/MOL
REMARK 927      BINDING AFFINITY PREDICTED BY RF-SCORE:    0.00 PKD
ROOT
HETATM    1  C   UNL     1      -9.619   2.576  69.400  1.00  0.00     0.028 C  
HETATM    2  S   UNL     1      -8.884   4.225  69.476  1.00  0.00    -0.099 SA 
ENDROOT
BRANCH   2   3
HETATM    3  C   UNL     1     -10.120   5.154  68.492  1.00  0.00    -0.144 C  
BRANCH   3   4
HETATM    4  C   UNL     1     -11.097   5.945  69.388  1.00  0.00    -0.299 C  
BRANCH   4   5
HETATM    5  N   UNL     1     -10.442   7.106  69.965  1.00  0.00    -0.215 NA 
HETATM    6  H   UNL     1      -9.676   6.975  70.625  1.00  0.00     0.000 HD 
BRANCH   5   7
HETATM    7  C   UNL     1     -10.844   8.388  69.633  1.00  0.00    -0.148 A  
HETATM    8  C   UNL     1     -10.537   8.924  68.372  1.00  0.00    -0.143 A  
HETATM    9  N   UNL     1      -9.893   8.387  67.274  1.00  0.00    -0.184 NA 
HETATM   10  C   UNL     1      -9.972   9.325  66.343  1.00  0.00    -0.286 A  
HETATM   11  N   UNL     1     -10.613  10.456  66.805  1.00  0.00    -0.230 NA 
HETATM   12  C   UNL     1     -10.979  10.209  68.097  1.00  0.00    -0.259 A  
HETATM   13  N   UNL     1     -11.538   9.174  70.506  1.00  0.00    -0.238 NA 
HETATM   14  C   UNL     1     -11.870  10.426  70.127  1.00  0.00    -0.297 A  
HETATM   15  N   UNL     1     -11.641  11.015  68.929  1.00  0.00    -0.289 NA 
BRANCH  11  16
HETATM   16  C   UNL     1     -10.988  11.572  65.964  1.00  0.00    -0.259 C  
HETATM   17  O   UNL     1      -9.801  12.329  65.694  1.00  0.00    -0.250 OA 
HETATM   18  C   UNL     1      -9.804  13.530  66.484  1.00  0.00    -0.291 C  
HETATM   19  H   UNL     1     -13.326  13.860  65.605  1.00  0.00     0.000 HD 
HETATM   20  O   UNL     1     -12.689  13.220  65.310  1.00  0.00    -0.563 OA 
HETATM   21  C   UNL     1     -11.183  13.675  67.118  1.00  0.00    -0.309 C  
HETATM   22  H   UNL     1     -12.549  15.084  67.264  1.00  0.00     0.000 HD 
HETATM   23  C   UNL     1     -12.018  12.608  66.440  1.00  0.00    -0.357 C  
HETATM   24  O   UNL     1     -11.690  14.993  66.869  1.00  0.00    -0.300 OA 
BRANCH  18  25
HETATM   25  C   UNL     1      -8.699  13.522  67.542  1.00  0.00    -0.208 C  
BRANCH  25  26
HETATM   26  O   UNL     1      -8.466  14.887  67.889  1.00  0.00    -0.143 OA 
BRANCH  26  27
HETATM   27  P   UNL     1      -6.986  15.215  68.416  1.00  0.00    -0.127 P  
HETATM   28  O   UNL     1      -6.908  14.083  69.568  1.00  0.00    -0.112 OA 
HETATM   29  O   UNL     1      -5.881  15.109  67.408  1.00  0.00    -0.336 OA 
BRANCH  27  30
HETATM   30  O   UNL     1      -7.124  16.695  69.093  1.00  0.00    -0.213 OA 
HETATM   31  P   UNL     1      -7.352  18.023  68.008  1.00  0.00    -0.246 P  
HETATM   32  C   UNL     1      -7.593  19.428  66.860  1.00  0.00    -0.243 C  
HETATM   33  O   UNL     1      -5.727  17.980  67.719  1.00  0.00    -0.150 OA 
HETATM   34  O   UNL     1      -8.040  17.113  66.956  1.00  0.00    -0.182 OA 
HETATM   35 CL   UNL     1      -6.849  19.134  65.216  1.00  0.00    -0.241 Cl 
HETATM   36  P   UNL     1      -9.375  19.605  66.479  1.00  0.00    -0.418 P  
HETATM   37 CL   UNL     1      -6.738  20.860  67.524  1.00  0.00    -0.398 Cl 
HETATM   38  O   UNL     1      -9.475  20.858  67.559  1.00  0.00    -0.366 OA 
HETATM   39  O   UNL     1      -9.781  18.561  67.705  1.00  0.00    -0.284 OA 
HETATM   40  O   UNL     1     -10.882  19.756  66.158  1.00  0.00    -0.420 OA 
ENDBRANCH  27  30
ENDBRANCH  26  27
ENDBRANCH  25  26
ENDBRANCH  18  25
ENDBRANCH  11  16
BRANCH  14  41
HETATM   41  S   UNL     1     -12.699  11.471  71.305  1.00  0.00    -0.297 SA 
BRANCH  41  42
HETATM   42  C   UNL     1     -12.771  13.033  70.365  1.00  0.00     0.024 C  
BRANCH  42  43
HETATM   43  C   UNL     1     -12.164  14.139  71.219  1.00  0.00    -0.419 C  
HETATM   44  C   UNL     1     -13.147  14.675  72.237  1.00  0.00    -0.364 C  
HETATM   45  F   UNL     1     -12.631  14.588  73.486  1.00  0.00    -0.532 F  
HETATM   46  F   UNL     1     -14.322  14.017  72.235  1.00  0.00    -0.538 F  
HETATM   47  F   UNL     1     -13.409  15.981  72.008  1.00  0.00    -0.513 F  
ENDBRANCH  42  43
ENDBRANCH  41  42
ENDBRANCH  14  41
ENDBRANCH   5   7
ENDBRANCH   4   5
ENDBRANCH   3   4
ENDBRANCH   2   3
TORSDOF 12
ENDMDL
MODEL       31
REMARK 921   NORMALIZED FREE ENERGY PREDICTED BY IDOCK:   -6.45 KCAL/MOL
REMARK 922        TOTAL FREE ENERGY PREDICTED BY IDOCK:  -11.98 KCAL/MOL
REMARK 923 INTER-LIGAND FREE ENERGY PREDICTED BY IDOCK:  -11.77 KCAL/MOL
REMARK 924 INTRA-LIGAND FREE ENERGY PREDICTED BY IDOCK:   -0.21 KCAL/MOL
REMARK 927      BINDING AFFINITY PREDICTED BY RF-SCORE:    0.00 PKD
ROOT
HETATM    1  C   UNL     1     -14.125  14.929  71.388  1.00  0.00    -0.467 C  
HETATM    2  S   UNL     1     -13.145  14.613  72.873  1.00  0.00    -0.514 SA 
ENDROOT
BRANCH   2   3
HETATM    3  C   UNL     1     -11.838  15.877  72.649  1.00  0.00    -0.493 C  
BRANCH   3   4
HETATM    4  C   UNL     1     -11.542  16.146  71.158  1.00  0.00    -0.404 C  
BRANCH   4   5
HETATM    5  N   UNL     1     -10.431  15.331  70.697  1.00  0.00    -0.486 NA 
HETATM    6  H   UNL     1      -9.775  14.946  71.376  1.00  0.00     0.000 HD 
BRANCH   5   7
HETATM    7  C   UNL     1     -10.252  15.070  69.350  1.00  0.00    -0.223 A  
HETATM    8  C   UNL     1     -10.892  13.976  68.748  1.00  0.00    -0.263 A  
HETATM    9  N   UNL     1     -11.776  13.037  69.244  1.00  0.00    -0.304 NA 
HETATM   10  C   UNL     1     -12.111  12.301  68.196  1.00  0.00    -0.013 A  
HETATM   11  N   UNL     1     -11.459  12.707  67.051  1.00  0.00    -0.326 NA 
HETATM   12  C   UNL     1     -10.680  13.776  67.392  1.00  0.00    -0.275 A  
HETATM   13  N   UNL     1      -9.451  15.849  68.566  1.00  0.00    -0.203 NA 
HETATM   14  C   UNL     1      -9.296  15.516  67.268  1.00  0.00    -0.212 A  
HETATM   15  N   UNL     1      -9.892  14.501  66.597  1.00  0.00    -0.263 NA 
BRANCH  11  16
HETATM   16  C   UNL     1     -11.752  12.196  65.729  1.00  0.00    -0.327 C  
HETATM   17  O   UNL     1     -11.328  10.828  65.689  1.00  0.00     0.241 OA 
HETATM   18  C   UNL     1     -10.103  10.724  64.944  1.00  0.00    -0.322 C  
HETATM   19  H   UNL     1     -11.598  13.029  62.549  1.00  0.00     0.000 HD 
HETATM   20  O   UNL     1     -11.981  12.632  63.322  1.00  0.00    -0.516 OA 
HETATM   21  C   UNL     1      -9.850  12.063  64.261  1.00  0.00    -0.169 C  
HETATM   22  H   UNL     1      -9.424  12.683  62.443  1.00  0.00     0.000 HD 
HETATM   23  C   UNL     1     -11.132  12.840  64.479  1.00  0.00    -0.330 C  
HETATM   24  O   UNL     1      -9.582  11.848  62.869  1.00  0.00    -0.367 OA 
BRANCH  18  25
HETATM   25  C   UNL     1      -8.926  10.318  65.833  1.00  0.00    -0.158 C  
BRANCH  25  26
HETATM   26  O   UNL     1      -9.448  10.188  67.156  1.00  0.00    -0.154 OA 
BRANCH  26  27
HETATM   27  P   UNL     1      -8.459  10.654  68.330  1.00  0.00    -0.146 P  
HETATM   28  O   UNL     1      -7.235   9.653  67.998  1.00  0.00    -0.079 OA 
HETATM   29  O   UNL     1      -8.056  12.099  68.327  1.00  0.00    -0.153 OA 
BRANCH  27  30
HETATM   30  O   UNL     1      -9.216  10.182  69.699  1.00  0.00    -0.214 OA 
HETATM   31  P   UNL     1      -9.868   8.580  69.708  1.00  0.00    -0.195 P  
HETATM   32  C   UNL     1     -10.558   6.885  69.718  1.00  0.00    -0.233 C  
HETATM   33  O   UNL     1     -11.150   9.168  68.849  1.00  0.00    -0.047 OA 
HETATM   34  O   UNL     1      -8.808   8.086  68.689  1.00  0.00    -0.134 OA 
HETATM   35 CL   UNL     1     -11.033   6.305  68.050  1.00  0.00    -0.409 Cl 
HETATM   36  P   UNL     1      -9.255   5.698  70.212  1.00  0.00    -0.156 P  
HETATM   37 CL   UNL     1     -12.079   6.894  70.672  1.00  0.00    -0.407 Cl 
HETATM   38  O   UNL     1      -9.891   5.645  71.741  1.00  0.00    -0.163 OA 
HETATM   39  O   UNL     1      -8.261   6.935  70.704  1.00  0.00    -0.117 OA 
HETATM   40  O   UNL     1      -8.153   4.695  70.630  1.00  0.00    -0.079 OA 
ENDBRANCH  27  30
ENDBRANCH  26  27
ENDBRANCH  25  26
ENDBRANCH  18  25
ENDBRANCH  11  16
BRANCH  14  41
HETATM   41  S   UNL     1      -8.183  16.488  66.277  1.00  0.00    -0.255 SA 
BRANCH  41  42
HETATM   42  C   UNL     1      -8.046  17.987  67.308  1.00  0.00    -0.210 C  
BRANCH  42  43
HETATM   43  C   UNL     1      -8.694  19.146  66.561  1.00  0.00    -0.348 C  
HETATM   44  C   UNL     1      -9.896  19.697  67.296  1.00  0.00    -0.371 C  
HETATM   45  F   UNL     1      -9.751  21.025  67.514  1.00  0.00    -0.589 F  
HETATM   46  F   UNL     1     -10.099  19.109  68.491  1.00  0.00    -0.394 F  
HETATM   47  F   UNL     1     -11.020  19.536  66.564  1.00  0.00    -0.522 F  
ENDBRANCH  42  43
ENDBRANCH  41  42
ENDBRANCH  14  41
ENDBRANCH   5   7
ENDBRANCH   4   5
ENDBRANCH   3   4
ENDBRANCH   2   3
TORSDOF 12
ENDMDL
MODEL       32
REMARK 921   NORMALIZED FREE ENERGY PREDICTED BY IDOCK:   -6.43 KCAL/MOL
REMARK 922        TOTAL FREE ENERGY PREDICTED BY IDOCK:  -11.94 KCAL/MOL
REMARK 923 INTER-LIGAND FREE ENERGY PREDICTED BY IDOCK:  -11.08 KCAL/MOL
REMARK 924 INTRA-LIGAND FREE ENERGY PREDICTED BY IDOCK:   -0.87 KCAL/MOL
REMARK 927      BINDING AFFINITY PREDICTED BY RF-SCORE:    0.00 PKD
ROOT
HETATM    1  C   UNL     1      -8.996  19.173  68.930  1.00  0.00    -0.287 C  
HETATM    2  S   UNL     1      -8.148  20.244  67.748  1.00  0.00    -0.176 SA 
ENDROOT
BRANCH   2   3
HETATM    3  C   UNL     1      -9.142  19.888  66.249  1.00  0.00    -0.360 C  
BRANCH   3   4
HETATM    4  C   UNL     1     -10.384  19.030  66.569  1.00  0.00    -0.439 C  
BRANCH   4   5
HETATM    5  N   UNL     1     -10.542  17.967  65.591  1.00  0.00    -0.587 NA 
HETATM    6  H   UNL     1     -10.970  18.173  64.689  1.00  0.00     0.000 HD 
BRANCH   5   7
HETATM    7  C   UNL     1     -10.120  16.678  65.868  1.00  0.00    -0.320 A  
HETATM    8  C   UNL     1     -10.855  15.576  65.404  1.00  0.00    -0.390 A  
HETATM    9  N   UNL     1     -11.994  15.488  64.626  1.00  0.00    -0.193 NA 
HETATM   10  C   UNL     1     -12.177  14.190  64.440  1.00  0.00    -0.439 A  
HETATM   11  N   UNL     1     -11.221  13.436  65.089  1.00  0.00    -0.299 NA 
HETATM   12  C   UNL     1     -10.373  14.311  65.705  1.00  0.00    -0.327 A  
HETATM   13  N   UNL     1      -8.994  16.430  66.599  1.00  0.00    -0.235 NA 
HETATM   14  C   UNL     1      -8.661  15.149  66.857  1.00  0.00    -0.257 A  
HETATM   15  N   UNL     1      -9.290  14.028  66.431  1.00  0.00    -0.256 NA 
BRANCH  11  16
HETATM   16  C   UNL     1     -11.074  12.006  64.928  1.00  0.00    -0.316 C  
HETATM   17  O   UNL     1     -11.900  11.372  65.912  1.00  0.00    -0.140 OA 
HETATM   18  C   UNL     1     -11.079  10.863  66.976  1.00  0.00    -0.202 C  
HETATM   19  H   UNL     1      -8.797   9.692  64.387  1.00  0.00     0.000 HD 
HETATM   20  O   UNL     1      -9.646  10.108  64.298  1.00  0.00    -0.291 OA 
HETATM   21  C   UNL     1      -9.622  10.961  66.538  1.00  0.00    -0.194 C  
HETATM   22  H   UNL     1      -8.066   9.758  66.465  1.00  0.00     0.000 HD 
HETATM   23  C   UNL     1      -9.700  11.333  65.072  1.00  0.00    -0.251 C  
HETATM   24  O   UNL     1      -8.974   9.697  66.738  1.00  0.00    -0.136 OA 
BRANCH  18  25
HETATM   25  C   UNL     1     -11.319  11.608  68.291  1.00  0.00    -0.285 C  
BRANCH  25  26
HETATM   26  O   UNL     1     -12.374  10.915  68.958  1.00  0.00    -0.464 OA 
BRANCH  26  27
HETATM   27  P   UNL     1     -12.180  10.735  70.541  1.00  0.00    -0.411 P  
HETATM   28  O   UNL     1     -12.261  12.296  70.951  1.00  0.00    -0.353 OA 
HETATM   29  O   UNL     1     -13.196   9.886  71.245  1.00  0.00    -0.377 OA 
BRANCH  27  30
HETATM   30  O   UNL     1     -10.646  10.194  70.693  1.00  0.00    -0.272 OA 
HETATM   31  P   UNL     1     -10.448   8.502  70.992  1.00  0.00    -0.244 P  
HETATM   32  C   UNL     1     -10.241   6.711  71.307  1.00  0.00    -0.200 C  
HETATM   33  O   UNL     1     -10.814   8.805  72.572  1.00  0.00    -0.257 OA 
HETATM   34  O   UNL     1     -11.775   8.166  70.260  1.00  0.00    -0.089 OA 
HETATM   35 CL   UNL     1     -11.663   5.979  72.193  1.00  0.00    -0.359 Cl 
HETATM   36  P   UNL     1     -10.238   5.807  69.715  1.00  0.00    -0.289 P  
HETATM   37 CL   UNL     1      -8.830   6.484  72.394  1.00  0.00    -0.133 Cl 
HETATM   38  O   UNL     1      -8.585   5.707  69.781  1.00  0.00    -0.118 OA 
HETATM   39  O   UNL     1     -10.084   7.226  68.865  1.00  0.00    -0.170 OA 
HETATM   40  O   UNL     1     -10.234   5.043  68.368  1.00  0.00    -0.146 OA 
ENDBRANCH  27  30
ENDBRANCH  26  27
ENDBRANCH  25  26
ENDBRANCH  18  25
ENDBRANCH  11  16
BRANCH  14  41
HETATM   41  S   UNL     1      -7.239  14.839  67.883  1.00  0.00    -0.174 SA 
BRANCH  41  42
HETATM   42  C   UNL     1      -7.627  13.161  68.485  1.00  0.00    -0.122 C  
BRANCH  42  43
HETATM   43  C   UNL     1      -6.318  12.440  68.779  1.00  0.00    -0.078 C  
HETATM   44  C   UNL     1      -6.542  11.106  69.456  1.00  0.00    -0.126 C  
HETATM   45  F   UNL     1      -5.951  10.112  68.751  1.00  0.00    -0.041 F  
HETATM   46  F   UNL     1      -7.846  10.792  69.585  1.00  0.00    -0.145 F  
HETATM   47  F   UNL     1      -5.994  11.096  70.691  1.00  0.00    -0.129 F  
ENDBRANCH  42  43
ENDBRANCH  41  42
ENDBRANCH  14  41
ENDBRANCH   5   7
ENDBRANCH   4   5
ENDBRANCH   3   4
ENDBRANCH   2   3
TORSDOF 12
ENDMDL
MODEL       33
REMARK 921   NORMALIZED FREE ENERGY PREDICTED BY IDOCK:   -6.41 KCAL/MOL
REMARK 922        TOTAL FREE ENERGY PREDICTED BY IDOCK:  -11.91 KCAL/MOL
REMARK 923 INTER-LIGAND FREE ENERGY PREDICTED BY IDOCK:  -11.04 KCAL/MOL
REMARK 924 INTRA-LIGAND FREE ENERGY PREDICTED BY IDOCK:   -0.87 KCAL/MOL
REMARK 927      BINDING AFFINITY PREDICTED BY RF-SCORE:    0.00 PKD
ROOT
HETATM    1  C   UNL     1      -7.148  18.424  66.640  1.00  0.00    -0.210 C  
HETATM    2  S   UNL     1      -8.324  19.788  66.778  1.00  0.00    -0.335 SA 
ENDROOT
BRANCH   2   3
HETATM    3  C   UNL     1      -8.654  19.725  68.579  1.00  0.00    -0.224 C  
BRANCH   3   4
HETATM    4  C   UNL     1      -9.904  18.883  68.910  1.00  0.00    -0.390 C  
BRANCH   4   5
HETATM    5  N   UNL     1      -9.531  17.525  69.268  1.00  0.00     0.006 NA 
HETATM    6  H   UNL     1      -8.599  17.341  69.639  1.00  0.00     0.000 HD 
BRANCH   5   7
HETATM    7  C   UNL     1     -10.422  16.478  69.112  1.00  0.00    -0.317 A  
HETATM    8  C   UNL     1     -10.695  15.963  67.835  1.00  0.00    -0.312 A  
HETATM    9  N   UNL     1     -10.193  16.278  66.587  1.00  0.00    -0.276 NA 
HETATM   10  C   UNL     1     -10.755  15.404  65.766  1.00  0.00    -0.351 A  
HETATM   11  N   UNL     1     -11.621  14.559  66.427  1.00  0.00    -0.365 NA 
HETATM   12  C   UNL     1     -11.588  14.905  67.747  1.00  0.00    -0.339 A  
HETATM   13  N   UNL     1     -11.067  15.916  70.175  1.00  0.00    -0.336 NA 
HETATM   14  C   UNL     1     -11.947  14.920  69.945  1.00  0.00    -0.330 A  
HETATM   15  N   UNL     1     -12.252  14.343  68.759  1.00  0.00    -0.229 NA 
BRANCH  11  16
HETATM   16  C   UNL     1     -12.246  13.405  65.818  1.00  0.00    -0.458 C  
HETATM   17  O   UNL     1     -11.927  12.264  66.623  1.00  0.00    -0.598 OA 
HETATM   18  C   UNL     1     -10.920  11.476  65.967  1.00  0.00    -0.259 C  
HETATM   19  H   UNL     1     -12.792  12.013  62.886  1.00  0.00     0.000 HD 
HETATM   20  O   UNL     1     -13.007  12.272  63.774  1.00  0.00    -0.766 OA 
HETATM   21  C   UNL     1     -10.753  12.009  64.548  1.00  0.00    -0.312 C  
HETATM   22  H   UNL     1     -10.729  11.254  62.731  1.00  0.00     0.000 HD 
HETATM   23  C   UNL     1     -11.900  12.985  64.381  1.00  0.00    -0.386 C  
HETATM   24  O   UNL     1     -10.833  10.922  63.615  1.00  0.00    -0.237 OA 
BRANCH  18  25
HETATM   25  C   UNL     1      -9.594  11.493  66.730  1.00  0.00    -0.186 C  
BRANCH  25  26
HETATM   26  O   UNL     1      -9.123  10.144  66.747  1.00  0.00    -0.138 OA 
BRANCH  26  27
HETATM   27  P   UNL     1      -9.025   9.474  68.201  1.00  0.00    -0.121 P  
HETATM   28  O   UNL     1      -8.761  10.824  69.049  1.00  0.00    -0.161 OA 
HETATM   29  O   UNL     1     -10.230   8.711  68.666  1.00  0.00    -0.187 OA 
BRANCH  27  30
HETATM   30  O   UNL     1      -7.661   8.577  68.133  1.00  0.00    -0.095 OA 
HETATM   31  P   UNL     1      -7.854   6.902  67.747  1.00  0.00    -0.115 P  
HETATM   32  C   UNL     1      -8.059   5.130  67.338  1.00  0.00    -0.100 C  
HETATM   33  O   UNL     1      -8.292   6.658  69.320  1.00  0.00    -0.122 OA 
HETATM   34  O   UNL     1      -9.148   7.185  66.939  1.00  0.00    -0.130 OA 
HETATM   35 CL   UNL     1      -9.679   4.466  67.864  1.00  0.00    -0.206 Cl 
HETATM   36  P   UNL     1      -8.100   4.925  65.520  1.00  0.00    -0.120 P  
HETATM   37 CL   UNL     1      -6.835   4.189  68.254  1.00  0.00    -0.047 Cl 
HETATM   38  O   UNL     1      -6.519   4.429  65.546  1.00  0.00    -0.038 OA 
HETATM   39  O   UNL     1      -7.573   6.483  65.292  1.00  0.00    -0.077 OA 
HETATM   40  O   UNL     1      -8.134   4.750  63.982  1.00  0.00    -0.096 OA 
ENDBRANCH  27  30
ENDBRANCH  26  27
ENDBRANCH  25  26
ENDBRANCH  18  25
ENDBRANCH  11  16
BRANCH  14  41
HETATM   41  S   UNL     1     -12.846  14.254  71.330  1.00  0.00    -0.372 SA 
BRANCH  41  42
HETATM   42  C   UNL     1     -13.130  12.548  70.748  1.00  0.00     0.252 C  
BRANCH  42  43
HETATM   43  C   UNL     1     -13.037  11.609  71.944  1.00  0.00    -0.490 C  
HETATM   44  C   UNL     1     -12.896  10.163  71.522  1.00  0.00    -0.443 C  
HETATM   45  F   UNL     1     -11.790   9.613  72.078  1.00  0.00    -0.437 F  
HETATM   46  F   UNL     1     -12.799  10.009  70.187  1.00  0.00    -0.206 F  
HETATM   47  F   UNL     1     -13.954   9.435  71.943  1.00  0.00    -0.383 F  
ENDBRANCH  42  43
ENDBRANCH  41  42
ENDBRANCH  14  41
ENDBRANCH   5   7
ENDBRANCH   4   5
ENDBRANCH   3   4
ENDBRANCH   2   3
TORSDOF 12
ENDMDL
MODEL       34
REMARK 921   NORMALIZED FREE ENERGY PREDICTED BY IDOCK:   -6.40 KCAL/MOL
REMARK 922        TOTAL FREE ENERGY PREDICTED BY IDOCK:  -11.89 KCAL/MOL
REMARK 923 INTER-LIGAND FREE ENERGY PREDICTED BY IDOCK:  -11.32 KCAL/MOL
REMARK 924 INTRA-LIGAND FREE ENERGY PREDICTED BY IDOCK:   -0.58 KCAL/MOL
REMARK 927      BINDING AFFINITY PREDICTED BY RF-SCORE:    0.00 PKD
ROOT
HETATM    1  C   UNL     1     -10.722   3.477  62.674  1.00  0.00    -0.179 C  
HETATM    2  S   UNL     1      -9.491   3.030  63.918  1.00  0.00    -0.130 SA 
ENDROOT
BRANCH   2   3
HETATM    3  C   UNL     1      -9.489   4.571  64.910  1.00  0.00    -0.138 C  
BRANCH   3   4
HETATM    4  C   UNL     1     -10.128   4.366  66.300  1.00  0.00    -0.225 C  
BRANCH   4   5
HETATM    5  N   UNL     1     -10.987   5.486  66.643  1.00  0.00    -0.564 NA 
HETATM    6  H   UNL     1     -11.783   5.710  66.047  1.00  0.00     0.000 HD 
BRANCH   5   7
HETATM    7  C   UNL     1     -10.741   6.253  67.769  1.00  0.00    -0.306 A  
HETATM    8  C   UNL     1      -9.777   7.273  67.735  1.00  0.00    -0.140 A  
HETATM    9  N   UNL     1      -8.972   7.748  66.718  1.00  0.00    -0.133 NA 
HETATM   10  C   UNL     1      -8.328   8.776  67.248  1.00  0.00    -0.104 A  
HETATM   11  N   UNL     1      -8.662   8.965  68.573  1.00  0.00    -0.133 NA 
HETATM   12  C   UNL     1      -9.587   8.013  68.892  1.00  0.00    -0.152 A  
HETATM   13  N   UNL     1     -11.409   6.047  68.941  1.00  0.00    -0.194 NA 
HETATM   14  C   UNL     1     -11.094   6.811  70.007  1.00  0.00    -0.315 A  
HETATM   15  N   UNL     1     -10.204   7.831  70.061  1.00  0.00    -0.206 NA 
BRANCH  11  16
HETATM   16  C   UNL     1      -8.242  10.107  69.356  1.00  0.00    -0.166 C  
HETATM   17  O   UNL     1      -9.150  11.180  69.079  1.00  0.00    -0.134 OA 
HETATM   18  C   UNL     1      -8.517  12.136  68.213  1.00  0.00    -0.176 C  
HETATM   19  H   UNL     1      -5.544  11.747  70.286  1.00  0.00     0.000 HD 
HETATM   20  O   UNL     1      -6.409  11.370  70.397  1.00  0.00    -0.257 OA 
HETATM   21  C   UNL     1      -7.036  11.783  68.120  1.00  0.00    -0.079 C  
HETATM   22  H   UNL     1      -5.325  12.731  68.327  1.00  0.00     0.000 HD 
HETATM   23  C   UNL     1      -6.842  10.716  69.178  1.00  0.00    -0.079 C  
HETATM   24  O   UNL     1      -6.247  12.951  68.384  1.00  0.00    -0.068 OA 
BRANCH  18  25
HETATM   25  C   UNL     1      -9.170  12.176  66.830  1.00  0.00    -0.203 C  
BRANCH  25  26
HETATM   26  O   UNL     1     -10.528  12.567  67.039  1.00  0.00    -0.229 OA 
BRANCH  26  27
HETATM   27  P   UNL     1     -10.883  14.067  66.595  1.00  0.00    -0.304 P  
HETATM   28  O   UNL     1      -9.747  14.234  65.457  1.00  0.00    -0.266 OA 
HETATM   29  O   UNL     1     -12.272  14.299  66.079  1.00  0.00    -0.421 OA 
BRANCH  27  30
HETATM   30  O   UNL     1     -10.504  14.969  67.903  1.00  0.00    -0.243 OA 
HETATM   31  P   UNL     1      -9.511  16.358  67.625  1.00  0.00    -0.227 P  
HETATM   32  C   UNL     1      -8.461  17.827  67.329  1.00  0.00    -0.231 C  
HETATM   33  O   UNL     1      -8.213  15.339  67.581  1.00  0.00    -0.143 OA 
HETATM   34  O   UNL     1     -10.038  16.507  66.173  1.00  0.00    -0.312 OA 
HETATM   35 CL   UNL     1      -7.356  17.629  65.886  1.00  0.00    -0.289 Cl 
HETATM   36  P   UNL     1      -9.515  19.244  66.849  1.00  0.00    -0.366 P  
HETATM   37 CL   UNL     1      -7.371  18.042  68.740  1.00  0.00    -0.279 Cl 
HETATM   38  O   UNL     1      -9.402  19.843  68.390  1.00  0.00    -0.322 OA 
HETATM   39  O   UNL     1     -10.888  18.427  67.304  1.00  0.00    -0.389 OA 
HETATM   40  O   UNL     1     -10.407  20.443  66.444  1.00  0.00    -0.356 OA 
ENDBRANCH  27  30
ENDBRANCH  26  27
ENDBRANCH  25  26
ENDBRANCH  18  25
ENDBRANCH  11  16
BRANCH  14  41
HETATM   41  S   UNL     1     -11.910   6.477  71.553  1.00  0.00    -0.313 SA 
BRANCH  41  42
HETATM   42  C   UNL     1     -13.128   7.836  71.584  1.00  0.00    -0.345 C  
BRANCH  42  43
HETATM   43  C   UNL     1     -12.492   9.037  72.271  1.00  0.00    -0.427 C  
HETATM   44  C   UNL     1     -12.779  10.329  71.538  1.00  0.00    -0.452 C  
HETATM   45  F   UNL     1     -13.357  11.228  72.371  1.00  0.00    -0.565 F  
HETATM   46  F   UNL     1     -13.600  10.167  70.483  1.00  0.00    -0.386 F  
HETATM   47  F   UNL     1     -11.635  10.888  71.085  1.00  0.00    -0.367 F  
ENDBRANCH  42  43
ENDBRANCH  41  42
ENDBRANCH  14  41
ENDBRANCH   5   7
ENDBRANCH   4   5
ENDBRANCH   3   4
ENDBRANCH   2   3
TORSDOF 12
ENDMDL
MODEL       35
REMARK 921   NORMALIZED FREE ENERGY PREDICTED BY IDOCK:   -6.36 KCAL/MOL
REMARK 922        TOTAL FREE ENERGY PREDICTED BY IDOCK:  -11.83 KCAL/MOL
REMARK 923 INTER-LIGAND FREE ENERGY PREDICTED BY IDOCK:  -12.05 KCAL/MOL
REMARK 924 INTRA-LIGAND FREE ENERGY PREDICTED BY IDOCK:    0.22 KCAL/MOL
REMARK 927      BINDING AFFINITY PREDICTED BY RF-SCORE:    0.00 PKD
ROOT
HETATM    1  C   UNL     1      -6.474  20.075  65.509  1.00  0.00    -0.251 C  
HETATM    2  S   UNL     1      -6.532  19.007  66.966  1.00  0.00    -0.194 SA 
ENDROOT
BRANCH   2   3
HETATM    3  C   UNL     1      -8.309  19.167  67.389  1.00  0.00    -0.281 C  
BRANCH   3   4
HETATM    4  C   UNL     1      -8.794  18.013  68.292  1.00  0.00    -0.286 C  
BRANCH   4   5
HETATM    5  N   UNL     1     -10.232  17.840  68.179  1.00  0.00    -0.361 NA 
HETATM    6  H   UNL     1     -10.833  18.661  68.106  1.00  0.00     0.000 HD 
BRANCH   5   7
HETATM    7  C   UNL     1     -10.798  16.577  68.170  1.00  0.00    -0.345 A  
HETATM    8  C   UNL     1     -10.870  15.841  66.978  1.00  0.00    -0.273 A  
HETATM    9  N   UNL     1     -10.425  16.110  65.698  1.00  0.00    -0.374 NA 
HETATM   10  C   UNL     1     -10.695  15.014  65.007  1.00  0.00    -0.427 A  
HETATM   11  N   UNL     1     -11.324  14.060  65.779  1.00  0.00    -0.307 NA 
HETATM   12  C   UNL     1     -11.438  14.576  67.038  1.00  0.00    -0.370 A  
HETATM   13  N   UNL     1     -11.307  16.008  69.301  1.00  0.00    -0.347 NA 
HETATM   14  C   UNL     1     -11.873  14.787  69.213  1.00  0.00    -0.318 A  
HETATM   15  N   UNL     1     -11.964  13.995  68.118  1.00  0.00    -0.365 NA 
BRANCH  11  16
HETATM   16  C   UNL     1     -11.588  12.708  65.338  1.00  0.00    -0.363 C  
HETATM   17  O   UNL     1     -11.761  11.897  66.506  1.00  0.00    -0.537 OA 
HETATM   18  C   UNL     1     -10.586  11.097  66.717  1.00  0.00    -0.263 C  
HETATM   19  H   UNL     1     -10.605  10.479  63.125  1.00  0.00     0.000 HD 
HETATM   20  O   UNL     1     -11.235  10.949  63.658  1.00  0.00     0.047 OA 
HETATM   21  C   UNL     1      -9.701  11.221  65.481  1.00  0.00    -0.229 C  
HETATM   22  H   UNL     1      -8.778   9.990  64.255  1.00  0.00     0.000 HD 
HETATM   23  C   UNL     1     -10.570  11.946  64.474  1.00  0.00    -0.311 C  
HETATM   24  O   UNL     1      -9.329   9.913  65.025  1.00  0.00    -0.225 OA 
BRANCH  18  25
HETATM   25  C   UNL     1      -9.835  11.507  67.985  1.00  0.00    -0.188 C  
BRANCH  25  26
HETATM   26  O   UNL     1      -8.884  10.473  68.240  1.00  0.00    -0.130 OA 
BRANCH  26  27
HETATM   27  P   UNL     1      -9.468   9.175  68.983  1.00  0.00    -0.157 P  
HETATM   28  O   UNL     1      -9.561   9.797  70.472  1.00  0.00    -0.239 OA 
HETATM   29  O   UNL     1     -10.781   8.653  68.479  1.00  0.00    -0.158 OA 
BRANCH  27  30
HETATM   30  O   UNL     1      -8.250   8.089  68.902  1.00  0.00    -0.122 OA 
HETATM   31  P   UNL     1      -8.470   6.759  67.820  1.00  0.00    -0.121 P  
HETATM   32  C   UNL     1      -8.703   5.352  66.673  1.00  0.00    -0.115 C  
HETATM   33  O   UNL     1      -9.415   6.058  68.977  1.00  0.00    -0.126 OA 
HETATM   34  O   UNL     1      -9.398   7.595  66.899  1.00  0.00    -0.145 OA 
HETATM   35 CL   UNL     1     -10.463   4.914  66.438  1.00  0.00    -0.333 Cl 
HETATM   36  P   UNL     1      -8.172   5.841  64.991  1.00  0.00    -0.116 P  
HETATM   37 CL   UNL     1      -7.940   3.896  67.395  1.00  0.00    -0.090 Cl 
HETATM   38  O   UNL     1      -6.741   5.035  65.214  1.00  0.00    -0.046 OA 
HETATM   39  O   UNL     1      -7.450   7.217  65.576  1.00  0.00    -0.076 OA 
HETATM   40  O   UNL     1      -7.722   6.254  63.568  1.00  0.00    -0.093 OA 
ENDBRANCH  27  30
ENDBRANCH  26  27
ENDBRANCH  25  26
ENDBRANCH  18  25
ENDBRANCH  11  16
BRANCH  14  41
HETATM   41  S   UNL     1     -12.611  14.092  70.676  1.00  0.00    -0.342 SA 
BRANCH  41  42
HETATM   42  C   UNL     1     -13.565  15.527  71.276  1.00  0.00    -0.439 C  
BRANCH  42  43
HETATM   43  C   UNL     1     -13.695  15.419  72.790  1.00  0.00    -0.613 C  
HETATM   44  C   UNL     1     -12.497  16.000  73.508  1.00  0.00    -0.571 C  
HETATM   45  F   UNL     1     -12.887  16.951  74.390  1.00  0.00    -0.262 F  
HETATM   46  F   UNL     1     -11.603  16.564  72.672  1.00  0.00    -0.565 F  
HETATM   47  F   UNL     1     -11.851  15.045  74.214  1.00  0.00    -0.628 F  
ENDBRANCH  42  43
ENDBRANCH  41  42
ENDBRANCH  14  41
ENDBRANCH   5   7
ENDBRANCH   4   5
ENDBRANCH   3   4
ENDBRANCH   2   3
TORSDOF 12
ENDMDL
MODEL       36
REMARK 921   NORMALIZED FREE ENERGY PREDICTED BY IDOCK:   -6.29 KCAL/MOL
REMARK 922        TOTAL FREE ENERGY PREDICTED BY IDOCK:  -11.71 KCAL/MOL
REMARK 923 INTER-LIGAND FREE ENERGY PREDICTED BY IDOCK:  -11.17 KCAL/MOL
REMARK 924 INTRA-LIGAND FREE ENERGY PREDICTED BY IDOCK:   -0.54 KCAL/MOL
REMARK 927      BINDING AFFINITY PREDICTED BY RF-SCORE:    0.00 PKD
ROOT
HETATM    1  C   UNL     1     -12.411  15.380  74.124  1.00  0.00    -0.642 C  
HETATM    2  S   UNL     1     -13.191  14.458  72.780  1.00  0.00    -0.503 SA 
ENDROOT
BRANCH   2   3
HETATM    3  C   UNL     1     -13.003  15.678  71.426  1.00  0.00    -0.487 C  
BRANCH   3   4
HETATM    4  C   UNL     1     -12.738  14.997  70.066  1.00  0.00    -0.160 C  
BRANCH   4   5
HETATM    5  N   UNL     1     -11.476  14.277  70.088  1.00  0.00    -0.423 NA 
HETATM    6  H   UNL     1     -11.105  13.940  70.975  1.00  0.00     0.000 HD 
BRANCH   5   7
HETATM    7  C   UNL     1     -10.771  14.043  68.920  1.00  0.00    -0.248 A  
HETATM    8  C   UNL     1     -10.669  12.743  68.401  1.00  0.00    -0.250 A  
HETATM    9  N   UNL     1     -11.201  11.538  68.820  1.00  0.00    -0.226 NA 
HETATM   10  C   UNL     1     -10.839  10.667  67.891  1.00  0.00    -0.277 A  
HETATM   11  N   UNL     1     -10.071  11.253  66.907  1.00  0.00    -0.207 NA 
HETATM   12  C   UNL     1      -9.959  12.577  67.221  1.00  0.00    -0.211 A  
HETATM   13  N   UNL     1     -10.149  15.050  68.240  1.00  0.00    -0.219 NA 
HETATM   14  C   UNL     1      -9.452  14.743  67.126  1.00  0.00    -0.227 A  
HETATM   15  N   UNL     1      -9.322  13.530  66.539  1.00  0.00    -0.245 NA 
BRANCH  11  16
HETATM   16  C   UNL     1      -9.675  10.584  65.686  1.00  0.00    -0.234 C  
HETATM   17  O   UNL     1     -10.221   9.260  65.721  1.00  0.00    -0.187 OA 
HETATM   18  C   UNL     1      -9.180   8.316  66.020  1.00  0.00    -0.166 C  
HETATM   19  H   UNL     1      -7.093  10.182  63.686  1.00  0.00     0.000 HD 
HETATM   20  O   UNL     1      -8.010  10.301  63.901  1.00  0.00    -0.155 OA 
HETATM   21  C   UNL     1      -7.843   9.044  65.936  1.00  0.00    -0.102 C  
HETATM   22  H   UNL     1      -6.111   8.755  65.048  1.00  0.00     0.000 HD 
HETATM   23  C   UNL     1      -8.191  10.392  65.337  1.00  0.00    -0.159 C  
HETATM   24  O   UNL     1      -6.944   8.302  65.101  1.00  0.00    -0.071 OA 
BRANCH  18  25
HETATM   25  C   UNL     1      -9.376   7.663  67.390  1.00  0.00    -0.141 C  
BRANCH  25  26
HETATM   26  O   UNL     1      -8.393   6.632  67.487  1.00  0.00    -0.120 OA 
BRANCH  26  27
HETATM   27  P   UNL     1      -8.956   5.188  67.902  1.00  0.00    -0.114 P  
HETATM   28  O   UNL     1      -9.440   4.710  66.436  1.00  0.00    -0.141 OA 
HETATM   29  O   UNL     1      -7.975   4.247  68.536  1.00  0.00    -0.073 OA 
BRANCH  27  30
HETATM   30  O   UNL     1     -10.252   5.522  68.840  1.00  0.00    -0.183 OA 
HETATM   31  P   UNL     1      -9.979   5.575  70.547  1.00  0.00    -0.246 P  
HETATM   32  C   UNL     1      -9.689   5.631  72.353  1.00  0.00    -0.156 C  
HETATM   33  O   UNL     1     -10.035   3.925  70.541  1.00  0.00    -0.165 OA 
HETATM   34  O   UNL     1      -8.498   5.994  70.349  1.00  0.00    -0.128 OA 
HETATM   35 CL   UNL     1      -8.310   4.553  72.882  1.00  0.00    -0.102 Cl 
HETATM   36  P   UNL     1      -9.110   7.302  72.826  1.00  0.00    -0.155 P  
HETATM   37 CL   UNL     1     -11.146   4.990  73.184  1.00  0.00    -0.366 Cl 
HETATM   38  O   UNL     1     -10.635   7.673  73.360  1.00  0.00    -0.368 OA 
HETATM   39  O   UNL     1      -9.521   7.910  71.336  1.00  0.00    -0.146 OA 
HETATM   40  O   UNL     1      -8.622   8.716  73.226  1.00  0.00    -0.375 OA 
ENDBRANCH  27  30
ENDBRANCH  26  27
ENDBRANCH  25  26
ENDBRANCH  18  25
ENDBRANCH  11  16
BRANCH  14  41
HETATM   41  S   UNL     1      -8.575  16.050  66.296  1.00  0.00    -0.275 SA 
BRANCH  41  42
HETATM   42  C   UNL     1      -8.819  17.416  67.481  1.00  0.00    -0.224 C  
BRANCH  42  43
HETATM   43  C   UNL     1      -8.870  18.725  66.704  1.00  0.00    -0.315 C  
HETATM   44  C   UNL     1     -10.265  19.309  66.665  1.00  0.00    -0.421 C  
HETATM   45  F   UNL     1     -10.262  20.576  67.145  1.00  0.00    -0.561 F  
HETATM   46  F   UNL     1     -11.155  18.602  67.388  1.00  0.00    -0.460 F  
HETATM   47  F   UNL     1     -10.724  19.369  65.395  1.00  0.00    -0.536 F  
ENDBRANCH  42  43
ENDBRANCH  41  42
ENDBRANCH  14  41
ENDBRANCH   5   7
ENDBRANCH   4   5
ENDBRANCH   3   4
ENDBRANCH   2   3
TORSDOF 12
ENDMDL
MODEL       37
REMARK 921   NORMALIZED FREE ENERGY PREDICTED BY IDOCK:   -6.28 KCAL/MOL
REMARK 922        TOTAL FREE ENERGY PREDICTED BY IDOCK:  -11.70 KCAL/MOL
REMARK 923 INTER-LIGAND FREE ENERGY PREDICTED BY IDOCK:  -10.97 KCAL/MOL
REMARK 924 INTRA-LIGAND FREE ENERGY PREDICTED BY IDOCK:   -0.73 KCAL/MOL
REMARK 927      BINDING AFFINITY PREDICTED BY RF-SCORE:    0.00 PKD
ROOT
HETATM    1  C   UNL     1     -12.335  16.427  74.162  1.00  0.00    -0.466 C  
HETATM    2  S   UNL     1     -12.518  14.884  73.240  1.00  0.00    -0.417 SA 
ENDROOT
BRANCH   2   3
HETATM    3  C   UNL     1     -13.991  15.305  72.233  1.00  0.00    -0.546 C  
BRANCH   3   4
HETATM    4  C   UNL     1     -13.656  15.400  70.729  1.00  0.00    -0.199 C  
BRANCH   4   5
HETATM    5  N   UNL     1     -12.225  15.547  70.528  1.00  0.00    -0.379 NA 
HETATM    6  H   UNL     1     -11.664  16.025  71.233  1.00  0.00     0.000 HD 
BRANCH   5   7
HETATM    7  C   UNL     1     -11.611  15.047  69.393  1.00  0.00    -0.315 A  
HETATM    8  C   UNL     1     -11.602  13.666  69.140  1.00  0.00    -0.309 A  
HETATM    9  N   UNL     1     -12.157  12.600  69.822  1.00  0.00    -0.272 NA 
HETATM   10  C   UNL     1     -11.898  11.544  69.068  1.00  0.00    -0.343 A  
HETATM   11  N   UNL     1     -11.173  11.879  67.943  1.00  0.00    -0.243 NA 
HETATM   12  C   UNL     1     -10.982  13.230  67.979  1.00  0.00    -0.244 A  
HETATM   13  N   UNL     1     -10.993  15.862  68.489  1.00  0.00    -0.306 NA 
HETATM   14  C   UNL     1     -10.387  15.303  67.421  1.00  0.00    -0.256 A  
HETATM   15  N   UNL     1     -10.351  13.992  67.084  1.00  0.00    -0.264 NA 
BRANCH  11  16
HETATM   16  C   UNL     1     -10.890  10.961  66.861  1.00  0.00    -0.249 C  
HETATM   17  O   UNL     1     -10.990   9.631  67.384  1.00  0.00    -0.247 OA 
HETATM   18  C   UNL     1      -9.674   9.084  67.565  1.00  0.00    -0.161 C  
HETATM   19  H   UNL     1      -8.847  10.521  64.319  1.00  0.00     0.000 HD 
HETATM   20  O   UNL     1      -9.681  10.498  64.773  1.00  0.00    -0.251 OA 
HETATM   21  C   UNL     1      -8.675  10.022  66.896  1.00  0.00    -0.128 C  
HETATM   22  H   UNL     1      -7.193   9.853  65.613  1.00  0.00     0.000 HD 
HETATM   23  C   UNL     1      -9.541  10.998  66.126  1.00  0.00    -0.207 C  
HETATM   24  O   UNL     1      -7.815   9.269  66.030  1.00  0.00    -0.100 OA 
BRANCH  18  25
HETATM   25  C   UNL     1      -9.340   8.874  69.043  1.00  0.00    -0.144 C  
BRANCH  25  26
HETATM   26  O   UNL     1     -10.460   8.197  69.615  1.00  0.00    -0.219 OA 
BRANCH  26  27
HETATM   27  P   UNL     1     -10.101   7.116  70.745  1.00  0.00    -0.188 P  
HETATM   28  O   UNL     1     -10.107   8.116  72.015  1.00  0.00    -0.198 OA 
HETATM   29  O   UNL     1     -11.053   5.967  70.895  1.00  0.00    -0.291 OA 
BRANCH  27  30
HETATM   30  O   UNL     1      -8.571   6.665  70.393  1.00  0.00    -0.139 OA 
HETATM   31  P   UNL     1      -8.386   5.226  69.452  1.00  0.00    -0.095 P  
HETATM   32  C   UNL     1      -8.192   3.703  68.456  1.00  0.00    -0.073 C  
HETATM   33  O   UNL     1      -8.636   4.366  70.839  1.00  0.00    -0.089 OA 
HETATM   34  O   UNL     1      -9.766   5.431  68.773  1.00  0.00    -0.126 OA 
HETATM   35 CL   UNL     1      -9.563   2.518  68.699  1.00  0.00    -0.178 Cl 
HETATM   36  P   UNL     1      -8.316   4.117  66.677  1.00  0.00    -0.101 P  
HETATM   37 CL   UNL     1      -6.714   2.845  69.009  1.00  0.00    -0.036 Cl 
HETATM   38  O   UNL     1      -6.665   4.053  66.553  1.00  0.00    -0.048 OA 
HETATM   39  O   UNL     1      -8.194   5.740  67.006  1.00  0.00    -0.102 OA 
HETATM   40  O   UNL     1      -8.420   4.467  65.172  1.00  0.00    -0.118 OA 
ENDBRANCH  27  30
ENDBRANCH  26  27
ENDBRANCH  25  26
ENDBRANCH  18  25
ENDBRANCH  11  16
BRANCH  14  41
HETATM   41  S   UNL     1      -9.511  16.368  66.297  1.00  0.00    -0.334 SA 
BRANCH  41  42
HETATM   42  C   UNL     1      -9.053  17.730  67.422  1.00  0.00    -0.244 C  
BRANCH  42  43
HETATM   43  C   UNL     1      -9.013  19.025  66.621  1.00  0.00    -0.337 C  
HETATM   44  C   UNL     1     -10.357  19.717  66.590  1.00  0.00    -0.496 C  
HETATM   45  F   UNL     1     -10.247  20.988  67.046  1.00  0.00    -0.459 F  
HETATM   46  F   UNL     1     -11.289  19.096  67.339  1.00  0.00    -0.473 F  
HETATM   47  F   UNL     1     -10.830  19.790  65.326  1.00  0.00    -0.576 F  
ENDBRANCH  42  43
ENDBRANCH  41  42
ENDBRANCH  14  41
ENDBRANCH   5   7
ENDBRANCH   4   5
ENDBRANCH   3   4
ENDBRANCH   2   3
TORSDOF 12
ENDMDL
MODEL       38
REMARK 921   NORMALIZED FREE ENERGY PREDICTED BY IDOCK:   -6.23 KCAL/MOL
REMARK 922        TOTAL FREE ENERGY PREDICTED BY IDOCK:  -11.61 KCAL/MOL
REMARK 923 INTER-LIGAND FREE ENERGY PREDICTED BY IDOCK:   -9.74 KCAL/MOL
REMARK 924 INTRA-LIGAND FREE ENERGY PREDICTED BY IDOCK:   -1.87 KCAL/MOL
REMARK 927      BINDING AFFINITY PREDICTED BY RF-SCORE:    0.00 PKD
ROOT
HETATM    1  C   UNL     1     -11.899  12.078  63.622  1.00  0.00    -0.506 C  
HETATM    2  S   UNL     1     -10.176  11.618  63.331  1.00  0.00    -0.436 SA 
ENDROOT
BRANCH   2   3
HETATM    3  C   UNL     1     -10.005  10.279  64.571  1.00  0.00    -0.289 C  
BRANCH   3   4
HETATM    4  C   UNL     1      -8.644   9.559  64.462  1.00  0.00    -0.187 C  
BRANCH   4   5
HETATM    5  N   UNL     1      -8.701   8.251  65.091  1.00  0.00    -0.365 NA 
HETATM    6  H   UNL     1      -8.858   7.423  64.517  1.00  0.00     0.000 HD 
BRANCH   5   7
HETATM    7  C   UNL     1      -8.546   8.112  66.459  1.00  0.00    -0.138 A  
HETATM    8  C   UNL     1      -9.549   7.501  67.229  1.00  0.00    -0.156 A  
HETATM    9  N   UNL     1     -10.753   6.919  66.881  1.00  0.00    -0.331 NA 
HETATM   10  C   UNL     1     -11.234   6.433  68.014  1.00  0.00    -0.155 A  
HETATM   11  N   UNL     1     -10.406   6.703  69.083  1.00  0.00    -0.182 NA 
HETATM   12  C   UNL     1      -9.327   7.382  68.593  1.00  0.00    -0.139 A  
HETATM   13  N   UNL     1      -7.433   8.563  67.108  1.00  0.00    -0.084 NA 
HETATM   14  C   UNL     1      -7.364   8.423  68.448  1.00  0.00    -0.094 A  
HETATM   15  N   UNL     1      -8.264   7.826  69.265  1.00  0.00    -0.127 NA 
BRANCH  11  16
HETATM   16  C   UNL     1     -10.593   6.154  70.409  1.00  0.00    -0.257 C  
HETATM   17  O   UNL     1     -11.923   6.482  70.830  1.00  0.00    -0.378 OA 
HETATM   18  C   UNL     1     -11.876   7.550  71.790  1.00  0.00    -0.294 C  
HETATM   19  H   UNL     1      -9.054   5.804  73.297  1.00  0.00     0.000 HD 
HETATM   20  O   UNL     1      -9.611   5.537  72.576  1.00  0.00    -0.149 OA 
HETATM   21  C   UNL     1     -10.420   7.761  72.192  1.00  0.00    -0.231 C  
HETATM   22  H   UNL     1      -9.407   7.901  73.873  1.00  0.00     0.000 HD 
HETATM   23  C   UNL     1      -9.691   6.585  71.576  1.00  0.00    -0.168 C  
HETATM   24  O   UNL     1     -10.314   7.770  73.623  1.00  0.00    -0.275 OA 
BRANCH  18  25
HETATM   25  C   UNL     1     -12.497   8.837  71.245  1.00  0.00    -0.260 C  
BRANCH  25  26
HETATM   26  O   UNL     1     -11.411   9.719  70.960  1.00  0.00    -0.329 OA 
BRANCH  26  27
HETATM   27  P   UNL     1     -11.827  11.137  70.334  1.00  0.00    -0.299 P  
HETATM   28  O   UNL     1     -12.888  10.593  69.243  1.00  0.00    -0.103 OA 
HETATM   29  O   UNL     1     -12.417  12.137  71.284  1.00  0.00    -0.304 OA 
BRANCH  27  30
HETATM   30  O   UNL     1     -10.469  11.655  69.587  1.00  0.00     0.094 OA 
HETATM   31  P   UNL     1     -10.660  12.932  68.436  1.00  0.00    -0.245 P  
HETATM   32  C   UNL     1     -10.862  14.283  67.218  1.00  0.00    -0.284 C  
HETATM   33  O   UNL     1     -11.175  11.793  67.357  1.00  0.00    -0.258 OA 
HETATM   34  O   UNL     1     -11.911  13.479  69.172  1.00  0.00    -0.300 OA 
HETATM   35 CL   UNL     1     -12.512  14.284  66.430  1.00  0.00    -0.402 Cl 
HETATM   36  P   UNL     1     -10.818  15.896  68.083  1.00  0.00    -0.334 P  
HETATM   37 CL   UNL     1      -9.692  14.024  65.881  1.00  0.00    -0.285 Cl 
HETATM   38  O   UNL     1      -9.244  16.103  67.605  1.00  0.00    -0.203 OA 
HETATM   39  O   UNL     1     -10.265  15.178  69.475  1.00  0.00    -0.236 OA 
HETATM   40  O   UNL     1     -10.779  17.260  68.814  1.00  0.00    -0.325 OA 
ENDBRANCH  27  30
ENDBRANCH  26  27
ENDBRANCH  25  26
ENDBRANCH  18  25
ENDBRANCH  11  16
BRANCH  14  41
HETATM   41  S   UNL     1      -5.948   9.093  69.292  1.00  0.00    -0.038 SA 
BRANCH  41  42
HETATM   42  C   UNL     1      -6.532  10.789  69.622  1.00  0.00    -0.103 C  
BRANCH  42  43
HETATM   43  C   UNL     1      -5.792  11.743  68.694  1.00  0.00    -0.049 C  
HETATM   44  C   UNL     1      -6.603  12.084  67.463  1.00  0.00    -0.123 C  
HETATM   45  F   UNL     1      -6.745  13.425  67.346  1.00  0.00    -0.157 F  
HETATM   46  F   UNL     1      -7.837  11.544  67.478  1.00  0.00    -0.112 F  
HETATM   47  F   UNL     1      -5.980  11.652  66.344  1.00  0.00    -0.145 F  
ENDBRANCH  42  43
ENDBRANCH  41  42
ENDBRANCH  14  41
ENDBRANCH   5   7
ENDBRANCH   4   5
ENDBRANCH   3   4
ENDBRANCH   2   3
TORSDOF 12
ENDMDL
MODEL       39
REMARK 921   NORMALIZED FREE ENERGY PREDICTED BY IDOCK:   -6.16 KCAL/MOL
REMARK 922        TOTAL FREE ENERGY PREDICTED BY IDOCK:  -11.49 KCAL/MOL
REMARK 923 INTER-LIGAND FREE ENERGY PREDICTED BY IDOCK:  -10.02 KCAL/MOL
REMARK 924 INTRA-LIGAND FREE ENERGY PREDICTED BY IDOCK:   -1.46 KCAL/MOL
REMARK 927      BINDING AFFINITY PREDICTED BY RF-SCORE:    0.00 PKD
ROOT
HETATM    1  C   UNL     1     -14.060  13.685  72.370  1.00  0.00    -0.484 C  
HETATM    2  S   UNL     1     -13.173  15.184  72.852  1.00  0.00    -0.525 SA 
ENDROOT
BRANCH   2   3
HETATM    3  C   UNL     1     -12.545  15.706  71.211  1.00  0.00    -0.463 C  
BRANCH   3   4
HETATM    4  C   UNL     1     -12.835  14.654  70.119  1.00  0.00    -0.135 C  
BRANCH   4   5
HETATM    5  N   UNL     1     -11.608  14.248  69.455  1.00  0.00    -0.284 NA 
HETATM    6  H   UNL     1     -11.010  13.545  69.889  1.00  0.00     0.000 HD 
BRANCH   5   7
HETATM    7  C   UNL     1     -11.238  14.803  68.243  1.00  0.00    -0.286 A  
HETATM    8  C   UNL     1     -10.357  15.895  68.201  1.00  0.00    -0.256 A  
HETATM    9  N   UNL     1      -9.685  16.576  69.198  1.00  0.00    -0.259 NA 
HETATM   10  C   UNL     1      -8.931  17.456  68.557  1.00  0.00    -0.276 A  
HETATM   11  N   UNL     1      -9.111  17.391  67.191  1.00  0.00    -0.232 NA 
HETATM   12  C   UNL     1     -10.016  16.397  66.954  1.00  0.00    -0.271 A  
HETATM   13  N   UNL     1     -11.713  14.324  67.056  1.00  0.00    -0.386 NA 
HETATM   14  C   UNL     1     -11.336  14.934  65.914  1.00  0.00    -0.306 A  
HETATM   15  N   UNL     1     -10.474  15.970  65.776  1.00  0.00    -0.358 NA 
BRANCH  11  16
HETATM   16  C   UNL     1      -8.302  18.115  66.234  1.00  0.00    -0.198 C  
HETATM   17  O   UNL     1      -7.160  17.304  65.932  1.00  0.00    -0.238 OA 
HETATM   18  C   UNL     1      -6.003  17.831  66.600  1.00  0.00    -0.169 C  
HETATM   19  H   UNL     1      -7.163  21.132  65.577  1.00  0.00     0.000 HD 
HETATM   20  O   UNL     1      -7.519  20.276  65.367  1.00  0.00    -0.254 OA 
HETATM   21  C   UNL     1      -6.368  19.197  67.172  1.00  0.00    -0.187 C  
HETATM   22  H   UNL     1      -5.609  21.011  67.135  1.00  0.00     0.000 HD 
HETATM   23  C   UNL     1      -7.726  19.498  66.573  1.00  0.00    -0.281 C  
HETATM   24  O   UNL     1      -5.381  20.161  66.779  1.00  0.00    -0.170 OA 
BRANCH  18  25
HETATM   25  C   UNL     1      -5.492  16.887  67.690  1.00  0.00    -0.132 C  
BRANCH  25  26
HETATM   26  O   UNL     1      -5.489  15.578  67.118  1.00  0.00    -0.320 OA 
BRANCH  26  27
HETATM   27  P   UNL     1      -6.307  14.471  67.943  1.00  0.00    -0.124 P  
HETATM   28  O   UNL     1      -6.435  15.282  69.334  1.00  0.00    -0.122 OA 
HETATM   29  O   UNL     1      -7.633  14.061  67.375  1.00  0.00    -0.178 OA 
BRANCH  27  30
HETATM   30  O   UNL     1      -5.249  13.237  68.108  1.00  0.00    -0.086 OA 
HETATM   31  P   UNL     1      -5.921  11.684  68.468  1.00  0.00    -0.051 P  
HETATM   32  C   UNL     1      -6.633  10.042  68.849  1.00  0.00    -0.049 C  
HETATM   33  O   UNL     1      -6.048  12.177  70.039  1.00  0.00    -0.145 OA 
HETATM   34  O   UNL     1      -7.253  12.038  67.757  1.00  0.00    -0.091 OA 
HETATM   35 CL   UNL     1      -8.209  10.150  69.770  1.00  0.00    -0.182 Cl 
HETATM   36  P   UNL     1      -7.121   9.212  67.293  1.00  0.00    -0.079 P  
HETATM   37 CL   UNL     1      -5.502   9.169  69.937  1.00  0.00    -0.029 Cl 
HETATM   38  O   UNL     1      -5.741   8.297  67.354  1.00  0.00    -0.037 OA 
HETATM   39  O   UNL     1      -6.296  10.335  66.389  1.00  0.00    -0.074 OA 
HETATM   40  O   UNL     1      -7.533   8.510  65.976  1.00  0.00    -0.082 OA 
ENDBRANCH  27  30
ENDBRANCH  26  27
ENDBRANCH  25  26
ENDBRANCH  18  25
ENDBRANCH  11  16
BRANCH  14  41
HETATM   41  S   UNL     1     -12.030  14.356  64.381  1.00  0.00    -0.418 SA 
BRANCH  41  42
HETATM   42  C   UNL     1     -10.949  12.923  64.051  1.00  0.00    -0.411 C  
BRANCH  42  43
HETATM   43  C   UNL     1     -11.503  11.719  64.803  1.00  0.00    -0.281 C  
HETATM   44  C   UNL     1     -10.444  11.033  65.637  1.00  0.00    -0.230 C  
HETATM   45  F   UNL     1     -10.837  10.955  66.931  1.00  0.00    -0.282 F  
HETATM   46  F   UNL     1      -9.257  11.669  65.611  1.00  0.00    -0.219 F  
HETATM   47  F   UNL     1     -10.240   9.768  65.209  1.00  0.00    -0.387 F  
ENDBRANCH  42  43
ENDBRANCH  41  42
ENDBRANCH  14  41
ENDBRANCH   5   7
ENDBRANCH   4   5
ENDBRANCH   3   4
ENDBRANCH   2   3
TORSDOF 12
ENDMDL
MODEL       40
REMARK 921   NORMALIZED FREE ENERGY PREDICTED BY IDOCK:   -6.07 KCAL/MOL
REMARK 922        TOTAL FREE ENERGY PREDICTED BY IDOCK:  -11.35 KCAL/MOL
REMARK 923 INTER-LIGAND FREE ENERGY PREDICTED BY IDOCK:  -10.31 KCAL/MOL
REMARK 924 INTRA-LIGAND FREE ENERGY PREDICTED BY IDOCK:   -1.04 KCAL/MOL
REMARK 927      BINDING AFFINITY PREDICTED BY RF-SCORE:    0.00 PKD
ROOT
HETATM    1  C   UNL     1     -11.154  16.760  64.856  1.00  0.00    -0.054 C  
HETATM    2  S   UNL     1     -10.589  15.051  65.011  1.00  0.00    -0.380 SA 
ENDROOT
BRANCH   2   3
HETATM    3  C   UNL     1     -12.050  14.183  64.324  1.00  0.00    -0.444 C  
BRANCH   3   4
HETATM    4  C   UNL     1     -12.783  13.347  65.395  1.00  0.00    -0.426 C  
BRANCH   4   5
HETATM    5  N   UNL     1     -12.107  12.080  65.612  1.00  0.00    -0.467 NA 
HETATM    6  H   UNL     1     -12.142  11.361  64.890  1.00  0.00     0.000 HD 
BRANCH   5   7
HETATM    7  C   UNL     1     -11.415  11.835  66.785  1.00  0.00    -0.281 A  
HETATM    8  C   UNL     1     -10.057  11.484  66.748  1.00  0.00    -0.215 A  
HETATM    9  N   UNL     1      -9.166  11.354  65.700  1.00  0.00    -0.213 NA 
HETATM   10  C   UNL     1      -8.003  11.086  66.275  1.00  0.00    -0.148 A  
HETATM   11  N   UNL     1      -8.113  11.009  67.647  1.00  0.00    -0.114 NA 
HETATM   12  C   UNL     1      -9.418  11.263  67.960  1.00  0.00    -0.173 A  
HETATM   13  N   UNL     1     -12.018  11.916  68.007  1.00  0.00    -0.553 NA 
HETATM   14  C   UNL     1     -11.291  11.633  69.107  1.00  0.00    -0.283 A  
HETATM   15  N   UNL     1      -9.976  11.313  69.170  1.00  0.00    -0.103 NA 
BRANCH  11  16
HETATM   16  C   UNL     1      -6.983  10.894  68.543  1.00  0.00    -0.072 C  
HETATM   17  O   UNL     1      -6.104   9.898  68.007  1.00  0.00    -0.053 OA 
HETATM   18  C   UNL     1      -6.229   8.685  68.766  1.00  0.00    -0.045 C  
HETATM   19  H   UNL     1      -6.229  10.785  71.745  1.00  0.00     0.000 HD 
HETATM   20  O   UNL     1      -6.108  11.030  70.835  1.00  0.00    -0.353 OA 
HETATM   21  C   UNL     1      -7.056   8.988  70.011  1.00  0.00    -0.055 C  
HETATM   22  H   UNL     1      -6.885   8.691  71.948  1.00  0.00     0.000 HD 
HETATM   23  C   UNL     1      -7.179  10.498  70.015  1.00  0.00    -0.096 C  
HETATM   24  O   UNL     1      -6.370   8.502  71.173  1.00  0.00    -0.036 OA 
BRANCH  18  25
HETATM   25  C   UNL     1      -6.852   7.556  67.942  1.00  0.00    -0.071 C  
BRANCH  25  26
HETATM   26  O   UNL     1      -8.259   7.617  68.178  1.00  0.00    -0.122 OA 
BRANCH  26  27
HETATM   27  P   UNL     1      -9.019   6.204  68.141  1.00  0.00    -0.110 P  
HETATM   28  O   UNL     1      -9.484   6.244  66.594  1.00  0.00    -0.146 OA 
HETATM   29  O   UNL     1      -8.197   4.996  68.479  1.00  0.00    -0.085 OA 
BRANCH  27  30
HETATM   30  O   UNL     1     -10.308   6.421  69.121  1.00  0.00    -0.179 OA 
HETATM   31  P   UNL     1     -10.123   5.922  70.766  1.00  0.00    -0.220 P  
HETATM   32  C   UNL     1      -9.925   5.393  72.507  1.00  0.00    -0.168 C  
HETATM   33  O   UNL     1     -10.394   4.375  70.258  1.00  0.00    -0.094 OA 
HETATM   34  O   UNL     1      -8.591   6.168  70.722  1.00  0.00    -0.132 OA 
HETATM   35 CL   UNL     1      -8.730   4.023  72.700  1.00  0.00    -0.106 Cl 
HETATM   36  P   UNL     1      -9.158   6.746  73.472  1.00  0.00    -0.158 P  
HETATM   37 CL   UNL     1     -11.495   4.745  73.088  1.00  0.00    -0.382 Cl 
HETATM   38  O   UNL     1     -10.647   7.152  74.077  1.00  0.00    -0.317 OA 
HETATM   39  O   UNL     1      -9.405   7.824  72.233  1.00  0.00    -0.139 OA 
HETATM   40  O   UNL     1      -8.510   7.891  74.289  1.00  0.00    -0.239 OA 
ENDBRANCH  27  30
ENDBRANCH  26  27
ENDBRANCH  25  26
ENDBRANCH  18  25
ENDBRANCH  11  16
BRANCH  14  41
HETATM   41  S   UNL     1     -12.109  11.658  70.687  1.00  0.00    -0.247 SA 
BRANCH  41  42
HETATM   42  C   UNL     1     -12.285  13.457  70.938  1.00  0.00    -0.282 C  
BRANCH  42  43
HETATM   43  C   UNL     1     -13.203  13.690  72.131  1.00  0.00    -0.541 C  
HETATM   44  C   UNL     1     -12.801  14.910  72.929  1.00  0.00    -0.452 C  
HETATM   45  F   UNL     1     -13.842  15.770  73.037  1.00  0.00    -0.597 F  
HETATM   46  F   UNL     1     -11.771  15.584  72.381  1.00  0.00    -0.416 F  
HETATM   47  F   UNL     1     -12.442  14.564  74.186  1.00  0.00    -0.540 F  
ENDBRANCH  42  43
ENDBRANCH  41  42
ENDBRANCH  14  41
ENDBRANCH   5   7
ENDBRANCH   4   5
ENDBRANCH   3   4
ENDBRANCH   2   3
TORSDOF 12
ENDMDL
MODEL       41
REMARK 921   NORMALIZED FREE ENERGY PREDICTED BY IDOCK:   -6.06 KCAL/MOL
REMARK 922        TOTAL FREE ENERGY PREDICTED BY IDOCK:  -11.32 KCAL/MOL
REMARK 923 INTER-LIGAND FREE ENERGY PREDICTED BY IDOCK:  -11.27 KCAL/MOL
REMARK 924 INTRA-LIGAND FREE ENERGY PREDICTED BY IDOCK:   -0.06 KCAL/MOL
REMARK 927      BINDING AFFINITY PREDICTED BY RF-SCORE:    0.00 PKD
ROOT
HETATM    1  C   UNL     1      -9.296  20.542  67.285  1.00  0.00    -0.389 C  
HETATM    2  S   UNL     1     -10.227  19.762  68.623  1.00  0.00    -0.291 SA 
ENDROOT
BRANCH   2   3
HETATM    3  C   UNL     1     -10.571  18.137  67.848  1.00  0.00    -0.371 C  
BRANCH   3   4
HETATM    4  C   UNL     1     -10.778  18.256  66.323  1.00  0.00    -0.155 C  
BRANCH   4   5
HETATM    5  N   UNL     1      -9.793  17.465  65.605  1.00  0.00    -0.543 NA 
HETATM    6  H   UNL     1      -9.308  17.872  64.806  1.00  0.00     0.000 HD 
BRANCH   5   7
HETATM    7  C   UNL     1      -9.504  16.168  65.992  1.00  0.00    -0.339 A  
HETATM    8  C   UNL     1     -10.305  15.102  65.552  1.00  0.00    -0.375 A  
HETATM    9  N   UNL     1     -11.398  15.055  64.709  1.00  0.00    -0.412 NA 
HETATM   10  C   UNL     1     -11.683  13.768  64.595  1.00  0.00    -0.395 A  
HETATM   11  N   UNL     1     -10.838  12.984  65.353  1.00  0.00    -0.280 NA 
HETATM   12  C   UNL     1      -9.954  13.825  65.965  1.00  0.00    -0.306 A  
HETATM   13  N   UNL     1      -8.450  15.878  66.808  1.00  0.00    -0.235 NA 
HETATM   14  C   UNL     1      -8.246  14.594  67.170  1.00  0.00    -0.201 A  
HETATM   15  N   UNL     1      -8.945  13.503  66.777  1.00  0.00    -0.213 NA 
BRANCH  11  16
HETATM   16  C   UNL     1     -10.808  11.538  65.294  1.00  0.00    -0.259 C  
HETATM   17  O   UNL     1     -11.747  11.046  66.258  1.00  0.00     0.001 OA 
HETATM   18  C   UNL     1     -11.043  10.545  67.406  1.00  0.00    -0.252 C  
HETATM   19  H   UNL     1      -8.715   9.009  65.060  1.00  0.00     0.000 HD 
HETATM   20  O   UNL     1      -9.517   9.488  64.887  1.00  0.00    -0.259 OA 
HETATM   21  C   UNL     1      -9.558  10.490  67.064  1.00  0.00    -0.173 C  
HETATM   22  H   UNL     1      -8.114   9.158  67.175  1.00  0.00     0.000 HD 
HETATM   23  C   UNL     1      -9.510  10.764  65.575  1.00  0.00    -0.210 C  
HETATM   24  O   UNL     1      -9.039   9.193  67.389  1.00  0.00    -0.126 OA 
BRANCH  18  25
HETATM   25  C   UNL     1     -11.299  11.398  68.650  1.00  0.00    -0.265 C  
BRANCH  25  26
HETATM   26  O   UNL     1     -12.536  10.944  69.201  1.00  0.00    -0.409 OA 
BRANCH  26  27
HETATM   27  P   UNL     1     -12.458  10.423  70.717  1.00  0.00    -0.386 P  
HETATM   28  O   UNL     1     -12.716  11.841  71.450  1.00  0.00    -0.372 OA 
HETATM   29  O   UNL     1     -13.448   9.367  71.111  1.00  0.00    -0.314 OA 
BRANCH  27  30
HETATM   30  O   UNL     1     -10.899   9.970  70.902  1.00  0.00    -0.319 OA 
HETATM   31  P   UNL     1     -10.613   8.294  71.217  1.00  0.00    -0.244 P  
HETATM   32  C   UNL     1     -10.311   6.520  71.550  1.00  0.00    -0.211 C  
HETATM   33  O   UNL     1     -11.026   8.586  72.789  1.00  0.00    -0.251 OA 
HETATM   34  O   UNL     1     -11.904   7.879  70.464  1.00  0.00    -0.176 OA 
HETATM   35 CL   UNL     1     -11.706   5.714  72.415  1.00  0.00    -0.301 Cl 
HETATM   36  P   UNL     1     -10.226   5.608  69.965  1.00  0.00    -0.301 P  
HETATM   37 CL   UNL     1      -8.911   6.380  72.666  1.00  0.00    -0.126 Cl 
HETATM   38  O   UNL     1      -8.572   5.602  70.063  1.00  0.00    -0.119 OA 
HETATM   39  O   UNL     1     -10.137   7.027  69.108  1.00  0.00    -0.171 OA 
HETATM   40  O   UNL     1     -10.154   4.836  68.625  1.00  0.00    -0.130 OA 
ENDBRANCH  27  30
ENDBRANCH  26  27
ENDBRANCH  25  26
ENDBRANCH  18  25
ENDBRANCH  11  16
BRANCH  14  41
HETATM   41  S   UNL     1      -6.922  14.239  68.304  1.00  0.00    -0.125 SA 
BRANCH  41  42
HETATM   42  C   UNL     1      -7.222  15.518  69.572  1.00  0.00    -0.201 C  
BRANCH  42  43
HETATM   43  C   UNL     1      -5.949  16.337  69.740  1.00  0.00    -0.189 C  
HETATM   44  C   UNL     1      -6.129  17.769  69.286  1.00  0.00    -0.233 C  
HETATM   45  F   UNL     1      -5.805  18.627  70.282  1.00  0.00    -0.233 F  
HETATM   46  F   UNL     1      -7.391  18.047  68.905  1.00  0.00    -0.256 F  
HETATM   47  F   UNL     1      -5.315  18.047  68.243  1.00  0.00    -0.150 F  
ENDBRANCH  42  43
ENDBRANCH  41  42
ENDBRANCH  14  41
ENDBRANCH   5   7
ENDBRANCH   4   5
ENDBRANCH   3   4
ENDBRANCH   2   3
TORSDOF 12
ENDMDL
MODEL       42
REMARK 921   NORMALIZED FREE ENERGY PREDICTED BY IDOCK:   -6.06 KCAL/MOL
REMARK 922        TOTAL FREE ENERGY PREDICTED BY IDOCK:  -11.31 KCAL/MOL
REMARK 923 INTER-LIGAND FREE ENERGY PREDICTED BY IDOCK:   -9.55 KCAL/MOL
REMARK 924 INTRA-LIGAND FREE ENERGY PREDICTED BY IDOCK:   -1.76 KCAL/MOL
REMARK 927      BINDING AFFINITY PREDICTED BY RF-SCORE:    0.00 PKD
ROOT
HETATM    1  C   UNL     1      -8.703   5.602  69.995  1.00  0.00    -0.130 C  
HETATM    2  S   UNL     1      -9.056   6.908  71.193  1.00  0.00    -0.150 SA 
ENDROOT
BRANCH   2   3
HETATM    3  C   UNL     1      -7.496   7.863  71.071  1.00  0.00    -0.073 C  
BRANCH   3   4
HETATM    4  C   UNL     1      -7.744   9.321  70.629  1.00  0.00    -0.151 C  
BRANCH   4   5
HETATM    5  N   UNL     1      -8.803   9.387  69.638  1.00  0.00    -0.158 NA 
HETATM    6  H   UNL     1      -8.863   8.668  68.918  1.00  0.00     0.000 HD 
BRANCH   5   7
HETATM    7  C   UNL     1      -9.732  10.413  69.656  1.00  0.00    -0.124 A  
HETATM    8  C   UNL     1      -9.463  11.625  69.000  1.00  0.00     0.139 A  
HETATM    9  N   UNL     1      -8.390  12.043  68.237  1.00  0.00    -0.159 NA 
HETATM   10  C   UNL     1      -8.729  13.248  67.808  1.00  0.00    -0.194 A  
HETATM   11  N   UNL     1      -9.963  13.638  68.286  1.00  0.00    -0.233 NA 
HETATM   12  C   UNL     1     -10.440  12.609  69.046  1.00  0.00     0.007 A  
HETATM   13  N   UNL     1     -10.925  10.293  70.308  1.00  0.00    -0.303 NA 
HETATM   14  C   UNL     1     -11.768  11.346  70.312  1.00  0.00    -0.306 A  
HETATM   15  N   UNL     1     -11.608  12.537  69.688  1.00  0.00    -0.277 NA 
BRANCH  11  16
HETATM   16  C   UNL     1     -10.658  14.830  67.852  1.00  0.00    -0.248 C  
HETATM   17  O   UNL     1     -11.967  14.435  67.423  1.00  0.00    -0.398 OA 
HETATM   18  C   UNL     1     -12.028  14.445  65.988  1.00  0.00    -0.367 C  
HETATM   19  H   UNL     1     -10.207  17.599  66.131  1.00  0.00     0.000 HD 
HETATM   20  O   UNL     1     -10.546  17.066  66.841  1.00  0.00    -0.295 OA 
HETATM   21  C   UNL     1     -10.763  15.115  65.465  1.00  0.00    -0.365 C  
HETATM   22  H   UNL     1     -10.327  16.554  64.195  1.00  0.00     0.000 HD 
HETATM   23  C   UNL     1     -10.109  15.691  66.704  1.00  0.00    -0.273 C  
HETATM   24  O   UNL     1     -11.115  16.136  64.521  1.00  0.00    -0.634 OA 
BRANCH  18  25
HETATM   25  C   UNL     1     -12.194  13.037  65.412  1.00  0.00    -0.471 C  
BRANCH  25  26
HETATM   26  O   UNL     1     -10.876  12.512  65.250  1.00  0.00    -0.274 OA 
BRANCH  26  27
HETATM   27  P   UNL     1     -10.586  11.820  63.832  1.00  0.00    -0.486 P  
HETATM   28  O   UNL     1     -11.977  12.211  63.108  1.00  0.00    -0.390 OA 
HETATM   29  O   UNL     1      -9.377  12.305  63.088  1.00  0.00    -0.102 OA 
BRANCH  27  30
HETATM   30  O   UNL     1     -10.558  10.221  64.168  1.00  0.00     0.147 OA 
HETATM   31  P   UNL     1      -8.998   9.495  64.343  1.00  0.00    -0.104 P  
HETATM   32  C   UNL     1      -7.347   8.728  64.528  1.00  0.00    -0.102 C  
HETATM   33  O   UNL     1      -8.905   9.453  62.695  1.00  0.00    -0.226 OA 
HETATM   34  O   UNL     1      -8.370  10.834  64.813  1.00  0.00    -0.118 OA 
HETATM   35 CL   UNL     1      -6.058   9.576  63.548  1.00  0.00    -0.092 Cl 
HETATM   36  P   UNL     1      -6.763   8.943  66.250  1.00  0.00    -0.075 P  
HETATM   37 CL   UNL     1      -7.420   7.055  63.879  1.00  0.00    -0.088 Cl 
HETATM   38  O   UNL     1      -7.198   7.380  66.588  1.00  0.00    -0.076 OA 
HETATM   39  O   UNL     1      -8.272   9.434  66.741  1.00  0.00    -0.111 OA 
HETATM   40  O   UNL     1      -6.270   9.125  67.706  1.00  0.00    -0.050 OA 
ENDBRANCH  27  30
ENDBRANCH  26  27
ENDBRANCH  25  26
ENDBRANCH  18  25
ENDBRANCH  11  16
BRANCH  14  41
HETATM   41  S   UNL     1     -13.282  11.208  71.237  1.00  0.00     0.012 SA 
BRANCH  41  42
HETATM   42  C   UNL     1     -13.139  12.670  72.321  1.00  0.00    -0.261 C  
BRANCH  42  43
HETATM   43  C   UNL     1     -14.294  13.614  72.011  1.00  0.00    -0.287 C  
HETATM   44  C   UNL     1     -13.835  15.050  71.880  1.00  0.00    -0.474 C  
HETATM   45  F   UNL     1     -14.209  15.560  70.683  1.00  0.00    -0.298 F  
HETATM   46  F   UNL     1     -12.499  15.189  71.982  1.00  0.00    -0.324 F  
HETATM   47  F   UNL     1     -14.401  15.823  72.834  1.00  0.00    -0.611 F  
ENDBRANCH  42  43
ENDBRANCH  41  42
ENDBRANCH  14  41
ENDBRANCH   5   7
ENDBRANCH   4   5
ENDBRANCH   3   4
ENDBRANCH   2   3
TORSDOF 12
ENDMDL
MODEL       43
REMARK 921   NORMALIZED FREE ENERGY PREDICTED BY IDOCK:   -5.97 KCAL/MOL
REMARK 922        TOTAL FREE ENERGY PREDICTED BY IDOCK:  -11.17 KCAL/MOL
REMARK 923 INTER-LIGAND FREE ENERGY PREDICTED BY IDOCK:  -11.14 KCAL/MOL
REMARK 924 INTRA-LIGAND FREE ENERGY PREDICTED BY IDOCK:   -0.04 KCAL/MOL
REMARK 927      BINDING AFFINITY PREDICTED BY RF-SCORE:    0.00 PKD
ROOT
HETATM    1  C   UNL     1      -9.525   5.298  71.960  1.00  0.00    -0.145 C  
HETATM    2  S   UNL     1      -8.901   6.986  71.802  1.00  0.00    -0.125 SA 
ENDROOT
BRANCH   2   3
HETATM    3  C   UNL     1      -9.118   7.222  69.997  1.00  0.00    -0.148 C  
BRANCH   3   4
HETATM    4  C   UNL     1      -9.369   8.701  69.633  1.00  0.00    -0.161 C  
BRANCH   4   5
HETATM    5  N   UNL     1     -10.788   8.956  69.458  1.00  0.00    -0.362 NA 
HETATM    6  H   UNL     1     -11.452   8.188  69.552  1.00  0.00     0.000 HD 
BRANCH   5   7
HETATM    7  C   UNL     1     -11.252  10.226  69.166  1.00  0.00    -0.215 A  
HETATM    8  C   UNL     1     -11.927  10.977  70.141  1.00  0.00    -0.360 A  
HETATM    9  N   UNL     1     -12.224  10.716  71.465  1.00  0.00    -0.302 NA 
HETATM   10  C   UNL     1     -12.797  11.824  71.909  1.00  0.00    -0.232 A  
HETATM   11  N   UNL     1     -12.910  12.778  70.919  1.00  0.00    -0.172 NA 
HETATM   12  C   UNL     1     -12.356  12.249  69.788  1.00  0.00    -0.016 A  
HETATM   13  N   UNL     1     -11.082  10.790  67.934  1.00  0.00    -0.287 NA 
HETATM   14  C   UNL     1     -11.589  12.020  67.710  1.00  0.00    -0.330 A  
HETATM   15  N   UNL     1     -12.226  12.825  68.592  1.00  0.00    -0.085 NA 
BRANCH  11  16
HETATM   16  C   UNL     1     -13.342  14.138  71.153  1.00  0.00    -0.265 C  
HETATM   17  O   UNL     1     -12.602  14.987  70.267  1.00  0.00    -0.342 OA 
HETATM   18  C   UNL     1     -11.583  15.682  71.004  1.00  0.00    -0.392 C  
HETATM   19  H   UNL     1     -14.099  16.222  73.585  1.00  0.00     0.000 HD 
HETATM   20  O   UNL     1     -14.191  15.822  72.729  1.00  0.00    -0.539 OA 
HETATM   21  C   UNL     1     -11.834  15.453  72.490  1.00  0.00    -0.462 C  
HETATM   22  H   UNL     1     -11.985  16.570  74.103  1.00  0.00     0.000 HD 
HETATM   23  C   UNL     1     -13.194  14.787  72.538  1.00  0.00    -0.416 C  
HETATM   24  O   UNL     1     -11.829  16.712  73.177  1.00  0.00    -0.473 OA 
BRANCH  18  25
HETATM   25  C   UNL     1     -10.178  15.234  70.598  1.00  0.00     0.268 C  
BRANCH  25  26
HETATM   26  O   UNL     1     -10.229  14.970  69.196  1.00  0.00    -0.228 OA 
BRANCH  26  27
HETATM   27  P   UNL     1      -8.810  14.701  68.498  1.00  0.00    -0.173 P  
HETATM   28  O   UNL     1      -7.882  15.438  69.598  1.00  0.00    -0.221 OA 
HETATM   29  O   UNL     1      -8.436  13.265  68.278  1.00  0.00    -0.161 OA 
BRANCH  27  30
HETATM   30  O   UNL     1      -8.866  15.588  67.127  1.00  0.00    -0.189 OA 
HETATM   31  P   UNL     1      -9.013  17.300  67.318  1.00  0.00    -0.236 P  
HETATM   32  C   UNL     1      -9.169  19.112  67.522  1.00  0.00    -0.296 C  
HETATM   33  O   UNL     1     -10.625  17.066  67.587  1.00  0.00    -0.339 OA 
HETATM   34  O   UNL     1      -8.299  17.260  68.695  1.00  0.00    -0.256 OA 
HETATM   35 CL   UNL     1     -10.034  19.580  69.063  1.00  0.00    -0.519 Cl 
HETATM   36  P   UNL     1      -7.506  19.846  67.744  1.00  0.00    -0.295 P  
HETATM   37 CL   UNL     1     -10.187  19.750  66.188  1.00  0.00    -0.581 Cl 
HETATM   38  O   UNL     1      -7.511  20.323  66.157  1.00  0.00    -0.277 OA 
HETATM   39  O   UNL     1      -6.776  18.428  67.280  1.00  0.00    -0.193 OA 
HETATM   40  O   UNL     1      -6.100  20.467  67.931  1.00  0.00    -0.219 OA 
ENDBRANCH  27  30
ENDBRANCH  26  27
ENDBRANCH  25  26
ENDBRANCH  18  25
ENDBRANCH  11  16
BRANCH  14  41
HETATM   41  S   UNL     1     -11.436  12.708  66.076  1.00  0.00    -0.389 SA 
BRANCH  41  42
HETATM   42  C   UNL     1     -10.892  11.234  65.147  1.00  0.00    -0.200 C  
BRANCH  42  43
HETATM   43  C   UNL     1      -9.429  11.419  64.765  1.00  0.00    -0.176 C  
HETATM   44  C   UNL     1      -8.583  10.229  65.161  1.00  0.00    -0.171 C  
HETATM   45  F   UNL     1      -7.924   9.737  64.084  1.00  0.00    -0.119 F  
HETATM   46  F   UNL     1      -9.303   9.222  65.692  1.00  0.00    -0.224 F  
HETATM   47  F   UNL     1      -7.647  10.587  66.068  1.00  0.00    -0.117 F  
ENDBRANCH  42  43
ENDBRANCH  41  42
ENDBRANCH  14  41
ENDBRANCH   5   7
ENDBRANCH   4   5
ENDBRANCH   3   4
ENDBRANCH   2   3
TORSDOF 12
ENDMDL
MODEL       44
REMARK 921   NORMALIZED FREE ENERGY PREDICTED BY IDOCK:   -5.97 KCAL/MOL
REMARK 922        TOTAL FREE ENERGY PREDICTED BY IDOCK:  -11.17 KCAL/MOL
REMARK 923 INTER-LIGAND FREE ENERGY PREDICTED BY IDOCK:  -10.49 KCAL/MOL
REMARK 924 INTRA-LIGAND FREE ENERGY PREDICTED BY IDOCK:   -0.68 KCAL/MOL
REMARK 927      BINDING AFFINITY PREDICTED BY RF-SCORE:    0.00 PKD
ROOT
HETATM    1  C   UNL     1      -7.045  20.512  67.461  1.00  0.00    -0.326 C  
HETATM    2  S   UNL     1      -5.680  19.445  67.975  1.00  0.00    -0.199 SA 
ENDROOT
BRANCH   2   3
HETATM    3  C   UNL     1      -6.550  17.832  68.002  1.00  0.00    -0.192 C  
BRANCH   3   4
HETATM    4  C   UNL     1      -6.632  17.242  69.427  1.00  0.00    -0.218 C  
BRANCH   4   5
HETATM    5  N   UNL     1      -6.700  15.792  69.381  1.00  0.00    -0.173 NA 
HETATM    6  H   UNL     1      -5.902  15.241  69.697  1.00  0.00     0.000 HD 
BRANCH   5   7
HETATM    7  C   UNL     1      -7.833  15.147  68.915  1.00  0.00    -0.164 A  
HETATM    8  C   UNL     1      -7.719  13.964  68.168  1.00  0.00    -0.142 A  
HETATM    9  N   UNL     1      -6.623  13.211  67.794  1.00  0.00    -0.136 NA 
HETATM   10  C   UNL     1      -7.131  12.157  67.176  1.00  0.00    -0.120 A  
HETATM   11  N   UNL     1      -8.508  12.213  67.109  1.00  0.00    -0.177 NA 
HETATM   12  C   UNL     1      -8.893  13.360  67.741  1.00  0.00    -0.199 A  
HETATM   13  N   UNL     1      -9.086  15.632  69.152  1.00  0.00    -0.239 NA 
HETATM   14  C   UNL     1     -10.144  14.969  68.640  1.00  0.00    -0.233 A  
HETATM   15  N   UNL     1     -10.133  13.812  67.936  1.00  0.00    -0.240 NA 
BRANCH  11  16
HETATM   16  C   UNL     1      -9.339  11.126  66.640  1.00  0.00    -0.177 C  
HETATM   17  O   UNL     1     -10.352  10.897  67.628  1.00  0.00    -0.183 OA 
HETATM   18  C   UNL     1     -10.038   9.711  68.375  1.00  0.00    -0.176 C  
HETATM   19  H   UNL     1      -9.155   8.178  65.188  1.00  0.00     0.000 HD 
HETATM   20  O   UNL     1      -9.525   9.035  65.362  1.00  0.00    -0.211 OA 
HETATM   21  C   UNL     1      -8.886   9.000  67.672  1.00  0.00    -0.124 C  
HETATM   22  H   UNL     1      -8.505   7.176  67.040  1.00  0.00     0.000 HD 
HETATM   23  C   UNL     1      -8.741   9.739  66.358  1.00  0.00    -0.131 C  
HETATM   24  O   UNL     1      -9.222   7.619  67.478  1.00  0.00    -0.131 OA 
BRANCH  18  25
HETATM   25  C   UNL     1      -9.694  10.027  69.832  1.00  0.00    -0.203 C  
BRANCH  25  26
HETATM   26  O   UNL     1     -10.914   9.915  70.565  1.00  0.00    -0.281 OA 
BRANCH  26  27
HETATM   27  P   UNL     1     -10.953   8.733  71.650  1.00  0.00    -0.368 P  
HETATM   28  O   UNL     1      -9.498   8.989  72.306  1.00  0.00    -0.315 OA 
HETATM   29  O   UNL     1     -12.068   8.784  72.652  1.00  0.00    -0.313 OA 
BRANCH  27  30
HETATM   30  O   UNL     1     -10.933   7.368  70.753  1.00  0.00    -0.244 OA 
HETATM   31  P   UNL     1     -10.008   6.046  71.376  1.00  0.00    -0.194 P  
HETATM   32  C   UNL     1      -9.030   4.647  72.036  1.00  0.00    -0.126 C  
HETATM   33  O   UNL     1      -8.660   6.802  70.797  1.00  0.00    -0.138 OA 
HETATM   34  O   UNL     1     -10.219   6.521  72.838  1.00  0.00    -0.179 OA 
HETATM   35 CL   UNL     1      -7.629   5.193  73.077  1.00  0.00    -0.095 Cl 
HETATM   36  P   UNL     1     -10.058   3.681  73.203  1.00  0.00    -0.164 P  
HETATM   37 CL   UNL     1      -8.289   3.769  70.657  1.00  0.00    -0.083 Cl 
HETATM   38  O   UNL     1     -10.324   2.549  72.022  1.00  0.00    -0.119 OA 
HETATM   39  O   UNL     1     -11.432   4.471  72.708  1.00  0.00    -0.057 OA 
HETATM   40  O   UNL     1     -10.927   2.863  74.189  1.00  0.00    -0.181 OA 
ENDBRANCH  27  30
ENDBRANCH  26  27
ENDBRANCH  25  26
ENDBRANCH  18  25
ENDBRANCH  11  16
BRANCH  14  41
HETATM   41  S   UNL     1     -11.767  15.657  68.883  1.00  0.00    -0.353 SA 
BRANCH  41  42
HETATM   42  C   UNL     1     -11.777  15.845  70.698  1.00  0.00    -0.384 C  
BRANCH  42  43
HETATM   43  C   UNL     1     -13.177  15.527  71.207  1.00  0.00    -0.588 C  
HETATM   44  C   UNL     1     -13.215  15.385  72.713  1.00  0.00    -0.490 C  
HETATM   45  F   UNL     1     -14.130  16.229  73.246  1.00  0.00    -0.685 F  
HETATM   46  F   UNL     1     -12.031  15.646  73.299  1.00  0.00    -0.480 F  
HETATM   47  F   UNL     1     -13.579  14.132  73.067  1.00  0.00    -0.559 F  
ENDBRANCH  42  43
ENDBRANCH  41  42
ENDBRANCH  14  41
ENDBRANCH   5   7
ENDBRANCH   4   5
ENDBRANCH   3   4
ENDBRANCH   2   3
TORSDOF 12
ENDMDL
MODEL       45
REMARK 921   NORMALIZED FREE ENERGY PREDICTED BY IDOCK:   -5.94 KCAL/MOL
REMARK 922        TOTAL FREE ENERGY PREDICTED BY IDOCK:  -11.12 KCAL/MOL
REMARK 923 INTER-LIGAND FREE ENERGY PREDICTED BY IDOCK:  -11.18 KCAL/MOL
REMARK 924 INTRA-LIGAND FREE ENERGY PREDICTED BY IDOCK:    0.07 KCAL/MOL
REMARK 927      BINDING AFFINITY PREDICTED BY RF-SCORE:    0.00 PKD
ROOT
HETATM    1  C   UNL     1      -8.523   4.824  71.200  1.00  0.00    -0.106 C  
HETATM    2  S   UNL     1      -8.936   6.293  72.167  1.00  0.00    -0.136 SA 
ENDROOT
BRANCH   2   3
HETATM    3  C   UNL     1      -8.243   7.585  71.067  1.00  0.00    -0.108 C  
BRANCH   3   4
HETATM    4  C   UNL     1      -8.768   7.456  69.621  1.00  0.00    -0.137 C  
BRANCH   4   5
HETATM    5  N   UNL     1     -10.086   8.053  69.495  1.00  0.00    -0.191 NA 
HETATM    6  H   UNL     1     -10.878   7.628  69.977  1.00  0.00     0.000 HD 
BRANCH   5   7
HETATM    7  C   UNL     1     -10.283   9.189  68.731  1.00  0.00    -0.210 A  
HETATM    8  C   UNL     1     -11.067  10.246  69.219  1.00  0.00    -0.245 A  
HETATM    9  N   UNL     1     -11.715  10.434  70.425  1.00  0.00    -0.305 NA 
HETATM   10  C   UNL     1     -12.221  11.655  70.352  1.00  0.00    -0.347 A  
HETATM   11  N   UNL     1     -11.952  12.252  69.138  1.00  0.00    -0.282 NA 
HETATM   12  C   UNL     1     -11.214  11.363  68.409  1.00  0.00    -0.263 A  
HETATM   13  N   UNL     1      -9.737   9.324  67.487  1.00  0.00    -0.152 NA 
HETATM   14  C   UNL     1      -9.996  10.447  66.785  1.00  0.00    -0.206 A  
HETATM   15  N   UNL     1     -10.714  11.524  67.183  1.00  0.00    -0.240 NA 
BRANCH  11  16
HETATM   16  C   UNL     1     -12.236  13.638  68.838  1.00  0.00    -0.186 C  
HETATM   17  O   UNL     1     -11.318  14.059  67.821  1.00  0.00    -0.276 OA 
HETATM   18  C   UNL     1     -10.296  14.883  68.404  1.00  0.00    -0.233 C  
HETATM   19  H   UNL     1     -12.957  16.498  70.299  1.00  0.00     0.000 HD 
HETATM   20  O   UNL     1     -13.017  15.831  69.626  1.00  0.00     0.078 OA 
HETATM   21  C   UNL     1     -10.711  15.211  69.834  1.00  0.00    -0.257 C  
HETATM   22  H   UNL     1     -10.875  16.831  70.939  1.00  0.00     0.000 HD 
HETATM   23  C   UNL     1     -12.140  14.717  69.928  1.00  0.00    -0.332 C  
HETATM   24  O   UNL     1     -10.616  16.626  70.048  1.00  0.00    -0.241 OA 
BRANCH  18  25
HETATM   25  C   UNL     1      -8.923  14.208  68.361  1.00  0.00    -0.189 C  
BRANCH  25  26
HETATM   26  O   UNL     1      -8.050  15.117  67.690  1.00  0.00    -0.140 OA 
BRANCH  26  27
HETATM   27  P   UNL     1      -6.484  14.848  67.911  1.00  0.00    -0.159 P  
HETATM   28  O   UNL     1      -6.469  14.948  69.524  1.00  0.00    -0.119 OA 
HETATM   29  O   UNL     1      -5.951  13.544  67.396  1.00  0.00    -0.341 OA 
BRANCH  27  30
HETATM   30  O   UNL     1      -5.760  16.161  67.261  1.00  0.00    -0.240 OA 
HETATM   31  P   UNL     1      -6.480  17.694  67.609  1.00  0.00    -0.172 P  
HETATM   32  C   UNL     1      -7.243  19.316  67.979  1.00  0.00    -0.258 C  
HETATM   33  O   UNL     1      -7.596  17.361  66.440  1.00  0.00    -0.251 OA 
HETATM   34  O   UNL     1      -7.047  17.179  68.959  1.00  0.00    -0.226 OA 
HETATM   35 CL   UNL     1      -9.043  19.200  68.278  1.00  0.00    -0.368 Cl 
HETATM   36  P   UNL     1      -6.600  19.943  69.574  1.00  0.00    -0.245 P  
HETATM   37 CL   UNL     1      -7.063  20.372  66.538  1.00  0.00    -0.296 Cl 
HETATM   38  O   UNL     1      -5.568  20.949  68.757  1.00  0.00    -0.317 OA 
HETATM   39  O   UNL     1      -5.406  18.789  69.592  1.00  0.00    -0.187 OA 
HETATM   40  O   UNL     1      -6.056  20.474  70.923  1.00  0.00    -0.568 OA 
ENDBRANCH  27  30
ENDBRANCH  26  27
ENDBRANCH  25  26
ENDBRANCH  18  25
ENDBRANCH  11  16
BRANCH  14  41
HETATM   41  S   UNL     1      -9.351  10.574  65.131  1.00  0.00    -0.238 SA 
BRANCH  41  42
HETATM   42  C   UNL     1     -10.872  10.996  64.216  1.00  0.00    -0.192 C  
BRANCH  42  43
HETATM   43  C   UNL     1     -10.692  12.374  63.592  1.00  0.00    -0.497 C  
HETATM   44  C   UNL     1     -11.810  13.320  63.968  1.00  0.00    -0.455 C  
HETATM   45  F   UNL     1     -11.310  14.443  64.536  1.00  0.00    -0.356 F  
HETATM   46  F   UNL     1     -12.687  12.781  64.838  1.00  0.00    -0.509 F  
HETATM   47  F   UNL     1     -12.503  13.704  62.873  1.00  0.00    -0.483 F  
ENDBRANCH  42  43
ENDBRANCH  41  42
ENDBRANCH  14  41
ENDBRANCH   5   7
ENDBRANCH   4   5
ENDBRANCH   3   4
ENDBRANCH   2   3
TORSDOF 12
ENDMDL
MODEL       46
REMARK 921   NORMALIZED FREE ENERGY PREDICTED BY IDOCK:   -5.94 KCAL/MOL
REMARK 922        TOTAL FREE ENERGY PREDICTED BY IDOCK:  -11.11 KCAL/MOL
REMARK 923 INTER-LIGAND FREE ENERGY PREDICTED BY IDOCK:  -10.14 KCAL/MOL
REMARK 924 INTRA-LIGAND FREE ENERGY PREDICTED BY IDOCK:   -0.97 KCAL/MOL
REMARK 927      BINDING AFFINITY PREDICTED BY RF-SCORE:    0.00 PKD
ROOT
HETATM    1  C   UNL     1     -13.455  15.569  72.338  1.00  0.00    -0.509 C  
HETATM    2  S   UNL     1     -11.763  15.624  71.704  1.00  0.00    -0.490 SA 
ENDROOT
BRANCH   2   3
HETATM    3  C   UNL     1     -12.115  15.697  69.907  1.00  0.00    -0.341 C  
BRANCH   3   4
HETATM    4  C   UNL     1     -11.244  14.706  69.106  1.00  0.00    -0.270 C  
BRANCH   4   5
HETATM    5  N   UNL     1     -12.062  13.660  68.517  1.00  0.00    -0.374 NA 
HETATM    6  H   UNL     1     -12.850  13.913  67.922  1.00  0.00     0.000 HD 
BRANCH   5   7
HETATM    7  C   UNL     1     -11.787  12.324  68.753  1.00  0.00    -0.306 A  
HETATM    8  C   UNL     1     -12.119  11.738  69.984  1.00  0.00    -0.310 A  
HETATM    9  N   UNL     1     -12.753  12.240  71.104  1.00  0.00    -0.314 NA 
HETATM   10  C   UNL     1     -12.867  11.205  71.922  1.00  0.00    -0.294 A  
HETATM   11  N   UNL     1     -12.305  10.064  71.389  1.00  0.00    -0.385 NA 
HETATM   12  C   UNL     1     -11.828  10.392  70.153  1.00  0.00    -0.297 A  
HETATM   13  N   UNL     1     -11.185  11.536  67.815  1.00  0.00    -0.257 NA 
HETATM   14  C   UNL     1     -10.918  10.250  68.125  1.00  0.00    -0.274 A  
HETATM   15  N   UNL     1     -11.224   9.595  69.270  1.00  0.00    -0.114 NA 
BRANCH  11  16
HETATM   16  C   UNL     1     -12.427   8.750  71.984  1.00  0.00    -0.386 C  
HETATM   17  O   UNL     1     -11.338   8.587  72.901  1.00  0.00    -0.178 OA 
HETATM   18  C   UNL     1     -10.348   7.719  72.325  1.00  0.00    -0.237 C  
HETATM   19  H   UNL     1     -13.118   5.625  71.217  1.00  0.00     0.000 HD 
HETATM   20  O   UNL     1     -13.133   6.408  71.756  1.00  0.00    -0.125 OA 
HETATM   21  C   UNL     1     -10.941   7.094  71.067  1.00  0.00    -0.252 C  
HETATM   22  H   UNL     1     -11.133   5.281  70.325  1.00  0.00     0.000 HD 
HETATM   23  C   UNL     1     -12.404   7.484  71.113  1.00  0.00    -0.291 C  
HETATM   24  O   UNL     1     -10.763   5.671  71.109  1.00  0.00    -0.251 OA 
BRANCH  18  25
HETATM   25  C   UNL     1      -9.045   8.460  72.021  1.00  0.00    -0.227 C  
BRANCH  25  26
HETATM   26  O   UNL     1      -8.029   7.461  71.921  1.00  0.00    -0.089 OA 
BRANCH  26  27
HETATM   27  P   UNL     1      -6.649   7.954  71.268  1.00  0.00    -0.045 P  
HETATM   28  O   UNL     1      -6.414   9.252  72.202  1.00  0.00    -0.286 OA 
HETATM   29  O   UNL     1      -5.507   6.982  71.312  1.00  0.00    -0.027 OA 
BRANCH  27  30
HETATM   30  O   UNL     1      -7.066   8.416  69.758  1.00  0.00    -0.050 OA 
HETATM   31  P   UNL     1      -6.899   7.229  68.511  1.00  0.00    -0.078 P  
HETATM   32  C   UNL     1      -6.723   5.972  67.193  1.00  0.00    -0.061 C  
HETATM   33  O   UNL     1      -5.284   7.572  68.491  1.00  0.00    -0.023 OA 
HETATM   34  O   UNL     1      -7.118   6.068  69.516  1.00  0.00    -0.065 OA 
HETATM   35 CL   UNL     1      -5.407   4.753  67.548  1.00  0.00    -0.011 Cl 
HETATM   36  P   UNL     1      -8.233   4.940  67.128  1.00  0.00    -0.105 P  
HETATM   37 CL   UNL     1      -6.215   6.799  65.682  1.00  0.00    -0.038 Cl 
HETATM   38  O   UNL     1      -8.762   5.807  65.818  1.00  0.00    -0.145 OA 
HETATM   39  O   UNL     1      -9.047   5.999  68.115  1.00  0.00    -0.119 OA 
HETATM   40  O   UNL     1      -9.511   4.068  67.072  1.00  0.00    -0.174 OA 
ENDBRANCH  27  30
ENDBRANCH  26  27
ENDBRANCH  25  26
ENDBRANCH  18  25
ENDBRANCH  11  16
BRANCH  14  41
HETATM   41  S   UNL     1     -10.056   9.257  66.926  1.00  0.00    -0.266 SA 
BRANCH  41  42
HETATM   42  C   UNL     1      -9.345  10.562  65.867  1.00  0.00    -0.181 C  
BRANCH  42  43
HETATM   43  C   UNL     1      -9.972  10.454  64.483  1.00  0.00    -0.401 C  
HETATM   44  C   UNL     1     -10.674  11.730  64.074  1.00  0.00    -0.378 C  
HETATM   45  F   UNL     1     -10.189  12.180  62.892  1.00  0.00    -0.386 F  
HETATM   46  F   UNL     1     -10.532  12.722  64.975  1.00  0.00    -0.287 F  
HETATM   47  F   UNL     1     -11.998  11.517  63.905  1.00  0.00    -0.443 F  
ENDBRANCH  42  43
ENDBRANCH  41  42
ENDBRANCH  14  41
ENDBRANCH   5   7
ENDBRANCH   4   5
ENDBRANCH   3   4
ENDBRANCH   2   3
TORSDOF 12
ENDMDL
MODEL       47
REMARK 921   NORMALIZED FREE ENERGY PREDICTED BY IDOCK:   -5.94 KCAL/MOL
REMARK 922        TOTAL FREE ENERGY PREDICTED BY IDOCK:  -11.11 KCAL/MOL
REMARK 923 INTER-LIGAND FREE ENERGY PREDICTED BY IDOCK:  -10.25 KCAL/MOL
REMARK 924 INTRA-LIGAND FREE ENERGY PREDICTED BY IDOCK:   -0.86 KCAL/MOL
REMARK 927      BINDING AFFINITY PREDICTED BY RF-SCORE:    0.00 PKD
ROOT
HETATM    1  C   UNL     1      -7.925  18.964  66.581  1.00  0.00    -0.270 C  
HETATM    2  S   UNL     1      -8.350  17.310  67.170  1.00  0.00    -0.208 SA 
ENDROOT
BRANCH   2   3
HETATM    3  C   UNL     1     -10.132  17.284  66.741  1.00  0.00    -0.302 C  
BRANCH   3   4
HETATM    4  C   UNL     1     -10.412  16.435  65.483  1.00  0.00    -0.330 C  
BRANCH   4   5
HETATM    5  N   UNL     1     -11.544  15.550  65.698  1.00  0.00     0.040 NA 
HETATM    6  H   UNL     1     -12.481  15.864  65.449  1.00  0.00     0.000 HD 
BRANCH   5   7
HETATM    7  C   UNL     1     -11.368  14.288  66.239  1.00  0.00    -0.346 A  
HETATM    8  C   UNL     1     -10.895  13.235  65.441  1.00  0.00    -0.291 A  
HETATM    9  N   UNL     1     -10.494  13.186  64.120  1.00  0.00    -0.402 NA 
HETATM   10  C   UNL     1     -10.066  11.946  63.941  1.00  0.00    -0.370 A  
HETATM   11  N   UNL     1     -10.203  11.184  65.083  1.00  0.00    -0.273 NA 
HETATM   12  C   UNL     1     -10.729  11.997  66.046  1.00  0.00    -0.279 A  
HETATM   13  N   UNL     1     -11.649  14.019  67.547  1.00  0.00    -0.345 NA 
HETATM   14  C   UNL     1     -11.484  12.758  67.998  1.00  0.00    -0.318 A  
HETATM   15  N   UNL     1     -11.010  11.690  67.313  1.00  0.00    -0.251 NA 
BRANCH  11  16
HETATM   16  C   UNL     1      -9.670   9.847  65.231  1.00  0.00    -0.313 C  
HETATM   17  O   UNL     1      -9.102   9.751  66.543  1.00  0.00    -0.147 OA 
HETATM   18  C   UNL     1      -7.669   9.805  66.453  1.00  0.00    -0.102 C  
HETATM   19  H   UNL     1      -7.961   7.555  63.601  1.00  0.00     0.000 HD 
HETATM   20  O   UNL     1      -8.637   7.879  64.184  1.00  0.00     0.086 OA 
HETATM   21  C   UNL     1      -7.282   9.688  64.983  1.00  0.00    -0.116 C  
HETATM   22  H   UNL     1      -6.044   8.595  63.914  1.00  0.00     0.000 HD 
HETATM   23  C   UNL     1      -8.577   9.324  64.287  1.00  0.00    -0.193 C  
HETATM   24  O   UNL     1      -6.285   8.668  64.830  1.00  0.00    -0.064 OA 
BRANCH  18  25
HETATM   25  C   UNL     1      -7.105  11.082  67.080  1.00  0.00    -0.118 C  
BRANCH  25  26
HETATM   26  O   UNL     1      -6.327  10.668  68.203  1.00  0.00    -0.057 OA 
BRANCH  26  27
HETATM   27  P   UNL     1      -7.124  10.584  69.593  1.00  0.00    -0.127 P  
HETATM   28  O   UNL     1      -6.161  11.552  70.458  1.00  0.00    -0.266 OA 
HETATM   29  O   UNL     1      -8.553  11.041  69.571  1.00  0.00     0.087 OA 
BRANCH  27  30
HETATM   30  O   UNL     1      -6.934   9.033  70.068  1.00  0.00    -0.044 OA 
HETATM   31  P   UNL     1      -8.365   8.191  70.553  1.00  0.00    -0.132 P  
HETATM   32  C   UNL     1      -9.880   7.301  71.066  1.00  0.00    -0.183 C  
HETATM   33  O   UNL     1      -8.247   8.963  72.008  1.00  0.00    -0.362 OA 
HETATM   34  O   UNL     1      -9.254   9.066  69.630  1.00  0.00    -0.149 OA 
HETATM   35 CL   UNL     1     -11.160   8.416  71.746  1.00  0.00    -0.334 Cl 
HETATM   36  P   UNL     1     -10.697   6.588  69.591  1.00  0.00    -0.335 P  
HETATM   37 CL   UNL     1      -9.458   6.182  72.405  1.00  0.00    -0.150 Cl 
HETATM   38  O   UNL     1     -10.059   5.105  69.962  1.00  0.00    -0.230 OA 
HETATM   39  O   UNL     1      -9.360   6.892  68.654  1.00  0.00    -0.137 OA 
HETATM   40  O   UNL     1     -11.388   5.984  68.344  1.00  0.00    -0.196 OA 
ENDBRANCH  27  30
ENDBRANCH  26  27
ENDBRANCH  25  26
ENDBRANCH  18  25
ENDBRANCH  11  16
BRANCH  14  41
HETATM   41  S   UNL     1     -11.936  12.401  69.681  1.00  0.00    -0.230 SA 
BRANCH  41  42
HETATM   42  C   UNL     1     -12.641  14.007  70.182  1.00  0.00    -0.251 C  
BRANCH  42  43
HETATM   43  C   UNL     1     -11.918  14.481  71.437  1.00  0.00    -0.382 C  
HETATM   44  C   UNL     1     -12.766  15.426  72.259  1.00  0.00    -0.379 C  
HETATM   45  F   UNL     1     -12.892  14.968  73.527  1.00  0.00    -0.498 F  
HETATM   46  F   UNL     1     -14.007  15.591  71.762  1.00  0.00    -0.495 F  
HETATM   47  F   UNL     1     -12.189  16.646  72.334  1.00  0.00    -0.487 F  
ENDBRANCH  42  43
ENDBRANCH  41  42
ENDBRANCH  14  41
ENDBRANCH   5   7
ENDBRANCH   4   5
ENDBRANCH   3   4
ENDBRANCH   2   3
TORSDOF 12
ENDMDL
MODEL       48
REMARK 921   NORMALIZED FREE ENERGY PREDICTED BY IDOCK:   -5.93 KCAL/MOL
REMARK 922        TOTAL FREE ENERGY PREDICTED BY IDOCK:  -11.10 KCAL/MOL
REMARK 923 INTER-LIGAND FREE ENERGY PREDICTED BY IDOCK:   -9.39 KCAL/MOL
REMARK 924 INTRA-LIGAND FREE ENERGY PREDICTED BY IDOCK:   -1.71 KCAL/MOL
REMARK 927      BINDING AFFINITY PREDICTED BY RF-SCORE:    0.00 PKD
ROOT
HETATM    1  C   UNL     1     -10.691  15.521  67.649  1.00  0.00    -0.302 C  
HETATM    2  S   UNL     1     -10.719  15.071  65.899  1.00  0.00    -0.346 SA 
ENDROOT
BRANCH   2   3
HETATM    3  C   UNL     1     -12.204  13.996  65.886  1.00  0.00    -0.456 C  
BRANCH   3   4
HETATM    4  C   UNL     1     -11.851  12.519  66.166  1.00  0.00    -0.397 C  
BRANCH   4   5
HETATM    5  N   UNL     1     -12.018  12.208  67.575  1.00  0.00    -0.553 NA 
HETATM    6  H   UNL     1     -12.864  12.505  68.059  1.00  0.00     0.000 HD 
BRANCH   5   7
HETATM    7  C   UNL     1     -11.043  11.512  68.269  1.00  0.00    -0.239 A  
HETATM    8  C   UNL     1     -11.377  10.782  69.421  1.00  0.00    -0.285 A  
HETATM    9  N   UNL     1     -12.585  10.554  70.050  1.00  0.00    -0.217 NA 
HETATM   10  C   UNL     1     -12.300   9.722  71.040  1.00  0.00    -0.332 A  
HETATM   11  N   UNL     1     -10.953   9.428  71.093  1.00  0.00    -0.331 NA 
HETATM   12  C   UNL     1     -10.356  10.097  70.064  1.00  0.00    -0.250 A  
HETATM   13  N   UNL     1      -9.737  11.514  67.873  1.00  0.00    -0.178 NA 
HETATM   14  C   UNL     1      -8.835  10.840  68.616  1.00  0.00    -0.152 A  
HETATM   15  N   UNL     1      -9.067  10.090  69.720  1.00  0.00    -0.214 NA 
BRANCH  11  16
HETATM   16  C   UNL     1     -10.379   8.424  71.962  1.00  0.00    -0.304 C  
HETATM   17  O   UNL     1      -9.727   7.455  71.132  1.00  0.00    -0.164 OA 
HETATM   18  C   UNL     1     -10.526   6.263  71.062  1.00  0.00    -0.225 C  
HETATM   19  H   UNL     1     -11.054   6.645  74.648  1.00  0.00     0.000 HD 
HETATM   20  O   UNL     1     -10.506   7.154  74.062  1.00  0.00    -0.353 OA 
HETATM   21  C   UNL     1     -11.639   6.378  72.097  1.00  0.00    -0.313 C  
HETATM   22  H   UNL     1     -12.366   5.261  73.545  1.00  0.00     0.000 HD 
HETATM   23  C   UNL     1     -11.265   7.600  72.910  1.00  0.00    -0.372 C  
HETATM   24  O   UNL     1     -11.673   5.189  72.899  1.00  0.00    -0.283 OA 
BRANCH  18  25
HETATM   25  C   UNL     1     -11.089   6.034  69.658  1.00  0.00    -0.404 C  
BRANCH  25  26
HETATM   26  O   UNL     1     -10.223   5.090  69.027  1.00  0.00    -0.195 OA 
BRANCH  26  27
HETATM   27  P   UNL     1      -9.707   5.506  67.566  1.00  0.00    -0.149 P  
HETATM   28  O   UNL     1      -8.692   4.271  67.331  1.00  0.00    -0.103 OA 
HETATM   29  O   UNL     1     -10.752   5.622  66.497  1.00  0.00    -0.288 OA 
BRANCH  27  30
HETATM   30  O   UNL     1      -8.865   6.884  67.820  1.00  0.00    -0.120 OA 
HETATM   31  P   UNL     1      -7.898   7.453  66.504  1.00  0.00    -0.103 P  
HETATM   32  C   UNL     1      -6.875   8.054  65.111  1.00  0.00    -0.058 C  
HETATM   33  O   UNL     1      -6.767   6.331  66.936  1.00  0.00    -0.056 OA 
HETATM   34  O   UNL     1      -8.837   6.792  65.460  1.00  0.00    -0.092 OA 
HETATM   35 CL   UNL     1      -6.297   6.704  64.022  1.00  0.00    -0.034 Cl 
HETATM   36  P   UNL     1      -7.906   9.072  63.992  1.00  0.00    -0.149 P  
HETATM   37 CL   UNL     1      -5.386   8.802  65.779  1.00  0.00    -0.034 Cl 
HETATM   38  O   UNL     1      -7.268  10.446  64.663  1.00  0.00    -0.117 OA 
HETATM   39  O   UNL     1      -9.131   9.134  65.112  1.00  0.00    -0.213 OA 
HETATM   40  O   UNL     1      -8.777   9.934  63.046  1.00  0.00    -0.177 OA 
ENDBRANCH  27  30
ENDBRANCH  26  27
ENDBRANCH  25  26
ENDBRANCH  18  25
ENDBRANCH  11  16
BRANCH  14  41
HETATM   41  S   UNL     1      -7.122  10.920  68.139  1.00  0.00    -0.080 SA 
BRANCH  41  42
HETATM   42  C   UNL     1      -6.506  12.158  69.330  1.00  0.00    -0.111 C  
BRANCH  42  43
HETATM   43  C   UNL     1      -6.006  13.368  68.552  1.00  0.00    -0.088 C  
HETATM   44  C   UNL     1      -7.098  14.391  68.326  1.00  0.00    -0.112 C  
HETATM   45  F   UNL     1      -6.720  15.601  68.802  1.00  0.00    -0.106 F  
HETATM   46  F   UNL     1      -8.260  14.064  68.925  1.00  0.00    -0.141 F  
HETATM   47  F   UNL     1      -7.347  14.544  67.006  1.00  0.00    -0.195 F  
ENDBRANCH  42  43
ENDBRANCH  41  42
ENDBRANCH  14  41
ENDBRANCH   5   7
ENDBRANCH   4   5
ENDBRANCH   3   4
ENDBRANCH   2   3
TORSDOF 12
ENDMDL
MODEL       49
REMARK 921   NORMALIZED FREE ENERGY PREDICTED BY IDOCK:   -5.93 KCAL/MOL
REMARK 922        TOTAL FREE ENERGY PREDICTED BY IDOCK:  -11.10 KCAL/MOL
REMARK 923 INTER-LIGAND FREE ENERGY PREDICTED BY IDOCK:  -10.86 KCAL/MOL
REMARK 924 INTRA-LIGAND FREE ENERGY PREDICTED BY IDOCK:   -0.24 KCAL/MOL
REMARK 927      BINDING AFFINITY PREDICTED BY RF-SCORE:    0.00 PKD
ROOT
HETATM    1  C   UNL     1      -9.948   5.030  66.226  1.00  0.00    -0.224 C  
HETATM    2  S   UNL     1      -9.442   3.723  67.366  1.00  0.00    -0.169 SA 
ENDROOT
BRANCH   2   3
HETATM    3  C   UNL     1      -7.805   4.376  67.869  1.00  0.00    -0.080 C  
BRANCH   3   4
HETATM    4  C   UNL     1      -7.481   5.719  67.181  1.00  0.00    -0.081 C  
BRANCH   4   5
HETATM    5  N   UNL     1      -6.960   6.677  68.140  1.00  0.00    -0.074 NA 
HETATM    6  H   UNL     1      -5.957   6.857  68.178  1.00  0.00     0.000 HD 
BRANCH   5   7
HETATM    7  C   UNL     1      -7.807   7.350  69.004  1.00  0.00    -0.120 A  
HETATM    8  C   UNL     1      -8.798   8.208  68.501  1.00  0.00    -0.134 A  
HETATM    9  N   UNL     1      -9.173   8.528  67.211  1.00  0.00    -0.138 NA 
HETATM   10  C   UNL     1     -10.223   9.322  67.350  1.00  0.00    -0.243 A  
HETATM   11  N   UNL     1     -10.524   9.551  68.676  1.00  0.00    -0.206 NA 
HETATM   12  C   UNL     1      -9.622   8.843  69.419  1.00  0.00    -0.163 A  
HETATM   13  N   UNL     1      -7.710   7.216  70.359  1.00  0.00    -0.093 NA 
HETATM   14  C   UNL     1      -8.547   7.927  71.141  1.00  0.00    -0.128 A  
HETATM   15  N   UNL     1      -9.546   8.753  70.748  1.00  0.00    -0.191 NA 
BRANCH  11  16
HETATM   16  C   UNL     1     -11.712  10.241  69.129  1.00  0.00    -0.037 C  
HETATM   17  O   UNL     1     -12.219  11.000  68.024  1.00  0.00    -0.520 OA 
HETATM   18  C   UNL     1     -11.911  12.391  68.211  1.00  0.00    -0.309 C  
HETATM   19  H   UNL     1     -12.896  11.934  71.691  1.00  0.00     0.000 HD 
HETATM   20  O   UNL     1     -12.934  11.318  70.968  1.00  0.00    -0.318 OA 
HETATM   21  C   UNL     1     -11.388  12.572  69.632  1.00  0.00    -0.112 C  
HETATM   22  H   UNL     1     -11.773  13.753  71.157  1.00  0.00     0.000 HD 
HETATM   23  C   UNL     1     -11.651  11.237  70.297  1.00  0.00    -0.275 C  
HETATM   24  O   UNL     1     -12.098  13.640  70.272  1.00  0.00    -0.327 OA 
BRANCH  18  25
HETATM   25  C   UNL     1     -10.905  12.898  67.176  1.00  0.00    -0.256 C  
BRANCH  25  26
HETATM   26  O   UNL     1     -10.249  14.019  67.770  1.00  0.00    -0.234 OA 
BRANCH  26  27
HETATM   27  P   UNL     1     -10.625  15.445  67.138  1.00  0.00    -0.309 P  
HETATM   28  O   UNL     1     -11.643  14.919  65.998  1.00  0.00    -0.323 OA 
HETATM   29  O   UNL     1     -11.247  16.443  68.069  1.00  0.00    -0.325 OA 
BRANCH  27  30
HETATM   30  O   UNL     1      -9.232  15.957  66.454  1.00  0.00    -0.253 OA 
HETATM   31  P   UNL     1      -8.778  17.597  66.760  1.00  0.00    -0.273 P  
HETATM   32  C   UNL     1      -8.298  19.333  67.084  1.00  0.00    -0.280 C  
HETATM   33  O   UNL     1      -9.861  18.045  65.597  1.00  0.00    -0.494 OA 
HETATM   34  O   UNL     1      -9.523  17.604  68.121  1.00  0.00    -0.268 OA 
HETATM   35 CL   UNL     1      -9.737  20.422  67.382  1.00  0.00    -0.581 Cl 
HETATM   36  P   UNL     1      -7.377  19.427  68.664  1.00  0.00    -0.348 P  
HETATM   37 CL   UNL     1      -7.498  19.987  65.616  1.00  0.00    -0.326 Cl 
HETATM   38  O   UNL     1      -5.952  19.503  67.822  1.00  0.00    -0.197 OA 
HETATM   39  O   UNL     1      -7.220  17.774  68.715  1.00  0.00    -0.256 OA 
HETATM   40  O   UNL     1      -6.598  19.506  69.999  1.00  0.00    -0.263 OA 
ENDBRANCH  27  30
ENDBRANCH  26  27
ENDBRANCH  25  26
ENDBRANCH  18  25
ENDBRANCH  11  16
BRANCH  14  41
HETATM   41  S   UNL     1      -8.355   7.809  72.906  1.00  0.00    -0.156 SA 
BRANCH  41  42
HETATM   42  C   UNL     1     -10.093   7.585  73.413  1.00  0.00    -0.338 C  
BRANCH  42  43
HETATM   43  C   UNL     1     -10.349   6.096  73.608  1.00  0.00    -0.275 C  
HETATM   44  C   UNL     1     -11.225   5.521  72.517  1.00  0.00    -0.274 C  
HETATM   45  F   UNL     1     -10.610   4.475  71.917  1.00  0.00    -0.256 F  
HETATM   46  F   UNL     1     -11.530   6.417  71.558  1.00  0.00    -0.298 F  
HETATM   47  F   UNL     1     -12.387   5.057  73.028  1.00  0.00    -0.332 F  
ENDBRANCH  42  43
ENDBRANCH  41  42
ENDBRANCH  14  41
ENDBRANCH   5   7
ENDBRANCH   4   5
ENDBRANCH   3   4
ENDBRANCH   2   3
TORSDOF 12
ENDMDL
MODEL       50
REMARK 921   NORMALIZED FREE ENERGY PREDICTED BY IDOCK:   -5.93 KCAL/MOL
REMARK 922        TOTAL FREE ENERGY PREDICTED BY IDOCK:  -11.09 KCAL/MOL
REMARK 923 INTER-LIGAND FREE ENERGY PREDICTED BY IDOCK:   -9.99 KCAL/MOL
REMARK 924 INTRA-LIGAND FREE ENERGY PREDICTED BY IDOCK:   -1.11 KCAL/MOL
REMARK 927      BINDING AFFINITY PREDICTED BY RF-SCORE:    0.00 PKD
ROOT
HETATM    1  C   UNL     1     -14.270   7.666  71.472  1.00  0.00    -0.439 C  
HETATM    2  S   UNL     1     -13.630   9.202  72.176  1.00  0.00    -0.489 SA 
ENDROOT
BRANCH   2   3
HETATM    3  C   UNL     1     -11.835   8.924  71.929  1.00  0.00    -0.370 C  
BRANCH   3   4
HETATM    4  C   UNL     1     -11.558   7.853  70.853  1.00  0.00    -0.273 C  
BRANCH   4   5
HETATM    5  N   UNL     1     -10.146   7.512  70.816  1.00  0.00    -0.193 NA 
HETATM    6  H   UNL     1      -9.803   6.730  71.372  1.00  0.00     0.000 HD 
BRANCH   5   7
HETATM    7  C   UNL     1      -9.260   8.235  70.036  1.00  0.00    -0.151 A  
HETATM    8  C   UNL     1      -9.464   8.350  68.652  1.00  0.00    -0.147 A  
HETATM    9  N   UNL     1     -10.470   7.887  67.826  1.00  0.00    -0.224 NA 
HETATM   10  C   UNL     1     -10.177   8.373  66.630  1.00  0.00    -0.265 A  
HETATM   11  N   UNL     1      -9.008   9.105  66.643  1.00  0.00    -0.133 NA 
HETATM   12  C   UNL     1      -8.547   9.098  67.929  1.00  0.00    -0.121 A  
HETATM   13  N   UNL     1      -8.166   8.850  70.571  1.00  0.00    -0.128 NA 
HETATM   14  C   UNL     1      -7.327   9.511  69.746  1.00  0.00    -0.092 A  
HETATM   15  N   UNL     1      -7.456   9.697  68.411  1.00  0.00    -0.080 NA 
BRANCH  11  16
HETATM   16  C   UNL     1      -8.532   9.888  65.524  1.00  0.00    -0.140 C  
HETATM   17  O   UNL     1      -8.566  11.267  65.914  1.00  0.00    -0.167 OA 
HETATM   18  C   UNL     1      -9.684  11.918  65.288  1.00  0.00    -0.192 C  
HETATM   19  H   UNL     1      -8.774  10.122  62.250  1.00  0.00     0.000 HD 
HETATM   20  O   UNL     1      -8.329  10.150  63.089  1.00  0.00    -0.152 OA 
HETATM   21  C   UNL     1     -10.263  10.966  64.247  1.00  0.00    -0.364 C  
HETATM   22  H   UNL     1     -10.765  11.061  62.346  1.00  0.00     0.000 HD 
HETATM   23  C   UNL     1      -9.250   9.843  64.166  1.00  0.00    -0.262 C  
HETATM   24  O   UNL     1     -10.404  11.653  62.995  1.00  0.00    -0.337 OA 
BRANCH  18  25
HETATM   25  C   UNL     1     -10.743  12.342  66.308  1.00  0.00    -0.256 C  
BRANCH  25  26
HETATM   26  O   UNL     1     -10.493  13.718  66.596  1.00  0.00    -0.268 OA 
BRANCH  26  27
HETATM   27  P   UNL     1     -10.962  14.207  68.051  1.00  0.00    -0.274 P  
HETATM   28  O   UNL     1     -12.301  13.309  68.164  1.00  0.00    -0.164 OA 
HETATM   29  O   UNL     1      -9.998  13.973  69.176  1.00  0.00    -0.086 OA 
BRANCH  27  30
HETATM   30  O   UNL     1     -11.356  15.778  67.834  1.00  0.00    -0.338 OA 
HETATM   31  P   UNL     1     -10.066  16.924  67.958  1.00  0.00    -0.325 P  
HETATM   32  C   UNL     1      -8.700  18.135  68.089  1.00  0.00    -0.277 C  
HETATM   33  O   UNL     1     -10.207  16.806  69.599  1.00  0.00    -0.210 OA 
HETATM   34  O   UNL     1      -9.020  15.872  67.502  1.00  0.00    -0.190 OA 
HETATM   35 CL   UNL     1      -7.360  17.574  69.200  1.00  0.00    -0.186 Cl 
HETATM   36  P   UNL     1      -7.858  18.282  66.470  1.00  0.00    -0.250 P  
HETATM   37 CL   UNL     1      -9.341  19.638  68.833  1.00  0.00    -0.389 Cl 
HETATM   38  O   UNL     1      -8.681  19.691  66.177  1.00  0.00    -0.361 OA 
HETATM   39  O   UNL     1      -9.081  17.450  65.714  1.00  0.00    -0.517 OA 
HETATM   40  O   UNL     1      -7.147  18.408  65.101  1.00  0.00    -0.469 OA 
ENDBRANCH  27  30
ENDBRANCH  26  27
ENDBRANCH  25  26
ENDBRANCH  18  25
ENDBRANCH  11  16
BRANCH  14  41
HETATM   41  S   UNL     1      -5.859  10.235  70.442  1.00  0.00    -0.099 SA 
BRANCH  41  42
HETATM   42  C   UNL     1      -6.215  12.007  70.193  1.00  0.00    -0.075 C  
BRANCH  42  43
HETATM   43  C   UNL     1      -5.647  12.428  68.844  1.00  0.00    -0.062 C  
HETATM   44  C   UNL     1      -6.278  13.705  68.333  1.00  0.00    -0.095 C  
HETATM   45  F   UNL     1      -5.327  14.632  68.072  1.00  0.00    -0.100 F  
HETATM   46  F   UNL     1      -7.148  14.250  69.207  1.00  0.00    -0.115 F  
HETATM   47  F   UNL     1      -6.943  13.483  67.178  1.00  0.00    -0.165 F  
ENDBRANCH  42  43
ENDBRANCH  41  42
ENDBRANCH  14  41
ENDBRANCH   5   7
ENDBRANCH   4   5
ENDBRANCH   3   4
ENDBRANCH   2   3
TORSDOF 12
ENDMDL
MODEL       51
REMARK 921   NORMALIZED FREE ENERGY PREDICTED BY IDOCK:   -5.92 KCAL/MOL
REMARK 922        TOTAL FREE ENERGY PREDICTED BY IDOCK:  -11.08 KCAL/MOL
REMARK 923 INTER-LIGAND FREE ENERGY PREDICTED BY IDOCK:  -10.24 KCAL/MOL
REMARK 924 INTRA-LIGAND FREE ENERGY PREDICTED BY IDOCK:   -0.83 KCAL/MOL
REMARK 927      BINDING AFFINITY PREDICTED BY RF-SCORE:    0.00 PKD
ROOT
HETATM    1  C   UNL     1     -10.069   4.274  65.092  1.00  0.00    -0.207 C  
HETATM    2  S   UNL     1      -8.514   3.518  64.568  1.00  0.00    -0.093 SA 
ENDROOT
BRANCH   2   3
HETATM    3  C   UNL     1      -7.489   5.027  64.386  1.00  0.00    -0.068 C  
BRANCH   3   4
HETATM    4  C   UNL     1      -8.193   6.105  63.534  1.00  0.00    -0.004 C  
BRANCH   4   5
HETATM    5  N   UNL     1      -7.727   7.433  63.896  1.00  0.00    -0.120 NA 
HETATM    6  H   UNL     1      -6.791   7.730  63.620  1.00  0.00     0.000 HD 
BRANCH   5   7
HETATM    7  C   UNL     1      -8.535   8.300  64.610  1.00  0.00    -0.051 A  
HETATM    8  C   UNL     1      -8.899   9.541  64.065  1.00  0.00    -0.212 A  
HETATM    9  N   UNL     1      -8.634  10.125  62.841  1.00  0.00    -0.170 NA 
HETATM   10  C   UNL     1      -9.309  11.264  62.855  1.00  0.00    -0.352 A  
HETATM   11  N   UNL     1      -9.974  11.453  64.049  1.00  0.00    -0.271 NA 
HETATM   12  C   UNL     1      -9.721  10.359  64.826  1.00  0.00    -0.320 A  
HETATM   13  N   UNL     1      -8.997   7.993  65.857  1.00  0.00    -0.163 NA 
HETATM   14  C   UNL     1      -9.754   8.900  66.508  1.00  0.00    -0.254 A  
HETATM   15  N   UNL     1     -10.177  10.103  66.053  1.00  0.00    -0.243 NA 
BRANCH  11  16
HETATM   16  C   UNL     1     -10.919  12.523  64.286  1.00  0.00    -0.360 C  
HETATM   17  O   UNL     1     -10.170  13.692  64.641  1.00  0.00    -0.404 OA 
HETATM   18  C   UNL     1     -10.274  13.920  66.056  1.00  0.00    -0.310 C  
HETATM   19  H   UNL     1     -13.817  13.134  65.722  1.00  0.00     0.000 HD 
HETATM   20  O   UNL     1     -13.151  13.211  65.049  1.00  0.00    -0.728 OA 
HETATM   21  C   UNL     1     -11.345  12.987  66.609  1.00  0.00    -0.325 C  
HETATM   22  H   UNL     1     -12.942  13.158  67.745  1.00  0.00     0.000 HD 
HETATM   23  C   UNL     1     -11.996  12.397  65.375  1.00  0.00    -0.398 C  
HETATM   24  O   UNL     1     -12.275  13.739  67.400  1.00  0.00    -0.368 OA 
BRANCH  18  25
HETATM   25  C   UNL     1      -8.934  13.718  66.767  1.00  0.00    -0.185 C  
BRANCH  25  26
HETATM   26  O   UNL     1      -8.902  14.663  67.838  1.00  0.00    -0.161 OA 
BRANCH  26  27
HETATM   27  P   UNL     1      -7.436  15.138  68.285  1.00  0.00    -0.128 P  
HETATM   28  O   UNL     1      -7.158  13.989  69.386  1.00  0.00    -0.094 OA 
HETATM   29  O   UNL     1      -6.394  15.188  67.208  1.00  0.00    -0.312 OA 
BRANCH  27  30
HETATM   30  O   UNL     1      -7.692  16.573  69.024  1.00  0.00    -0.225 OA 
HETATM   31  P   UNL     1      -7.710  17.973  68.008  1.00  0.00    -0.265 P  
HETATM   32  C   UNL     1      -7.729  19.455  66.933  1.00  0.00    -0.251 C  
HETATM   33  O   UNL     1      -6.060  17.923  68.022  1.00  0.00    -0.165 OA 
HETATM   34  O   UNL     1      -8.194  17.146  66.788  1.00  0.00    -0.205 OA 
HETATM   35 CL   UNL     1      -6.694  19.258  65.439  1.00  0.00    -0.306 Cl 
HETATM   36  P   UNL     1      -9.409  19.685  66.243  1.00  0.00    -0.303 P  
HETATM   37 CL   UNL     1      -7.008  20.826  67.840  1.00  0.00    -0.323 Cl 
HETATM   38  O   UNL     1      -9.704  20.865  67.368  1.00  0.00    -0.456 OA 
HETATM   39  O   UNL     1     -10.039  18.568  67.298  1.00  0.00    -0.319 OA 
HETATM   40  O   UNL     1     -10.829  19.881  65.659  1.00  0.00    -0.437 OA 
ENDBRANCH  27  30
ENDBRANCH  26  27
ENDBRANCH  25  26
ENDBRANCH  18  25
ENDBRANCH  11  16
BRANCH  14  41
HETATM   41  S   UNL     1     -10.279   8.524  68.166  1.00  0.00    -0.207 SA 
BRANCH  41  42
HETATM   42  C   UNL     1      -9.173   9.620  69.118  1.00  0.00    -0.168 C  
BRANCH  42  43
HETATM   43  C   UNL     1      -7.792   8.980  69.174  1.00  0.00    -0.093 C  
HETATM   44  C   UNL     1      -6.736   9.849  68.528  1.00  0.00    -0.055 C  
HETATM   45  F   UNL     1      -5.727  10.095  69.398  1.00  0.00    -0.038 F  
HETATM   46  F   UNL     1      -7.212  11.038  68.111  1.00  0.00    -0.076 F  
HETATM   47  F   UNL     1      -6.192   9.228  67.457  1.00  0.00    -0.054 F  
ENDBRANCH  42  43
ENDBRANCH  41  42
ENDBRANCH  14  41
ENDBRANCH   5   7
ENDBRANCH   4   5
ENDBRANCH   3   4
ENDBRANCH   2   3
TORSDOF 12
ENDMDL
MODEL       52
REMARK 921   NORMALIZED FREE ENERGY PREDICTED BY IDOCK:   -5.89 KCAL/MOL
REMARK 922        TOTAL FREE ENERGY PREDICTED BY IDOCK:  -11.03 KCAL/MOL
REMARK 923 INTER-LIGAND FREE ENERGY PREDICTED BY IDOCK:   -9.55 KCAL/MOL
REMARK 924 INTRA-LIGAND FREE ENERGY PREDICTED BY IDOCK:   -1.48 KCAL/MOL
REMARK 927      BINDING AFFINITY PREDICTED BY RF-SCORE:    0.00 PKD
ROOT
HETATM    1  C   UNL     1     -11.822  11.982  63.585  1.00  0.00    -0.506 C  
HETATM    2  S   UNL     1     -10.134  11.451  63.221  1.00  0.00    -0.381 SA 
ENDROOT
BRANCH   2   3
HETATM    3  C   UNL     1      -9.866  10.304  64.625  1.00  0.00    -0.327 C  
BRANCH   3   4
HETATM    4  C   UNL     1      -8.532   9.537  64.499  1.00  0.00    -0.181 C  
BRANCH   4   5
HETATM    5  N   UNL     1      -8.643   8.211  65.081  1.00  0.00    -0.321 NA 
HETATM    6  H   UNL     1      -8.850   7.413  64.480  1.00  0.00     0.000 HD 
BRANCH   5   7
HETATM    7  C   UNL     1      -8.473   8.014  66.440  1.00  0.00    -0.136 A  
HETATM    8  C   UNL     1      -9.498   7.442  67.209  1.00  0.00    -0.146 A  
HETATM    9  N   UNL     1     -10.743   6.951  66.866  1.00  0.00    -0.331 NA 
HETATM   10  C   UNL     1     -11.234   6.456  67.992  1.00  0.00    -0.155 A  
HETATM   11  N   UNL     1     -10.371   6.635  69.052  1.00  0.00    -0.180 NA 
HETATM   12  C   UNL     1      -9.260   7.260  68.563  1.00  0.00    -0.138 A  
HETATM   13  N   UNL     1      -7.321   8.370  67.081  1.00  0.00    -0.084 NA 
HETATM   14  C   UNL     1      -7.236   8.178  68.413  1.00  0.00    -0.093 A  
HETATM   15  N   UNL     1      -8.158   7.612  69.228  1.00  0.00    -0.126 NA 
BRANCH  11  16
HETATM   16  C   UNL     1     -10.568   6.053  70.362  1.00  0.00    -0.268 C  
HETATM   17  O   UNL     1     -11.904   6.363  70.777  1.00  0.00    -0.361 OA 
HETATM   18  C   UNL     1     -11.873   7.408  71.763  1.00  0.00    -0.294 C  
HETATM   19  H   UNL     1      -9.058   5.640  73.257  1.00  0.00     0.000 HD 
HETATM   20  O   UNL     1      -9.606   5.388  72.523  1.00  0.00    -0.148 OA 
HETATM   21  C   UNL     1     -10.423   7.616  72.186  1.00  0.00    -0.221 C  
HETATM   22  H   UNL     1      -9.429   7.720  73.881  1.00  0.00     0.000 HD 
HETATM   23  C   UNL     1      -9.681   6.459  71.549  1.00  0.00    -0.168 C  
HETATM   24  O   UNL     1     -10.332   7.590  73.617  1.00  0.00    -0.344 OA 
BRANCH  18  25
HETATM   25  C   UNL     1     -12.496   8.704  71.243  1.00  0.00    -0.252 C  
BRANCH  25  26
HETATM   26  O   UNL     1     -11.412   9.525  70.808  1.00  0.00    -0.270 OA 
BRANCH  26  27
HETATM   27  P   UNL     1     -11.829  10.971  70.253  1.00  0.00    -0.383 P  
HETATM   28  O   UNL     1     -12.895  10.482  69.142  1.00  0.00     0.053 OA 
HETATM   29  O   UNL     1     -12.414  11.925  71.252  1.00  0.00    -0.312 OA 
BRANCH  27  30
HETATM   30  O   UNL     1     -10.474  11.524  69.526  1.00  0.00    -0.043 OA 
HETATM   31  P   UNL     1     -10.677  12.807  68.384  1.00  0.00    -0.257 P  
HETATM   32  C   UNL     1     -10.893  14.165  67.176  1.00  0.00    -0.290 C  
HETATM   33  O   UNL     1     -11.157  11.669  67.290  1.00  0.00    -0.256 OA 
HETATM   34  O   UNL     1     -11.947  13.323  69.111  1.00  0.00    -0.309 OA 
HETATM   35 CL   UNL     1     -12.534  14.140  66.369  1.00  0.00    -0.446 Cl 
HETATM   36  P   UNL     1     -10.891  15.770  68.056  1.00  0.00    -0.321 P  
HETATM   37 CL   UNL     1      -9.703  13.942  65.850  1.00  0.00    -0.275 Cl 
HETATM   38  O   UNL     1      -9.317  16.013  67.598  1.00  0.00    -0.212 OA 
HETATM   39  O   UNL     1     -10.339  15.051  69.448  1.00  0.00    -0.234 OA 
HETATM   40  O   UNL     1     -10.888  17.128  68.800  1.00  0.00    -0.305 OA 
ENDBRANCH  27  30
ENDBRANCH  26  27
ENDBRANCH  25  26
ENDBRANCH  18  25
ENDBRANCH  11  16
BRANCH  14  41
HETATM   41  S   UNL     1      -5.764   8.725  69.251  1.00  0.00    -0.035 SA 
BRANCH  41  42
HETATM   42  C   UNL     1      -5.864   7.729  70.776  1.00  0.00    -0.034 C  
BRANCH  42  43
HETATM   43  C   UNL     1      -5.872   8.676  71.970  1.00  0.00    -0.058 C  
HETATM   44  C   UNL     1      -6.421   8.016  73.216  1.00  0.00    -0.091 C  
HETATM   45  F   UNL     1      -5.528   8.101  74.230  1.00  0.00    -0.070 F  
HETATM   46  F   UNL     1      -6.711   6.712  73.039  1.00  0.00    -0.065 F  
HETATM   47  F   UNL     1      -7.549   8.635  73.629  1.00  0.00    -0.184 F  
ENDBRANCH  42  43
ENDBRANCH  41  42
ENDBRANCH  14  41
ENDBRANCH   5   7
ENDBRANCH   4   5
ENDBRANCH   3   4
ENDBRANCH   2   3
TORSDOF 12
ENDMDL
MODEL       53
REMARK 921   NORMALIZED FREE ENERGY PREDICTED BY IDOCK:   -5.88 KCAL/MOL
REMARK 922        TOTAL FREE ENERGY PREDICTED BY IDOCK:  -11.02 KCAL/MOL
REMARK 923 INTER-LIGAND FREE ENERGY PREDICTED BY IDOCK:  -10.25 KCAL/MOL
REMARK 924 INTRA-LIGAND FREE ENERGY PREDICTED BY IDOCK:   -0.77 KCAL/MOL
REMARK 927      BINDING AFFINITY PREDICTED BY RF-SCORE:    0.00 PKD
ROOT
HETATM    1  C   UNL     1      -8.033  19.552  65.995  1.00  0.00    -0.303 C  
HETATM    2  S   UNL     1      -7.409  20.349  67.492  1.00  0.00    -0.317 SA 
ENDROOT
BRANCH   2   3
HETATM    3  C   UNL     1      -7.714  19.006  68.701  1.00  0.00    -0.343 C  
BRANCH   3   4
HETATM    4  C   UNL     1      -6.717  17.839  68.534  1.00  0.00    -0.218 C  
BRANCH   4   5
HETATM    5  N   UNL     1      -7.084  16.721  69.385  1.00  0.00    -0.203 NA 
HETATM    6  H   UNL     1      -6.702  16.661  70.328  1.00  0.00     0.000 HD 
BRANCH   5   7
HETATM    7  C   UNL     1      -7.945  15.736  68.933  1.00  0.00    -0.197 A  
HETATM    8  C   UNL     1      -7.447  14.620  68.243  1.00  0.00    -0.117 A  
HETATM    9  N   UNL     1      -6.161  14.235  67.919  1.00  0.00    -0.164 NA 
HETATM   10  C   UNL     1      -6.297  13.051  67.342  1.00  0.00    -0.087 A  
HETATM   11  N   UNL     1      -7.619  12.670  67.254  1.00  0.00    -0.146 NA 
HETATM   12  C   UNL     1      -8.361  13.662  67.828  1.00  0.00    -0.181 A  
HETATM   13  N   UNL     1      -9.294  15.812  69.131  1.00  0.00    -0.241 NA 
HETATM   14  C   UNL     1     -10.076  14.831  68.635  1.00  0.00    -0.238 A  
HETATM   15  N   UNL     1      -9.685  13.710  67.984  1.00  0.00    -0.220 NA 
BRANCH  11  16
HETATM   16  C   UNL     1      -8.056  11.359  66.823  1.00  0.00    -0.161 C  
HETATM   17  O   UNL     1      -8.455  10.631  67.991  1.00  0.00    -0.115 OA 
HETATM   18  C   UNL     1      -7.444   9.666  68.327  1.00  0.00    -0.077 C  
HETATM   19  H   UNL     1      -7.254   8.920  64.764  1.00  0.00     0.000 HD 
HETATM   20  O   UNL     1      -7.844   9.504  65.227  1.00  0.00    -0.105 OA 
HETATM   21  C   UNL     1      -6.449   9.603  67.173  1.00  0.00    -0.070 C  
HETATM   22  H   UNL     1      -5.631   8.196  66.067  1.00  0.00     0.000 HD 
HETATM   23  C   UNL     1      -7.102  10.416  66.075  1.00  0.00    -0.133 C  
HETATM   24  O   UNL     1      -6.251   8.236  66.785  1.00  0.00    -0.052 OA 
BRANCH  18  25
HETATM   25  C   UNL     1      -6.749  10.003  69.647  1.00  0.00    -0.068 C  
BRANCH  25  26
HETATM   26  O   UNL     1      -7.743   9.882  70.666  1.00  0.00    -0.289 OA 
BRANCH  26  27
HETATM   27  P   UNL     1      -7.407   8.825  71.826  1.00  0.00     0.089 P  
HETATM   28  O   UNL     1      -5.996   9.456  72.297  1.00  0.00    -0.253 OA 
HETATM   29  O   UNL     1      -8.406   8.718  72.939  1.00  0.00    -0.414 OA 
BRANCH  27  30
HETATM   30  O   UNL     1      -7.157   7.423  71.025  1.00  0.00    -0.058 OA 
HETATM   31  P   UNL     1      -8.566   6.522  70.583  1.00  0.00    -0.140 P  
HETATM   32  C   UNL     1     -10.057   5.570  70.115  1.00  0.00    -0.239 C  
HETATM   33  O   UNL     1      -8.620   5.970  72.138  1.00  0.00    -0.128 OA 
HETATM   34  O   UNL     1      -9.429   7.809  70.512  1.00  0.00    -0.163 OA 
HETATM   35 CL   UNL     1     -11.459   5.845  71.256  1.00  0.00    -0.250 Cl 
HETATM   36  P   UNL     1     -10.699   6.189  68.517  1.00  0.00    -0.305 P  
HETATM   37 CL   UNL     1      -9.676   3.820  70.237  1.00  0.00    -0.261 Cl 
HETATM   38  O   UNL     1      -9.999   4.901  67.743  1.00  0.00    -0.161 OA 
HETATM   39  O   UNL     1      -9.311   7.060  68.251  1.00  0.00    -0.129 OA 
HETATM   40  O   UNL     1     -11.242   6.712  67.164  1.00  0.00    -0.392 OA 
ENDBRANCH  27  30
ENDBRANCH  26  27
ENDBRANCH  25  26
ENDBRANCH  18  25
ENDBRANCH  11  16
BRANCH  14  41
HETATM   41  S   UNL     1     -11.839  14.984  68.824  1.00  0.00    -0.268 SA 
BRANCH  41  42
HETATM   42  C   UNL     1     -11.926  15.811  70.448  1.00  0.00    -0.359 C  
BRANCH  42  43
HETATM   43  C   UNL     1     -13.118  15.249  71.212  1.00  0.00    -0.540 C  
HETATM   44  C   UNL     1     -13.044  15.560  72.691  1.00  0.00    -0.459 C  
HETATM   45  F   UNL     1     -14.165  16.203  73.097  1.00  0.00    -0.673 F  
HETATM   46  F   UNL     1     -11.991  16.334  73.016  1.00  0.00    -0.522 F  
HETATM   47  F   UNL     1     -12.956  14.423  73.416  1.00  0.00    -0.579 F  
ENDBRANCH  42  43
ENDBRANCH  41  42
ENDBRANCH  14  41
ENDBRANCH   5   7
ENDBRANCH   4   5
ENDBRANCH   3   4
ENDBRANCH   2   3
TORSDOF 12
ENDMDL
MODEL       54
REMARK 921   NORMALIZED FREE ENERGY PREDICTED BY IDOCK:   -5.87 KCAL/MOL
REMARK 922        TOTAL FREE ENERGY PREDICTED BY IDOCK:  -10.99 KCAL/MOL
REMARK 923 INTER-LIGAND FREE ENERGY PREDICTED BY IDOCK:   -9.47 KCAL/MOL
REMARK 924 INTRA-LIGAND FREE ENERGY PREDICTED BY IDOCK:   -1.53 KCAL/MOL
REMARK 927      BINDING AFFINITY PREDICTED BY RF-SCORE:    0.00 PKD
ROOT
HETATM    1  C   UNL     1      -9.650  10.454  63.811  1.00  0.00    -0.310 C  
HETATM    2  S   UNL     1      -8.101   9.926  63.046  1.00  0.00    -0.158 SA 
ENDROOT
BRANCH   2   3
HETATM    3  C   UNL     1      -7.338   9.061  64.471  1.00  0.00    -0.099 C  
BRANCH   3   4
HETATM    4  C   UNL     1      -8.231   7.919  65.001  1.00  0.00    -0.131 C  
BRANCH   4   5
HETATM    5  N   UNL     1      -7.552   7.177  66.049  1.00  0.00    -0.086 NA 
HETATM    6  H   UNL     1      -6.817   6.515  65.801  1.00  0.00     0.000 HD 
BRANCH   5   7
HETATM    7  C   UNL     1      -7.888   7.356  67.379  1.00  0.00    -0.111 A  
HETATM    8  C   UNL     1      -9.113   6.881  67.872  1.00  0.00    -0.122 A  
HETATM    9  N   UNL     1     -10.137   6.173  67.272  1.00  0.00    -0.147 NA 
HETATM   10  C   UNL     1     -10.997   5.928  68.247  1.00  0.00    -0.170 A  
HETATM   11  N   UNL     1     -10.586   6.474  69.446  1.00  0.00    -0.222 NA 
HETATM   12  C   UNL     1      -9.385   7.081  69.217  1.00  0.00    -0.145 A  
HETATM   13  N   UNL     1      -7.058   7.999  68.252  1.00  0.00    -0.086 NA 
HETATM   14  C   UNL     1      -7.464   8.166  69.527  1.00  0.00    -0.087 A  
HETATM   15  N   UNL     1      -8.610   7.721  70.095  1.00  0.00    -0.137 NA 
BRANCH  11  16
HETATM   16  C   UNL     1     -11.240   6.227  70.712  1.00  0.00    -0.324 C  
HETATM   17  O   UNL     1     -12.127   7.323  70.963  1.00  0.00    -0.321 OA 
HETATM   18  C   UNL     1     -11.557   8.187  71.961  1.00  0.00    -0.330 C  
HETATM   19  H   UNL     1     -10.630   5.159  73.765  1.00  0.00     0.000 HD 
HETATM   20  O   UNL     1     -11.134   5.253  72.966  1.00  0.00    -0.272 OA 
HETATM   21  C   UNL     1     -10.347   7.481  72.562  1.00  0.00    -0.240 C  
HETATM   22  H   UNL     1      -9.689   7.058  74.368  1.00  0.00     0.000 HD 
HETATM   23  C   UNL     1     -10.423   6.074  72.005  1.00  0.00    -0.209 C  
HETATM   24  O   UNL     1     -10.443   7.498  73.993  1.00  0.00    -0.197 OA 
BRANCH  18  25
HETATM   25  C   UNL     1     -11.180   9.553  71.386  1.00  0.00    -0.382 C  
BRANCH  25  26
HETATM   26  O   UNL     1     -11.962   9.721  70.203  1.00  0.00    -0.160 OA 
BRANCH  26  27
HETATM   27  P   UNL     1     -11.226  10.489  69.002  1.00  0.00    -0.241 P  
HETATM   28  O   UNL     1      -9.838  10.813  69.764  1.00  0.00    -0.032 OA 
HETATM   29  O   UNL     1     -11.036   9.714  67.732  1.00  0.00    -0.260 OA 
BRANCH  27  30
HETATM   30  O   UNL     1     -12.096  11.860  68.814  1.00  0.00    -0.303 OA 
HETATM   31  P   UNL     1     -11.557  12.958  67.592  1.00  0.00    -0.362 P  
HETATM   32  C   UNL     1     -10.985  14.119  66.297  1.00  0.00    -0.303 C  
HETATM   33  O   UNL     1     -10.410  13.478  68.658  1.00  0.00    -0.241 OA 
HETATM   34  O   UNL     1     -10.934  11.806  66.759  1.00  0.00    -0.260 OA 
HETATM   35 CL   UNL     1      -9.184  14.018  66.002  1.00  0.00    -0.071 Cl 
HETATM   36  P   UNL     1     -11.695  13.630  64.683  1.00  0.00    -0.430 P  
HETATM   37 CL   UNL     1     -11.285  15.796  66.864  1.00  0.00    -0.136 Cl 
HETATM   38  O   UNL     1     -12.836  14.823  64.830  1.00  0.00    -0.457 OA 
HETATM   39  O   UNL     1     -12.749  12.579  65.420  1.00  0.00    -0.624 OA 
HETATM   40  O   UNL     1     -12.297  13.217  63.317  1.00  0.00    -0.721 OA 
ENDBRANCH  27  30
ENDBRANCH  26  27
ENDBRANCH  25  26
ENDBRANCH  18  25
ENDBRANCH  11  16
BRANCH  14  41
HETATM   41  S   UNL     1      -6.412   9.081  70.633  1.00  0.00    -0.064 SA 
BRANCH  41  42
HETATM   42  C   UNL     1      -5.574  10.188  69.450  1.00  0.00    -0.037 C  
BRANCH  42  43
HETATM   43  C   UNL     1      -6.485  11.376  69.172  1.00  0.00    -0.085 C  
HETATM   44  C   UNL     1      -6.617  11.659  67.692  1.00  0.00    -0.082 C  
HETATM   45  F   UNL     1      -7.919  11.654  67.322  1.00  0.00    -0.127 F  
HETATM   46  F   UNL     1      -5.972  10.760  66.923  1.00  0.00    -0.051 F  
HETATM   47  F   UNL     1      -6.125  12.882  67.392  1.00  0.00    -0.135 F  
ENDBRANCH  42  43
ENDBRANCH  41  42
ENDBRANCH  14  41
ENDBRANCH   5   7
ENDBRANCH   4   5
ENDBRANCH   3   4
ENDBRANCH   2   3
TORSDOF 12
ENDMDL
MODEL       55
REMARK 921   NORMALIZED FREE ENERGY PREDICTED BY IDOCK:   -5.86 KCAL/MOL
REMARK 922        TOTAL FREE ENERGY PREDICTED BY IDOCK:  -10.99 KCAL/MOL
REMARK 923 INTER-LIGAND FREE ENERGY PREDICTED BY IDOCK:   -9.97 KCAL/MOL
REMARK 924 INTRA-LIGAND FREE ENERGY PREDICTED BY IDOCK:   -1.02 KCAL/MOL
REMARK 927      BINDING AFFINITY PREDICTED BY RF-SCORE:    0.00 PKD
ROOT
HETATM    1  C   UNL     1      -9.560  19.888  66.964  1.00  0.00    -0.388 C  
HETATM    2  S   UNL     1      -7.990  19.691  66.092  1.00  0.00    -0.327 SA 
ENDROOT
BRANCH   2   3
HETATM    3  C   UNL     1      -7.203  18.430  67.164  1.00  0.00    -0.204 C  
BRANCH   3   4
HETATM    4  C   UNL     1      -7.958  18.251  68.498  1.00  0.00    -0.308 C  
BRANCH   4   5
HETATM    5  N   UNL     1      -7.490  17.070  69.201  1.00  0.00    -0.209 NA 
HETATM    6  H   UNL     1      -7.017  17.173  70.098  1.00  0.00     0.000 HD 
BRANCH   5   7
HETATM    7  C   UNL     1      -7.677  15.805  68.671  1.00  0.00    -0.153 A  
HETATM    8  C   UNL     1      -8.955  15.387  68.267  1.00  0.00    -0.185 A  
HETATM    9  N   UNL     1     -10.174  16.036  68.246  1.00  0.00    -0.232 NA 
HETATM   10  C   UNL     1     -11.007  15.175  67.682  1.00  0.00    -0.308 A  
HETATM   11  N   UNL     1     -10.382  13.987  67.365  1.00  0.00    -0.258 NA 
HETATM   12  C   UNL     1      -9.073  14.112  67.732  1.00  0.00    -0.190 A  
HETATM   13  N   UNL     1      -6.644  14.924  68.527  1.00  0.00    -0.089 NA 
HETATM   14  C   UNL     1      -6.906  13.697  68.033  1.00  0.00    -0.138 A  
HETATM   15  N   UNL     1      -8.094  13.217  67.594  1.00  0.00    -0.162 NA 
BRANCH  11  16
HETATM   16  C   UNL     1     -10.999  12.930  66.594  1.00  0.00    -0.276 C  
HETATM   17  O   UNL     1     -12.157  12.487  67.314  1.00  0.00    -0.490 OA 
HETATM   18  C   UNL     1     -11.881  11.225  67.942  1.00  0.00    -0.133 C  
HETATM   19  H   UNL     1     -10.258  10.254  64.826  1.00  0.00     0.000 HD 
HETATM   20  O   UNL     1     -10.735  11.049  65.035  1.00  0.00    -0.274 OA 
HETATM   21  C   UNL     1     -10.553  10.707  67.401  1.00  0.00    -0.256 C  
HETATM   22  H   UNL     1      -9.884   9.030  66.620  1.00  0.00     0.000 HD 
HETATM   23  C   UNL     1     -10.228  11.645  66.256  1.00  0.00    -0.227 C  
HETATM   24  O   UNL     1     -10.711   9.352  66.957  1.00  0.00    -0.229 OA 
BRANCH  18  25
HETATM   25  C   UNL     1     -11.856  11.339  69.468  1.00  0.00    -0.357 C  
BRANCH  25  26
HETATM   26  O   UNL     1     -12.987  10.609  69.943  1.00  0.00    -0.119 OA 
BRANCH  26  27
HETATM   27  P   UNL     1     -12.893  10.121  71.469  1.00  0.00    -0.500 P  
HETATM   28  O   UNL     1     -13.223  11.537  72.174  1.00  0.00    -0.505 OA 
HETATM   29  O   UNL     1     -13.833   9.025  71.877  1.00  0.00    -0.404 OA 
BRANCH  27  30
HETATM   30  O   UNL     1     -11.316   9.747  71.670  1.00  0.00    -0.349 OA 
HETATM   31  P   UNL     1     -10.923   8.064  71.745  1.00  0.00    -0.287 P  
HETATM   32  C   UNL     1     -10.508   6.283  71.823  1.00  0.00    -0.211 C  
HETATM   33  O   UNL     1     -11.426   8.084  73.317  1.00  0.00    -0.254 OA 
HETATM   34  O   UNL     1     -12.146   7.687  70.867  1.00  0.00    -0.284 OA 
HETATM   35 CL   UNL     1     -11.879   5.266  72.479  1.00  0.00    -0.147 Cl 
HETATM   36  P   UNL     1     -10.287   5.632  70.127  1.00  0.00    -0.303 P  
HETATM   37 CL   UNL     1      -9.153   6.064  72.981  1.00  0.00    -0.131 Cl 
HETATM   38  O   UNL     1      -8.643   5.719  70.314  1.00  0.00    -0.128 OA 
HETATM   39  O   UNL     1     -10.262   7.170  69.498  1.00  0.00    -0.185 OA 
HETATM   40  O   UNL     1     -10.099   5.082  68.692  1.00  0.00    -0.165 OA 
ENDBRANCH  27  30
ENDBRANCH  26  27
ENDBRANCH  25  26
ENDBRANCH  18  25
ENDBRANCH  11  16
BRANCH  14  41
HETATM   41  S   UNL     1      -5.567  12.527  67.931  1.00  0.00    -0.108 SA 
BRANCH  41  42
HETATM   42  C   UNL     1      -5.813  11.610  69.490  1.00  0.00    -0.080 C  
BRANCH  42  43
HETATM   43  C   UNL     1      -5.993  10.135  69.157  1.00  0.00    -0.037 C  
HETATM   44  C   UNL     1      -7.409   9.664  69.406  1.00  0.00    -0.081 C  
HETATM   45  F   UNL     1      -7.928   9.110  68.284  1.00  0.00    -0.098 F  
HETATM   46  F   UNL     1      -8.236  10.656  69.789  1.00  0.00    -0.141 F  
HETATM   47  F   UNL     1      -7.437   8.714  70.366  1.00  0.00    -0.055 F  
ENDBRANCH  42  43
ENDBRANCH  41  42
ENDBRANCH  14  41
ENDBRANCH   5   7
ENDBRANCH   4   5
ENDBRANCH   3   4
ENDBRANCH   2   3
TORSDOF 12
ENDMDL
MODEL       56
REMARK 921   NORMALIZED FREE ENERGY PREDICTED BY IDOCK:   -5.85 KCAL/MOL
REMARK 922        TOTAL FREE ENERGY PREDICTED BY IDOCK:  -10.97 KCAL/MOL
REMARK 923 INTER-LIGAND FREE ENERGY PREDICTED BY IDOCK:   -9.33 KCAL/MOL
REMARK 924 INTRA-LIGAND FREE ENERGY PREDICTED BY IDOCK:   -1.64 KCAL/MOL
REMARK 927      BINDING AFFINITY PREDICTED BY RF-SCORE:    0.00 PKD
ROOT
HETATM    1  C   UNL     1     -13.425  15.051  72.073  1.00  0.00    -0.401 C  
HETATM    2  S   UNL     1     -14.010  13.356  72.294  1.00  0.00    -0.392 SA 
ENDROOT
BRANCH   2   3
HETATM    3  C   UNL     1     -12.784  12.474  71.255  1.00  0.00    -0.252 C  
BRANCH   3   4
HETATM    4  C   UNL     1     -12.785  10.954  71.525  1.00  0.00    -0.428 C  
BRANCH   4   5
HETATM    5  N   UNL     1     -12.208  10.231  70.404  1.00  0.00    -0.392 NA 
HETATM    6  H   UNL     1     -12.544  10.418  69.460  1.00  0.00     0.000 HD 
BRANCH   5   7
HETATM    7  C   UNL     1     -11.210   9.293  70.600  1.00  0.00    -0.276 A  
HETATM    8  C   UNL     1     -10.776   8.486  69.537  1.00  0.00    -0.174 A  
HETATM    9  N   UNL     1     -11.133   8.446  68.203  1.00  0.00     0.240 NA 
HETATM   10  C   UNL     1     -10.329   7.544  67.664  1.00  0.00    -0.229 A  
HETATM   11  N   UNL     1      -9.489   6.978  68.599  1.00  0.00    -0.136 NA 
HETATM   12  C   UNL     1      -9.763   7.574  69.797  1.00  0.00    -0.171 A  
HETATM   13  N   UNL     1     -10.622   9.111  71.819  1.00  0.00    -0.358 NA 
HETATM   14  C   UNL     1      -9.678   8.156  71.945  1.00  0.00    -0.205 A  
HETATM   15  N   UNL     1      -9.178   7.353  70.975  1.00  0.00    -0.153 NA 
BRANCH  11  16
HETATM   16  C   UNL     1      -8.397   6.087  68.271  1.00  0.00    -0.113 C  
HETATM   17  O   UNL     1      -7.242   6.895  68.011  1.00  0.00    -0.086 OA 
HETATM   18  C   UNL     1      -7.000   6.952  66.596  1.00  0.00    -0.063 C  
HETATM   19  H   UNL     1      -7.710   3.378  66.533  1.00  0.00     0.000 HD 
HETATM   20  O   UNL     1      -7.653   3.967  67.276  1.00  0.00    -0.072 OA 
HETATM   21  C   UNL     1      -7.906   5.928  65.920  1.00  0.00    -0.105 C  
HETATM   22  H   UNL     1      -7.691   4.469  64.618  1.00  0.00     0.000 HD 
HETATM   23  C   UNL     1      -8.490   5.133  67.070  1.00  0.00    -0.106 C  
HETATM   24  O   UNL     1      -7.127   5.107  65.039  1.00  0.00    -0.060 OA 
BRANCH  18  25
HETATM   25  C   UNL     1      -7.227   8.357  66.033  1.00  0.00    -0.073 C  
BRANCH  25  26
HETATM   26  O   UNL     1      -8.214   8.225  65.010  1.00  0.00    -0.146 OA 
BRANCH  26  27
HETATM   27  P   UNL     1      -7.994   9.158  63.724  1.00  0.00    -0.165 P  
HETATM   28  O   UNL     1      -6.545   8.589  63.286  1.00  0.00    -0.085 OA 
HETATM   29  O   UNL     1      -9.023   9.050  62.637  1.00  0.00    -0.181 OA 
BRANCH  27  30
HETATM   30  O   UNL     1      -7.843  10.662  64.344  1.00  0.00    -0.040 OA 
HETATM   31  P   UNL     1      -9.308  11.548  64.588  1.00  0.00     0.158 P  
HETATM   32  C   UNL     1     -10.858  12.485  64.847  1.00  0.00    -0.293 C  
HETATM   33  O   UNL     1      -9.293  11.891  62.973  1.00  0.00    -0.326 OA 
HETATM   34  O   UNL     1     -10.125  10.244  64.783  1.00  0.00    -0.344 OA 
HETATM   35 CL   UNL     1     -12.180  12.002  63.680  1.00  0.00    -0.630 Cl 
HETATM   36  P   UNL     1     -11.569  12.051  66.477  1.00  0.00    -0.125 P  
HETATM   37 CL   UNL     1     -10.537  14.221  64.516  1.00  0.00    -0.347 Cl 
HETATM   38  O   UNL     1     -10.963  13.458  67.110  1.00  0.00    -0.273 OA 
HETATM   39  O   UNL     1     -10.166  11.284  66.928  1.00  0.00    -0.206 OA 
HETATM   40  O   UNL     1     -12.169  11.685  67.856  1.00  0.00    -0.560 OA 
ENDBRANCH  27  30
ENDBRANCH  26  27
ENDBRANCH  25  26
ENDBRANCH  18  25
ENDBRANCH  11  16
BRANCH  14  41
HETATM   41  S   UNL     1      -8.980   7.869  73.557  1.00  0.00    -0.274 SA 
BRANCH  41  42
HETATM   42  C   UNL     1     -10.164   6.646  74.215  1.00  0.00    -0.326 C  
BRANCH  42  43
HETATM   43  C   UNL     1      -9.793   5.274  73.667  1.00  0.00    -0.171 C  
HETATM   44  C   UNL     1     -10.760   4.806  72.602  1.00  0.00    -0.199 C  
HETATM   45  F   UNL     1     -10.097   4.505  71.460  1.00  0.00    -0.236 F  
HETATM   46  F   UNL     1     -11.696   5.726  72.298  1.00  0.00    -0.332 F  
HETATM   47  F   UNL     1     -11.401   3.683  72.995  1.00  0.00    -0.221 F  
ENDBRANCH  42  43
ENDBRANCH  41  42
ENDBRANCH  14  41
ENDBRANCH   5   7
ENDBRANCH   4   5
ENDBRANCH   3   4
ENDBRANCH   2   3
TORSDOF 12
ENDMDL
MODEL       57
REMARK 921   NORMALIZED FREE ENERGY PREDICTED BY IDOCK:   -5.84 KCAL/MOL
REMARK 922        TOTAL FREE ENERGY PREDICTED BY IDOCK:  -10.95 KCAL/MOL
REMARK 923 INTER-LIGAND FREE ENERGY PREDICTED BY IDOCK:  -10.16 KCAL/MOL
REMARK 924 INTRA-LIGAND FREE ENERGY PREDICTED BY IDOCK:   -0.79 KCAL/MOL
REMARK 927      BINDING AFFINITY PREDICTED BY RF-SCORE:    0.00 PKD
ROOT
HETATM    1  C   UNL     1     -10.839  15.402  67.045  1.00  0.00    -0.320 C  
HETATM    2  S   UNL     1     -10.215  15.198  65.361  1.00  0.00    -0.368 SA 
ENDROOT
BRANCH   2   3
HETATM    3  C   UNL     1     -11.797  14.893  64.486  1.00  0.00    -0.396 C  
BRANCH   3   4
HETATM    4  C   UNL     1     -12.822  14.165  65.382  1.00  0.00    -0.368 C  
BRANCH   4   5
HETATM    5  N   UNL     1     -12.739  12.727  65.197  1.00  0.00    -0.740 NA 
HETATM    6  H   UNL     1     -13.395  12.261  64.570  1.00  0.00     0.000 HD 
BRANCH   5   7
HETATM    7  C   UNL     1     -11.781  11.979  65.859  1.00  0.00    -0.242 A  
HETATM    8  C   UNL     1     -10.771  11.321  65.139  1.00  0.00    -0.246 A  
HETATM    9  N   UNL     1     -10.473  11.286  63.791  1.00  0.00    -0.372 NA 
HETATM   10  C   UNL     1      -9.359  10.575  63.709  1.00  0.00    -0.281 A  
HETATM   11  N   UNL     1      -8.943  10.126  64.944  1.00  0.00    -0.180 NA 
HETATM   12  C   UNL     1      -9.835  10.598  65.864  1.00  0.00    -0.243 A  
HETATM   13  N   UNL     1     -11.784  11.845  67.218  1.00  0.00    -0.577 NA 
HETATM   14  C   UNL     1     -10.839  11.074  67.794  1.00  0.00    -0.249 A  
HETATM   15  N   UNL     1      -9.815  10.428  67.187  1.00  0.00    -0.175 NA 
BRANCH  11  16
HETATM   16  C   UNL     1      -7.675   9.469  65.180  1.00  0.00    -0.112 C  
HETATM   17  O   UNL     1      -7.863   8.068  64.945  1.00  0.00    -0.113 OA 
HETATM   18  C   UNL     1      -7.922   7.371  66.200  1.00  0.00    -0.112 C  
HETATM   19  H   UNL     1      -5.125   9.454  67.260  1.00  0.00     0.000 HD 
HETATM   20  O   UNL     1      -5.550   9.403  66.412  1.00  0.00    -0.050 OA 
HETATM   21  C   UNL     1      -7.509   8.343  67.300  1.00  0.00    -0.093 C  
HETATM   22  H   UNL     1      -6.239   8.344  68.803  1.00  0.00     0.000 HD 
HETATM   23  C   UNL     1      -6.986   9.551  66.551  1.00  0.00    -0.085 C  
HETATM   24  O   UNL     1      -6.497   7.739  68.118  1.00  0.00    -0.051 OA 
BRANCH  18  25
HETATM   25  C   UNL     1      -9.310   6.786  66.464  1.00  0.00    -0.161 C  
BRANCH  25  26
HETATM   26  O   UNL     1      -9.212   5.385  66.202  1.00  0.00    -0.149 OA 
BRANCH  26  27
HETATM   27  P   UNL     1      -9.123   4.452  67.504  1.00  0.00    -0.149 P  
HETATM   28  O   UNL     1      -9.503   3.050  66.796  1.00  0.00    -0.138 OA 
HETATM   29  O   UNL     1      -7.800   4.416  68.210  1.00  0.00    -0.078 OA 
BRANCH  27  30
HETATM   30  O   UNL     1     -10.360   4.960  68.443  1.00  0.00    -0.083 OA 
HETATM   31  P   UNL     1      -9.976   5.351  70.084  1.00  0.00    -0.276 P  
HETATM   32  C   UNL     1      -9.568   5.765  71.819  1.00  0.00    -0.155 C  
HETATM   33  O   UNL     1     -10.004   3.733  70.407  1.00  0.00    -0.137 OA 
HETATM   34  O   UNL     1      -8.518   5.728  69.707  1.00  0.00    -0.119 OA 
HETATM   35 CL   UNL     1      -8.140   4.817  72.456  1.00  0.00    -0.109 Cl 
HETATM   36  P   UNL     1      -8.987   7.498  71.913  1.00  0.00    -0.127 P  
HETATM   37 CL   UNL     1     -10.956   5.296  72.857  1.00  0.00    -0.315 Cl 
HETATM   38  O   UNL     1     -10.478   7.963  72.465  1.00  0.00    -0.249 OA 
HETATM   39  O   UNL     1      -9.505   7.797  70.364  1.00  0.00    -0.163 OA 
HETATM   40  O   UNL     1      -8.496   8.964  71.992  1.00  0.00    -0.367 OA 
ENDBRANCH  27  30
ENDBRANCH  26  27
ENDBRANCH  25  26
ENDBRANCH  18  25
ENDBRANCH  11  16
BRANCH  14  41
HETATM   41  S   UNL     1     -10.904  10.838  69.557  1.00  0.00    -0.230 SA 
BRANCH  41  42
HETATM   42  C   UNL     1     -12.639  11.297  69.886  1.00  0.00    -0.064 C  
BRANCH  42  43
HETATM   43  C   UNL     1     -12.680  12.161  71.140  1.00  0.00    -0.351 C  
HETATM   44  C   UNL     1     -12.660  13.638  70.815  1.00  0.00    -0.325 C  
HETATM   45  F   UNL     1     -13.724  14.261  71.375  1.00  0.00    -0.393 F  
HETATM   46  F   UNL     1     -12.693  13.888  69.491  1.00  0.00    -0.320 F  
HETATM   47  F   UNL     1     -11.549  14.224  71.314  1.00  0.00    -0.331 F  
ENDBRANCH  42  43
ENDBRANCH  41  42
ENDBRANCH  14  41
ENDBRANCH   5   7
ENDBRANCH   4   5
ENDBRANCH   3   4
ENDBRANCH   2   3
TORSDOF 12
ENDMDL
MODEL       58
REMARK 921   NORMALIZED FREE ENERGY PREDICTED BY IDOCK:   -5.82 KCAL/MOL
REMARK 922        TOTAL FREE ENERGY PREDICTED BY IDOCK:  -10.91 KCAL/MOL
REMARK 923 INTER-LIGAND FREE ENERGY PREDICTED BY IDOCK:  -10.11 KCAL/MOL
REMARK 924 INTRA-LIGAND FREE ENERGY PREDICTED BY IDOCK:   -0.80 KCAL/MOL
REMARK 927      BINDING AFFINITY PREDICTED BY RF-SCORE:    0.00 PKD
ROOT
HETATM    1  C   UNL     1      -5.309  14.907  69.495  1.00  0.00    -0.088 C  
HETATM    2  S   UNL     1      -6.864  14.012  69.283  1.00  0.00    -0.078 SA 
ENDROOT
BRANCH   2   3
HETATM    3  C   UNL     1      -8.045  15.388  69.548  1.00  0.00    -0.207 C  
BRANCH   3   4
HETATM    4  C   UNL     1      -8.520  16.008  68.217  1.00  0.00    -0.177 C  
BRANCH   4   5
HETATM    5  N   UNL     1      -9.952  15.827  68.046  1.00  0.00    -0.221 NA 
HETATM    6  H   UNL     1     -10.503  16.564  67.607  1.00  0.00     0.000 HD 
BRANCH   5   7
HETATM    7  C   UNL     1     -10.578  14.668  68.471  1.00  0.00    -0.245 A  
HETATM    8  C   UNL     1     -10.359  13.456  67.798  1.00  0.00    -0.241 A  
HETATM    9  N   UNL     1      -9.550  13.128  66.727  1.00  0.00    -0.243 NA 
HETATM   10  C   UNL     1      -9.688  11.819  66.586  1.00  0.00    -0.202 A  
HETATM   11  N   UNL     1     -10.575  11.293  67.502  1.00  0.00    -0.207 NA 
HETATM   12  C   UNL     1     -11.007  12.329  68.281  1.00  0.00    -0.232 A  
HETATM   13  N   UNL     1     -11.426  14.658  69.540  1.00  0.00    -0.281 NA 
HETATM   14  C   UNL     1     -12.027  13.499  69.878  1.00  0.00    -0.348 A  
HETATM   15  N   UNL     1     -11.857  12.282  69.308  1.00  0.00    -0.313 NA 
BRANCH  11  16
HETATM   16  C   UNL     1     -10.796   9.876  67.692  1.00  0.00    -0.257 C  
HETATM   17  O   UNL     1     -10.495   9.570  69.059  1.00  0.00    -0.202 OA 
HETATM   18  C   UNL     1      -9.224   8.904  69.136  1.00  0.00    -0.144 C  
HETATM   19  H   UNL     1     -10.286   6.968  66.237  1.00  0.00     0.000 HD 
HETATM   20  O   UNL     1     -10.771   7.610  66.743  1.00  0.00    -0.318 OA 
HETATM   21  C   UNL     1      -8.791   8.545  67.719  1.00  0.00    -0.137 C  
HETATM   22  H   UNL     1      -8.152   6.936  66.785  1.00  0.00     0.000 HD 
HETATM   23  C   UNL     1     -10.012   8.839  66.872  1.00  0.00    -0.257 C  
HETATM   24  O   UNL     1      -8.422   7.160  67.667  1.00  0.00    -0.119 OA 
BRANCH  18  25
HETATM   25  C   UNL     1      -8.172   9.761  69.842  1.00  0.00    -0.183 C  
BRANCH  25  26
HETATM   26  O   UNL     1      -7.175   8.859  70.322  1.00  0.00    -0.044 OA 
BRANCH  26  27
HETATM   27  P   UNL     1      -7.281   8.489  71.880  1.00  0.00    -0.024 P  
HETATM   28  O   UNL     1      -6.222   9.576  72.437  1.00  0.00    -0.294 OA 
HETATM   29  O   UNL     1      -8.639   8.615  72.504  1.00  0.00    -0.364 OA 
BRANCH  27  30
HETATM   30  O   UNL     1      -6.647   6.986  71.976  1.00  0.00    -0.055 OA 
HETATM   31  P   UNL     1      -7.772   5.675  72.045  1.00  0.00    -0.103 P  
HETATM   32  C   UNL     1      -8.963   4.287  72.117  1.00  0.00    -0.116 C  
HETATM   33  O   UNL     1      -7.971   6.015  73.648  1.00  0.00    -0.103 OA 
HETATM   34  O   UNL     1      -8.839   6.481  71.259  1.00  0.00    -0.137 OA 
HETATM   35 CL   UNL     1     -10.557   4.761  72.878  1.00  0.00    -0.260 Cl 
HETATM   36  P   UNL     1      -9.445   3.808  70.417  1.00  0.00    -0.168 P  
HETATM   37 CL   UNL     1      -8.286   3.009  73.180  1.00  0.00    -0.074 Cl 
HETATM   38  O   UNL     1      -8.401   2.523  70.489  1.00  0.00    -0.048 OA 
HETATM   39  O   UNL     1      -8.221   4.724  69.769  1.00  0.00    -0.068 OA 
HETATM   40  O   UNL     1      -9.852   3.402  68.980  1.00  0.00    -0.014 OA 
ENDBRANCH  27  30
ENDBRANCH  26  27
ENDBRANCH  25  26
ENDBRANCH  18  25
ENDBRANCH  11  16
BRANCH  14  41
HETATM   41  S   UNL     1     -13.196  13.516  71.220  1.00  0.00    -0.154 SA 
BRANCH  41  42
HETATM   42  C   UNL     1     -13.490  15.310  71.377  1.00  0.00    -0.505 C  
BRANCH  42  43
HETATM   43  C   UNL     1     -13.666  15.642  72.853  1.00  0.00    -0.628 C  
HETATM   44  C   UNL     1     -12.342  15.716  73.582  1.00  0.00    -0.575 C  
HETATM   45  F   UNL     1     -12.206  16.914  74.198  1.00  0.00    -0.543 F  
HETATM   46  F   UNL     1     -11.281  15.556  72.767  1.00  0.00    -0.480 F  
HETATM   47  F   UNL     1     -12.268  14.766  74.541  1.00  0.00    -0.653 F  
ENDBRANCH  42  43
ENDBRANCH  41  42
ENDBRANCH  14  41
ENDBRANCH   5   7
ENDBRANCH   4   5
ENDBRANCH   3   4
ENDBRANCH   2   3
TORSDOF 12
ENDMDL
MODEL       59
REMARK 921   NORMALIZED FREE ENERGY PREDICTED BY IDOCK:   -5.79 KCAL/MOL
REMARK 922        TOTAL FREE ENERGY PREDICTED BY IDOCK:  -10.87 KCAL/MOL
REMARK 923 INTER-LIGAND FREE ENERGY PREDICTED BY IDOCK:  -10.10 KCAL/MOL
REMARK 924 INTRA-LIGAND FREE ENERGY PREDICTED BY IDOCK:   -0.76 KCAL/MOL
REMARK 927      BINDING AFFINITY PREDICTED BY RF-SCORE:    0.00 PKD
ROOT
HETATM    1  C   UNL     1     -14.231  15.175  71.648  1.00  0.00    -0.567 C  
HETATM    2  S   UNL     1     -12.534  14.572  71.507  1.00  0.00    -0.370 SA 
ENDROOT
BRANCH   2   3
HETATM    3  C   UNL     1     -11.757  16.033  70.718  1.00  0.00    -0.378 C  
BRANCH   3   4
HETATM    4  C   UNL     1     -12.132  16.152  69.225  1.00  0.00     0.039 C  
BRANCH   4   5
HETATM    5  N   UNL     1     -12.083  14.853  68.576  1.00  0.00    -0.581 NA 
HETATM    6  H   UNL     1     -12.903  14.248  68.599  1.00  0.00     0.000 HD 
BRANCH   5   7
HETATM    7  C   UNL     1     -10.937  14.425  67.928  1.00  0.00    -0.262 A  
HETATM    8  C   UNL     1     -10.900  13.164  67.311  1.00  0.00    -0.257 A  
HETATM    9  N   UNL     1     -11.859  12.181  67.164  1.00  0.00    -0.591 NA 
HETATM   10  C   UNL     1     -11.280  11.252  66.419  1.00  0.00    -0.121 A  
HETATM   11  N   UNL     1      -9.978  11.581  66.105  1.00  0.00    -0.216 NA 
HETATM   12  C   UNL     1      -9.727  12.800  66.668  1.00  0.00    -0.252 A  
HETATM   13  N   UNL     1      -9.812  15.195  67.869  1.00  0.00    -0.216 NA 
HETATM   14  C   UNL     1      -8.722  14.701  67.248  1.00  0.00    -0.208 A  
HETATM   15  N   UNL     1      -8.602  13.515  66.605  1.00  0.00    -0.017 NA 
BRANCH  11  16
HETATM   16  C   UNL     1      -9.159  10.838  65.173  1.00  0.00    -0.203 C  
HETATM   17  O   UNL     1      -9.583   9.470  65.218  1.00  0.00    -0.283 OA 
HETATM   18  C   UNL     1      -8.625   8.691  65.953  1.00  0.00    -0.157 C  
HETATM   19  H   UNL     1      -6.046  10.530  64.149  1.00  0.00     0.000 HD 
HETATM   20  O   UNL     1      -6.990  10.564  64.050  1.00  0.00    -0.026 OA 
HETATM   21  C   UNL     1      -7.392   9.558  66.189  1.00  0.00    -0.093 C  
HETATM   22  H   UNL     1      -5.450   9.380  65.932  1.00  0.00     0.000 HD 
HETATM   23  C   UNL     1      -7.631  10.784  65.332  1.00  0.00     0.040 C  
HETATM   24  O   UNL     1      -6.218   8.841  65.785  1.00  0.00    -0.054 OA 
BRANCH  18  25
HETATM   25  C   UNL     1      -9.202   8.169  67.270  1.00  0.00    -0.138 C  
BRANCH  25  26
HETATM   26  O   UNL     1      -8.428   8.765  68.311  1.00  0.00    -0.128 OA 
BRANCH  26  27
HETATM   27  P   UNL     1      -9.259   9.659  69.353  1.00  0.00    -0.216 P  
HETATM   28  O   UNL     1      -8.610  11.092  68.980  1.00  0.00    -0.146 OA 
HETATM   29  O   UNL     1     -10.752   9.632  69.213  1.00  0.00    -0.220 OA 
BRANCH  27  30
HETATM   30  O   UNL     1      -8.723   9.165  70.816  1.00  0.00    -0.205 OA 
HETATM   31  P   UNL     1      -9.614   7.892  71.576  1.00  0.00    -0.165 P  
HETATM   32  C   UNL     1     -10.557   6.545  72.380  1.00  0.00    -0.215 C  
HETATM   33  O   UNL     1     -10.720   9.029  72.034  1.00  0.00    -0.349 OA 
HETATM   34  O   UNL     1     -10.068   7.322  70.206  1.00  0.00    -0.190 OA 
HETATM   35 CL   UNL     1     -12.318   6.523  71.888  1.00  0.00    -0.388 Cl 
HETATM   36  P   UNL     1      -9.943   4.928  71.780  1.00  0.00    -0.196 P  
HETATM   37 CL   UNL     1     -10.558   6.829  74.153  1.00  0.00    -0.235 Cl 
HETATM   38  O   UNL     1      -9.071   4.748  73.178  1.00  0.00    -0.117 OA 
HETATM   39  O   UNL     1      -8.616   5.646  71.085  1.00  0.00    -0.125 OA 
HETATM   40  O   UNL     1      -9.422   3.561  71.274  1.00  0.00    -0.134 OA 
ENDBRANCH  27  30
ENDBRANCH  26  27
ENDBRANCH  25  26
ENDBRANCH  18  25
ENDBRANCH  11  16
BRANCH  14  41
HETATM   41  S   UNL     1      -7.234  15.679  67.252  1.00  0.00    -0.200 SA 
BRANCH  41  42
HETATM   42  C   UNL     1      -7.872  17.250  66.578  1.00  0.00    -0.287 C  
BRANCH  42  43
HETATM   43  C   UNL     1      -8.182  18.182  67.743  1.00  0.00    -0.245 C  
HETATM   44  C   UNL     1      -9.401  19.038  67.477  1.00  0.00    -0.298 C  
HETATM   45  F   UNL     1     -10.316  18.880  68.463  1.00  0.00    -0.388 F  
HETATM   46  F   UNL     1     -10.007  18.747  66.309  1.00  0.00    -0.331 F  
HETATM   47  F   UNL     1      -9.071  20.349  67.451  1.00  0.00    -0.414 F  
ENDBRANCH  42  43
ENDBRANCH  41  42
ENDBRANCH  14  41
ENDBRANCH   5   7
ENDBRANCH   4   5
ENDBRANCH   3   4
ENDBRANCH   2   3
TORSDOF 12
ENDMDL
MODEL       60
REMARK 921   NORMALIZED FREE ENERGY PREDICTED BY IDOCK:   -5.79 KCAL/MOL
REMARK 922        TOTAL FREE ENERGY PREDICTED BY IDOCK:  -10.85 KCAL/MOL
REMARK 923 INTER-LIGAND FREE ENERGY PREDICTED BY IDOCK:   -9.84 KCAL/MOL
REMARK 924 INTRA-LIGAND FREE ENERGY PREDICTED BY IDOCK:   -1.02 KCAL/MOL
REMARK 927      BINDING AFFINITY PREDICTED BY RF-SCORE:    0.00 PKD
ROOT
HETATM    1  C   UNL     1      -6.561  21.170  67.101  1.00  0.00    -0.354 C  
HETATM    2  S   UNL     1      -6.274  20.364  68.692  1.00  0.00    -0.312 SA 
ENDROOT
BRANCH   2   3
HETATM    3  C   UNL     1      -7.709  19.223  68.718  1.00  0.00    -0.362 C  
BRANCH   3   4
HETATM    4  C   UNL     1      -7.428  17.923  67.936  1.00  0.00    -0.216 C  
BRANCH   4   5
HETATM    5  N   UNL     1      -7.654  16.758  68.774  1.00  0.00    -0.229 NA 
HETATM    6  H   UNL     1      -7.364  16.778  69.752  1.00  0.00     0.000 HD 
BRANCH   5   7
HETATM    7  C   UNL     1      -8.256  15.621  68.265  1.00  0.00    -0.142 A  
HETATM    8  C   UNL     1      -7.476  14.526  67.861  1.00  0.00    -0.150 A  
HETATM    9  N   UNL     1      -6.114  14.299  67.899  1.00  0.00    -0.164 NA 
HETATM   10  C   UNL     1      -5.965  13.057  67.465  1.00  0.00    -0.109 A  
HETATM   11  N   UNL     1      -7.171  12.484  67.119  1.00  0.00    -0.106 NA 
HETATM   12  C   UNL     1      -8.141  13.411  67.370  1.00  0.00    -0.172 A  
HETATM   13  N   UNL     1      -9.610  15.522  68.130  1.00  0.00    -0.199 NA 
HETATM   14  C   UNL     1     -10.126  14.396  67.595  1.00  0.00    -0.222 A  
HETATM   15  N   UNL     1      -9.459  13.284  67.205  1.00  0.00    -0.231 NA 
BRANCH  11  16
HETATM   16  C   UNL     1      -7.333  11.089  66.771  1.00  0.00    -0.139 C  
HETATM   17  O   UNL     1      -7.942  10.432  67.890  1.00  0.00    -0.101 OA 
HETATM   18  C   UNL     1      -6.956   9.657  68.591  1.00  0.00    -0.064 C  
HETATM   19  H   UNL     1      -5.755   8.592  65.318  1.00  0.00     0.000 HD 
HETATM   20  O   UNL     1      -6.507   9.131  65.538  1.00  0.00    -0.066 OA 
HETATM   21  C   UNL     1      -5.692   9.618  67.739  1.00  0.00    -0.040 C  
HETATM   22  H   UNL     1      -4.463   8.237  67.067  1.00  0.00     0.000 HD 
HETATM   23  C   UNL     1      -6.118  10.218  66.415  1.00  0.00    -0.074 C  
HETATM   24  O   UNL     1      -5.250   8.261  67.597  1.00  0.00    -0.032 OA 
BRANCH  18  25
HETATM   25  C   UNL     1      -6.674  10.218  69.986  1.00  0.00    -0.137 C  
BRANCH  25  26
HETATM   26  O   UNL     1      -7.730   9.751  70.827  1.00  0.00    -0.308 OA 
BRANCH  26  27
HETATM   27  P   UNL     1      -7.290   8.693  71.951  1.00  0.00     0.052 P  
HETATM   28  O   UNL     1      -5.852   9.338  72.310  1.00  0.00    -0.170 OA 
HETATM   29  O   UNL     1      -8.195   8.571  73.141  1.00  0.00    -0.368 OA 
BRANCH  27  30
HETATM   30  O   UNL     1      -7.090   7.297  71.126  1.00  0.00    -0.059 OA 
HETATM   31  P   UNL     1      -8.527   6.426  70.720  1.00  0.00    -0.136 P  
HETATM   32  C   UNL     1     -10.049   5.504  70.290  1.00  0.00    -0.237 C  
HETATM   33  O   UNL     1      -8.541   5.856  72.269  1.00  0.00    -0.124 OA 
HETATM   34  O   UNL     1      -9.371   7.728  70.693  1.00  0.00    -0.161 OA 
HETATM   35 CL   UNL     1     -11.409   5.788  71.479  1.00  0.00    -0.253 Cl 
HETATM   36  P   UNL     1     -10.732   6.153  68.721  1.00  0.00    -0.331 P  
HETATM   37 CL   UNL     1      -9.695   3.746  70.378  1.00  0.00    -0.260 Cl 
HETATM   38  O   UNL     1     -10.080   4.864  67.910  1.00  0.00    -0.144 OA 
HETATM   39  O   UNL     1      -9.339   7.005  68.420  1.00  0.00    -0.132 OA 
HETATM   40  O   UNL     1     -11.310   6.702  67.393  1.00  0.00    -0.299 OA 
ENDBRANCH  27  30
ENDBRANCH  26  27
ENDBRANCH  25  26
ENDBRANCH  18  25
ENDBRANCH  11  16
BRANCH  14  41
HETATM   41  S   UNL     1     -11.886  14.313  67.344  1.00  0.00    -0.397 SA 
BRANCH  41  42
HETATM   42  C   UNL     1     -12.004  12.797  66.335  1.00  0.00    -0.375 C  
BRANCH  42  43
HETATM   43  C   UNL     1     -12.569  13.169  64.971  1.00  0.00    -0.499 C  
HETATM   44  C   UNL     1     -12.056  12.261  63.875  1.00  0.00    -0.506 C  
HETATM   45  F   UNL     1     -13.089  11.693  63.207  1.00  0.00    -0.652 F  
HETATM   46  F   UNL     1     -11.275  11.265  64.337  1.00  0.00    -0.395 F  
HETATM   47  F   UNL     1     -11.337  12.961  62.970  1.00  0.00    -0.465 F  
ENDBRANCH  42  43
ENDBRANCH  41  42
ENDBRANCH  14  41
ENDBRANCH   5   7
ENDBRANCH   4   5
ENDBRANCH   3   4
ENDBRANCH   2   3
TORSDOF 12
ENDMDL
MODEL       61
REMARK 921   NORMALIZED FREE ENERGY PREDICTED BY IDOCK:   -5.76 KCAL/MOL
REMARK 922        TOTAL FREE ENERGY PREDICTED BY IDOCK:  -10.81 KCAL/MOL
REMARK 923 INTER-LIGAND FREE ENERGY PREDICTED BY IDOCK:   -8.96 KCAL/MOL
REMARK 924 INTRA-LIGAND FREE ENERGY PREDICTED BY IDOCK:   -1.85 KCAL/MOL
REMARK 927      BINDING AFFINITY PREDICTED BY RF-SCORE:    0.00 PKD
ROOT
HETATM    1  C   UNL     1      -9.415  16.589  67.861  1.00  0.00    -0.220 C  
HETATM    2  S   UNL     1      -7.798  16.046  68.457  1.00  0.00    -0.171 SA 
ENDROOT
BRANCH   2   3
HETATM    3  C   UNL     1      -7.733  14.384  67.687  1.00  0.00    -0.184 C  
BRANCH   3   4
HETATM    4  C   UNL     1      -9.040  13.593  67.908  1.00  0.00    -0.198 C  
BRANCH   4   5
HETATM    5  N   UNL     1      -8.768  12.170  68.023  1.00  0.00    -0.173 NA 
HETATM    6  H   UNL     1      -8.624  11.759  68.944  1.00  0.00     0.000 HD 
BRANCH   5   7
HETATM    7  C   UNL     1      -8.701  11.366  66.899  1.00  0.00    -0.165 A  
HETATM    8  C   UNL     1      -7.915  10.203  66.904  1.00  0.00    -0.114 A  
HETATM    9  N   UNL     1      -7.151   9.611  67.890  1.00  0.00    -0.079 NA 
HETATM   10  C   UNL     1      -6.707   8.488  67.347  1.00  0.00    -0.063 A  
HETATM   11  N   UNL     1      -7.127   8.347  66.041  1.00  0.00    -0.068 NA 
HETATM   12  C   UNL     1      -7.900   9.434  65.749  1.00  0.00    -0.099 A  
HETATM   13  N   UNL     1      -9.381  11.669  65.754  1.00  0.00    -0.226 NA 
HETATM   14  C   UNL     1      -9.244  10.856  64.686  1.00  0.00    -0.197 A  
HETATM   15  N   UNL     1      -8.534   9.706  64.607  1.00  0.00    -0.160 NA 
BRANCH  11  16
HETATM   16  C   UNL     1      -6.934   7.147  65.255  1.00  0.00    -0.056 C  
HETATM   17  O   UNL     1      -8.226   6.575  65.014  1.00  0.00    -0.137 OA 
HETATM   18  C   UNL     1      -8.411   5.427  65.858  1.00  0.00    -0.123 C  
HETATM   19  H   UNL     1      -4.986   4.505  65.016  1.00  0.00     0.000 HD 
HETATM   20  O   UNL     1      -5.515   5.223  64.688  1.00  0.00    -0.012 OA 
HETATM   21  C   UNL     1      -7.071   5.096  66.507  1.00  0.00    -0.069 C  
HETATM   22  H   UNL     1      -5.945   3.498  66.726  1.00  0.00     0.000 HD 
HETATM   23  C   UNL     1      -6.079   5.985  65.785  1.00  0.00    -0.029 C  
HETATM   24  O   UNL     1      -6.779   3.704  66.322  1.00  0.00    -0.046 OA 
BRANCH  18  25
HETATM   25  C   UNL     1      -9.499   5.659  66.908  1.00  0.00    -0.135 C  
BRANCH  25  26
HETATM   26  O   UNL     1      -8.837   5.682  68.174  1.00  0.00    -0.110 OA 
BRANCH  26  27
HETATM   27  P   UNL     1      -9.595   4.905  69.355  1.00  0.00    -0.202 P  
HETATM   28  O   UNL     1      -9.625   3.441  68.671  1.00  0.00    -0.160 OA 
HETATM   29  O   UNL     1      -8.925   4.915  70.697  1.00  0.00    -0.119 OA 
BRANCH  27  30
HETATM   30  O   UNL     1     -11.094   5.553  69.360  1.00  0.00    -0.202 OA 
HETATM   31  P   UNL     1     -11.341   6.924  70.385  1.00  0.00    -0.326 P  
HETATM   32  C   UNL     1     -11.600   8.376  71.469  1.00  0.00    -0.284 C  
HETATM   33  O   UNL     1     -11.468   5.873  71.651  1.00  0.00    -0.259 OA 
HETATM   34  O   UNL     1      -9.851   7.342  70.271  1.00  0.00    -0.179 OA 
HETATM   35 CL   UNL     1     -10.494   8.379  72.925  1.00  0.00    -0.241 Cl 
HETATM   36  P   UNL     1     -11.112   9.898  70.578  1.00  0.00    -0.359 P  
HETATM   37 CL   UNL     1     -13.267   8.299  72.134  1.00  0.00    -0.314 Cl 
HETATM   38  O   UNL     1     -12.708  10.220  70.266  1.00  0.00    -0.236 OA 
HETATM   39  O   UNL     1     -11.032   9.076  69.137  1.00  0.00    -0.140 OA 
HETATM   40  O   UNL     1     -10.701  11.186  69.824  1.00  0.00    -0.161 OA 
ENDBRANCH  27  30
ENDBRANCH  26  27
ENDBRANCH  25  26
ENDBRANCH  18  25
ENDBRANCH  11  16
BRANCH  14  41
HETATM   41  S   UNL     1     -10.066  11.308  63.174  1.00  0.00    -0.311 SA 
BRANCH  41  42
HETATM   42  C   UNL     1     -11.723  11.727  63.812  1.00  0.00    -0.400 C  
BRANCH  42  43
HETATM   43  C   UNL     1     -11.823  13.242  63.936  1.00  0.00    -0.522 C  
HETATM   44  C   UNL     1     -12.203  13.675  65.335  1.00  0.00    -0.444 C  
HETATM   45  F   UNL     1     -11.287  14.543  65.827  1.00  0.00    -0.316 F  
HETATM   46  F   UNL     1     -12.294  12.647  66.200  1.00  0.00    -0.471 F  
HETATM   47  F   UNL     1     -13.393  14.315  65.332  1.00  0.00    -0.478 F  
ENDBRANCH  42  43
ENDBRANCH  41  42
ENDBRANCH  14  41
ENDBRANCH   5   7
ENDBRANCH   4   5
ENDBRANCH   3   4
ENDBRANCH   2   3
TORSDOF 12
ENDMDL
MODEL       62
REMARK 921   NORMALIZED FREE ENERGY PREDICTED BY IDOCK:   -5.75 KCAL/MOL
REMARK 922        TOTAL FREE ENERGY PREDICTED BY IDOCK:  -10.80 KCAL/MOL
REMARK 923 INTER-LIGAND FREE ENERGY PREDICTED BY IDOCK:   -8.87 KCAL/MOL
REMARK 924 INTRA-LIGAND FREE ENERGY PREDICTED BY IDOCK:   -1.93 KCAL/MOL
REMARK 927      BINDING AFFINITY PREDICTED BY RF-SCORE:    0.00 PKD
ROOT
HETATM    1  C   UNL     1     -12.742  13.567  65.472  1.00  0.00    -0.440 C  
HETATM    2  S   UNL     1     -12.243  13.530  63.736  1.00  0.00    -0.296 SA 
ENDROOT
BRANCH   2   3
HETATM    3  C   UNL     1     -11.629  11.806  63.633  1.00  0.00    -0.424 C  
BRANCH   3   4
HETATM    4  C   UNL     1     -10.263  11.634  64.331  1.00  0.00    -0.300 C  
BRANCH   4   5
HETATM    5  N   UNL     1     -10.122  10.291  64.864  1.00  0.00    -0.326 NA 
HETATM    6  H   UNL     1      -9.987   9.508  64.224  1.00  0.00     0.000 HD 
BRANCH   5   7
HETATM    7  C   UNL     1     -10.166  10.058  66.227  1.00  0.00    -0.215 A  
HETATM    8  C   UNL     1      -9.489   8.961  66.783  1.00  0.00    -0.187 A  
HETATM    9  N   UNL     1      -8.681   7.994  66.218  1.00  0.00    -0.145 NA 
HETATM   10  C   UNL     1      -8.253   7.270  67.240  1.00  0.00    -0.115 A  
HETATM   11  N   UNL     1      -8.776   7.710  68.438  1.00  0.00    -0.128 NA 
HETATM   12  C   UNL     1      -9.564   8.790  68.157  1.00  0.00    -0.146 A  
HETATM   13  N   UNL     1     -10.866  10.868  67.074  1.00  0.00    -0.272 NA 
HETATM   14  C   UNL     1     -10.893  10.562  68.388  1.00  0.00    -0.240 A  
HETATM   15  N   UNL     1     -10.251   9.547  69.014  1.00  0.00    -0.192 NA 
BRANCH  11  16
HETATM   16  C   UNL     1      -8.358   7.218  69.732  1.00  0.00    -0.135 C  
HETATM   17  O   UNL     1      -8.420   8.314  70.653  1.00  0.00    -0.120 OA 
HETATM   18  C   UNL     1      -7.093   8.789  70.929  1.00  0.00    -0.076 C  
HETATM   19  H   UNL     1      -6.101   5.289  71.153  1.00  0.00     0.000 HD 
HETATM   20  O   UNL     1      -6.966   5.663  71.029  1.00  0.00    -0.061 OA 
HETATM   21  C   UNL     1      -6.101   7.791  70.341  1.00  0.00    -0.030 C  
HETATM   22  H   UNL     1      -4.517   6.809  70.972  1.00  0.00     0.000 HD 
HETATM   23  C   UNL     1      -6.960   6.612  69.933  1.00  0.00    -0.063 C  
HETATM   24  O   UNL     1      -5.134   7.431  71.338  1.00  0.00    -0.027 OA 
BRANCH  18  25
HETATM   25  C   UNL     1      -6.863  10.197  70.377  1.00  0.00    -0.124 C  
BRANCH  25  26
HETATM   26  O   UNL     1      -6.418  10.032  69.030  1.00  0.00    -0.044 OA 
BRANCH  26  27
HETATM   27  P   UNL     1      -6.611  11.314  68.085  1.00  0.00    -0.061 P  
HETATM   28  O   UNL     1      -5.238  12.076  68.466  1.00  0.00    -0.049 OA 
HETATM   29  O   UNL     1      -6.748  11.045  66.615  1.00  0.00    -0.115 OA 
BRANCH  27  30
HETATM   30  O   UNL     1      -7.888  12.099  68.735  1.00  0.00    -0.107 OA 
HETATM   31  P   UNL     1      -8.058  13.771  68.327  1.00  0.00    -0.151 P  
HETATM   32  C   UNL     1      -8.237  15.541  67.894  1.00  0.00    -0.143 C  
HETATM   33  O   UNL     1      -6.901  14.097  69.459  1.00  0.00    -0.125 OA 
HETATM   34  O   UNL     1      -7.337  13.566  66.968  1.00  0.00     0.035 OA 
HETATM   35 CL   UNL     1      -6.636  16.345  67.529  1.00  0.00    -0.165 Cl 
HETATM   36  P   UNL     1      -9.145  15.693  66.312  1.00  0.00    -0.308 P  
HETATM   37 CL   UNL     1      -8.896  16.411  69.319  1.00  0.00    -0.186 Cl 
HETATM   38  O   UNL     1     -10.527  16.065  67.148  1.00  0.00    -0.299 OA 
HETATM   39  O   UNL     1      -9.584  14.092  66.365  1.00  0.00    -0.282 OA 
HETATM   40  O   UNL     1      -9.914  15.822  64.975  1.00  0.00    -0.386 OA 
ENDBRANCH  27  30
ENDBRANCH  26  27
ENDBRANCH  25  26
ENDBRANCH  18  25
ENDBRANCH  11  16
BRANCH  14  41
HETATM   41  S   UNL     1     -11.878  11.576  69.468  1.00  0.00    -0.359 SA 
BRANCH  41  42
HETATM   42  C   UNL     1     -13.014  10.322  70.151  1.00  0.00     0.096 C  
BRANCH  42  43
HETATM   43  C   UNL     1     -12.798  10.244  71.657  1.00  0.00    -0.568 C  
HETATM   44  C   UNL     1     -13.014   8.846  72.192  1.00  0.00    -0.416 C  
HETATM   45  F   UNL     1     -11.919   8.421  72.865  1.00  0.00    -0.456 F  
HETATM   46  F   UNL     1     -13.271   7.944  71.225  1.00  0.00    -0.329 F  
HETATM   47  F   UNL     1     -14.048   8.820  73.062  1.00  0.00    -0.393 F  
ENDBRANCH  42  43
ENDBRANCH  41  42
ENDBRANCH  14  41
ENDBRANCH   5   7
ENDBRANCH   4   5
ENDBRANCH   3   4
ENDBRANCH   2   3
TORSDOF 12
ENDMDL
MODEL       63
REMARK 921   NORMALIZED FREE ENERGY PREDICTED BY IDOCK:   -5.75 KCAL/MOL
REMARK 922        TOTAL FREE ENERGY PREDICTED BY IDOCK:  -10.80 KCAL/MOL
REMARK 923 INTER-LIGAND FREE ENERGY PREDICTED BY IDOCK:   -9.78 KCAL/MOL
REMARK 924 INTRA-LIGAND FREE ENERGY PREDICTED BY IDOCK:   -1.01 KCAL/MOL
REMARK 927      BINDING AFFINITY PREDICTED BY RF-SCORE:    0.00 PKD
ROOT
HETATM    1  C   UNL     1     -10.549  19.603  65.794  1.00  0.00    -0.438 C  
HETATM    2  S   UNL     1      -8.827  19.714  66.330  1.00  0.00    -0.380 SA 
ENDROOT
BRANCH   2   3
HETATM    3  C   UNL     1      -9.058  19.508  68.137  1.00  0.00    -0.339 C  
BRANCH   3   4
HETATM    4  C   UNL     1     -10.252  18.587  68.467  1.00  0.00    -0.351 C  
BRANCH   4   5
HETATM    5  N   UNL     1      -9.865  17.565  69.424  1.00  0.00    -0.033 NA 
HETATM    6  H   UNL     1      -9.882  17.778  70.421  1.00  0.00     0.000 HD 
BRANCH   5   7
HETATM    7  C   UNL     1      -9.475  16.306  69.001  1.00  0.00    -0.258 A  
HETATM    8  C   UNL     1     -10.420  15.277  68.868  1.00  0.00    -0.241 A  
HETATM    9  N   UNL     1     -11.790  15.254  69.046  1.00  0.00    -0.330 NA 
HETATM   10  C   UNL     1     -12.157  14.032  68.693  1.00  0.00    -0.297 A  
HETATM   11  N   UNL     1     -11.078  13.257  68.322  1.00  0.00    -0.253 NA 
HETATM   12  C   UNL     1      -9.966  14.043  68.428  1.00  0.00    -0.236 A  
HETATM   13  N   UNL     1      -8.173  16.016  68.708  1.00  0.00    -0.196 NA 
HETATM   14  C   UNL     1      -7.859  14.759  68.333  1.00  0.00    -0.128 A  
HETATM   15  N   UNL     1      -8.703  13.715  68.151  1.00  0.00    -0.172 NA 
BRANCH  11  16
HETATM   16  C   UNL     1     -11.193  11.940  67.734  1.00  0.00    -0.267 C  
HETATM   17  O   UNL     1     -12.225  11.240  68.440  1.00  0.00    -0.604 OA 
HETATM   18  C   UNL     1     -11.634  10.277  69.328  1.00  0.00    -0.119 C  
HETATM   19  H   UNL     1      -9.362   9.452  66.600  1.00  0.00     0.000 HD 
HETATM   20  O   UNL     1     -10.101  10.049  66.608  1.00  0.00    -0.207 OA 
HETATM   21  C   UNL     1     -10.147  10.182  69.002  1.00  0.00    -0.205 C  
HETATM   22  H   UNL     1      -8.855   8.747  68.625  1.00  0.00     0.000 HD 
HETATM   23  C   UNL     1      -9.998  10.975  67.720  1.00  0.00    -0.173 C  
HETATM   24  O   UNL     1      -9.781   8.806  68.828  1.00  0.00    -0.160 OA 
BRANCH  18  25
HETATM   25  C   UNL     1     -11.862  10.638  70.797  1.00  0.00    -0.357 C  
BRANCH  25  26
HETATM   26  O   UNL     1     -11.210   9.625  71.565  1.00  0.00    -0.372 OA 
BRANCH  26  27
HETATM   27  P   UNL     1     -12.152   8.416  72.040  1.00  0.00    -0.403 P  
HETATM   28  O   UNL     1     -13.415   9.299  72.527  1.00  0.00    -0.464 OA 
HETATM   29  O   UNL     1     -12.509   7.400  70.996  1.00  0.00    -0.314 OA 
BRANCH  27  30
HETATM   30  O   UNL     1     -11.373   7.790  73.333  1.00  0.00    -0.287 OA 
HETATM   31  P   UNL     1     -10.319   6.453  73.028  1.00  0.00    -0.247 P  
HETATM   32  C   UNL     1      -9.204   5.038  72.705  1.00  0.00    -0.131 C  
HETATM   33  O   UNL     1     -11.659   5.489  72.994  1.00  0.00    -0.274 OA 
HETATM   34  O   UNL     1     -10.049   6.930  71.577  1.00  0.00    -0.185 OA 
HETATM   35 CL   UNL     1      -9.721   4.046  71.259  1.00  0.00    -0.248 Cl 
HETATM   36  P   UNL     1      -7.556   5.662  72.208  1.00  0.00    -0.103 P  
HETATM   37 CL   UNL     1      -9.281   3.920  74.107  1.00  0.00    -0.099 Cl 
HETATM   38  O   UNL     1      -6.991   5.373  73.739  1.00  0.00    -0.081 OA 
HETATM   39  O   UNL     1      -7.953   7.203  72.682  1.00  0.00    -0.097 OA 
HETATM   40  O   UNL     1      -6.162   6.189  71.789  1.00  0.00    -0.039 OA 
ENDBRANCH  27  30
ENDBRANCH  26  27
ENDBRANCH  25  26
ENDBRANCH  18  25
ENDBRANCH  11  16
BRANCH  14  41
HETATM   41  S   UNL     1      -6.148  14.371  68.038  1.00  0.00    -0.152 SA 
BRANCH  41  42
HETATM   42  C   UNL     1      -6.229  12.550  67.977  1.00  0.00    -0.088 C  
BRANCH  42  43
HETATM   43  C   UNL     1      -5.212  11.989  68.964  1.00  0.00    -0.054 C  
HETATM   44  C   UNL     1      -5.871  11.195  70.070  1.00  0.00    -0.112 C  
HETATM   45  F   UNL     1      -5.354   9.945  70.129  1.00  0.00    -0.034 F  
HETATM   46  F   UNL     1      -7.204  11.077  69.914  1.00  0.00    -0.138 F  
HETATM   47  F   UNL     1      -5.648  11.772  71.272  1.00  0.00    -0.119 F  
ENDBRANCH  42  43
ENDBRANCH  41  42
ENDBRANCH  14  41
ENDBRANCH   5   7
ENDBRANCH   4   5
ENDBRANCH   3   4
ENDBRANCH   2   3
TORSDOF 12
ENDMDL
MODEL       64
REMARK 921   NORMALIZED FREE ENERGY PREDICTED BY IDOCK:   -5.74 KCAL/MOL
REMARK 922        TOTAL FREE ENERGY PREDICTED BY IDOCK:  -10.78 KCAL/MOL
REMARK 923 INTER-LIGAND FREE ENERGY PREDICTED BY IDOCK:   -9.83 KCAL/MOL
REMARK 924 INTRA-LIGAND FREE ENERGY PREDICTED BY IDOCK:   -0.95 KCAL/MOL
REMARK 927      BINDING AFFINITY PREDICTED BY RF-SCORE:    0.00 PKD
ROOT
HETATM    1  C   UNL     1      -9.972  19.715  68.642  1.00  0.00    -0.458 C  
HETATM    2  S   UNL     1      -9.227  20.052  67.031  1.00  0.00    -0.396 SA 
ENDROOT
BRANCH   2   3
HETATM    3  C   UNL     1     -10.618  19.560  65.944  1.00  0.00    -0.476 C  
BRANCH   3   4
HETATM    4  C   UNL     1     -10.568  18.060  65.583  1.00  0.00    -0.099 C  
BRANCH   4   5
HETATM    5  N   UNL     1      -9.238  17.520  65.808  1.00  0.00    -0.472 NA 
HETATM    6  H   UNL     1      -8.423  18.042  65.489  1.00  0.00     0.000 HD 
BRANCH   5   7
HETATM    7  C   UNL     1      -9.063  16.305  66.448  1.00  0.00    -0.301 A  
HETATM    8  C   UNL     1      -7.790  15.914  66.891  1.00  0.00    -0.247 A  
HETATM    9  N   UNL     1      -6.565  16.553  66.859  1.00  0.00    -0.195 NA 
HETATM   10  C   UNL     1      -5.741  15.739  67.499  1.00  0.00    -0.084 A  
HETATM   11  N   UNL     1      -6.376  14.588  67.917  1.00  0.00    -0.150 NA 
HETATM   12  C   UNL     1      -7.683  14.691  67.536  1.00  0.00    -0.195 A  
HETATM   13  N   UNL     1     -10.103  15.448  66.665  1.00  0.00    -0.258 NA 
HETATM   14  C   UNL     1      -9.853  14.267  67.266  1.00  0.00    -0.244 A  
HETATM   15  N   UNL     1      -8.670  13.819  67.749  1.00  0.00    -0.170 NA 
BRANCH  11  16
HETATM   16  C   UNL     1      -5.769  13.598  68.781  1.00  0.00    -0.083 C  
HETATM   17  O   UNL     1      -5.152  12.613  67.943  1.00  0.00    -0.077 OA 
HETATM   18  C   UNL     1      -5.955  11.421  67.928  1.00  0.00    -0.044 C  
HETATM   19  H   UNL     1      -6.337  11.872  71.525  1.00  0.00     0.000 HD 
HETATM   20  O   UNL     1      -5.812  12.369  70.908  1.00  0.00    -0.321 OA 
HETATM   21  C   UNL     1      -7.026  11.558  69.006  1.00  0.00    -0.112 C  
HETATM   22  H   UNL     1      -7.695  10.471  70.502  1.00  0.00     0.000 HD 
HETATM   23  C   UNL     1      -6.617  12.795  69.779  1.00  0.00     0.071 C  
HETATM   24  O   UNL     1      -7.029  10.385  69.831  1.00  0.00    -0.120 OA 
BRANCH  18  25
HETATM   25  C   UNL     1      -6.576  11.167  66.553  1.00  0.00    -0.124 C  
BRANCH  25  26
HETATM   26  O   UNL     1      -7.058   9.823  66.572  1.00  0.00    -0.087 OA 
BRANCH  26  27
HETATM   27  P   UNL     1      -8.600   9.645  66.165  1.00  0.00    -0.134 P  
HETATM   28  O   UNL     1      -8.865  11.151  65.641  1.00  0.00    -0.196 OA 
HETATM   29  O   UNL     1      -8.899   8.600  65.131  1.00  0.00    -0.177 OA 
BRANCH  27  30
HETATM   30  O   UNL     1      -9.362   9.403  67.590  1.00  0.00    -0.128 OA 
HETATM   31  P   UNL     1      -9.585   7.759  68.078  1.00  0.00    -0.158 P  
HETATM   32  C   UNL     1      -9.820   6.019  68.595  1.00  0.00    -0.138 C  
HETATM   33  O   UNL     1     -10.867   7.693  67.041  1.00  0.00    -0.334 OA 
HETATM   34  O   UNL     1      -8.325   7.301  67.295  1.00  0.00    -0.117 OA 
HETATM   35 CL   UNL     1      -9.939   4.870  67.178  1.00  0.00    -0.216 Cl 
HETATM   36  P   UNL     1      -8.323   5.436  69.473  1.00  0.00    -0.101 P  
HETATM   37 CL   UNL     1     -11.391   5.887  69.453  1.00  0.00    -0.307 Cl 
HETATM   38  O   UNL     1      -9.093   5.658  70.923  1.00  0.00    -0.141 OA 
HETATM   39  O   UNL     1      -7.737   6.986  69.585  1.00  0.00    -0.105 OA 
HETATM   40  O   UNL     1      -7.057   4.943  70.216  1.00  0.00    -0.047 OA 
ENDBRANCH  27  30
ENDBRANCH  26  27
ENDBRANCH  25  26
ENDBRANCH  18  25
ENDBRANCH  11  16
BRANCH  14  41
HETATM   41  S   UNL     1     -11.200  13.122  67.466  1.00  0.00    -0.297 SA 
BRANCH  41  42
HETATM   42  C   UNL     1     -12.372  13.773  66.228  1.00  0.00    -0.433 C  
BRANCH  42  43
HETATM   43  C   UNL     1     -12.488  12.762  65.095  1.00  0.00    -0.565 C  
HETATM   44  C   UNL     1     -11.672  13.165  63.886  1.00  0.00    -0.456 C  
HETATM   45  F   UNL     1     -10.809  12.178  63.546  1.00  0.00    -0.372 F  
HETATM   46  F   UNL     1     -10.950  14.285  64.086  1.00  0.00    -0.302 F  
HETATM   47  F   UNL     1     -12.472  13.378  62.817  1.00  0.00    -0.462 F  
ENDBRANCH  42  43
ENDBRANCH  41  42
ENDBRANCH  14  41
ENDBRANCH   5   7
ENDBRANCH   4   5
ENDBRANCH   3   4
ENDBRANCH   2   3
TORSDOF 12
ENDMDL
MODEL       65
REMARK 921   NORMALIZED FREE ENERGY PREDICTED BY IDOCK:   -5.74 KCAL/MOL
REMARK 922        TOTAL FREE ENERGY PREDICTED BY IDOCK:  -10.77 KCAL/MOL
REMARK 923 INTER-LIGAND FREE ENERGY PREDICTED BY IDOCK:   -9.58 KCAL/MOL
REMARK 924 INTRA-LIGAND FREE ENERGY PREDICTED BY IDOCK:   -1.20 KCAL/MOL
REMARK 927      BINDING AFFINITY PREDICTED BY RF-SCORE:    0.00 PKD
ROOT
HETATM    1  C   UNL     1     -14.401  15.343  71.999  1.00  0.00    -0.550 C  
HETATM    2  S   UNL     1     -13.068  14.360  72.719  1.00  0.00    -0.497 SA 
ENDROOT
BRANCH   2   3
HETATM    3  C   UNL     1     -12.863  13.110  71.394  1.00  0.00    -0.311 C  
BRANCH   3   4
HETATM    4  C   UNL     1     -13.281  11.699  71.860  1.00  0.00    -0.369 C  
BRANCH   4   5
HETATM    5  N   UNL     1     -12.983  10.709  70.839  1.00  0.00    -0.368 NA 
HETATM    6  H   UNL     1     -13.714  10.422  70.189  1.00  0.00     0.000 HD 
BRANCH   5   7
HETATM    7  C   UNL     1     -11.721  10.151  70.736  1.00  0.00    -0.357 A  
HETATM    8  C   UNL     1     -11.319   9.138  71.621  1.00  0.00    -0.376 A  
HETATM    9  N   UNL     1     -11.984   8.488  72.643  1.00  0.00    -0.331 NA 
HETATM   10  C   UNL     1     -11.133   7.567  73.069  1.00  0.00    -0.362 A  
HETATM   11  N   UNL     1      -9.937   7.615  72.384  1.00  0.00    -0.189 NA 
HETATM   12  C   UNL     1     -10.046   8.612  71.457  1.00  0.00    -0.274 A  
HETATM   13  N   UNL     1     -10.826  10.562  69.791  1.00  0.00    -0.273 NA 
HETATM   14  C   UNL     1      -9.602   9.996  69.770  1.00  0.00    -0.216 A  
HETATM   15  N   UNL     1      -9.137   8.999  70.560  1.00  0.00    -0.200 NA 
BRANCH  11  16
HETATM   16  C   UNL     1      -8.888   6.628  72.521  1.00  0.00    -0.127 C  
HETATM   17  O   UNL     1      -8.501   6.222  71.202  1.00  0.00    -0.123 OA 
HETATM   18  C   UNL     1      -9.042   4.922  70.919  1.00  0.00    -0.142 C  
HETATM   19  H   UNL     1      -8.042   3.990  74.298  1.00  0.00     0.000 HD 
HETATM   20  O   UNL     1      -7.891   4.801  73.827  1.00  0.00    -0.096 OA 
HETATM   21  C   UNL     1      -9.608   4.352  72.215  1.00  0.00    -0.147 C  
HETATM   22  H   UNL     1      -9.449   2.673  73.229  1.00  0.00     0.000 HD 
HETATM   23  C   UNL     1      -9.132   5.316  73.283  1.00  0.00    -0.128 C  
HETATM   24  O   UNL     1      -9.096   3.028  72.421  1.00  0.00    -0.091 OA 
BRANCH  18  25
HETATM   25  C   UNL     1     -10.104   4.971  69.819  1.00  0.00    -0.267 C  
BRANCH  25  26
HETATM   26  O   UNL     1      -9.650   4.100  68.783  1.00  0.00    -0.162 OA 
BRANCH  26  27
HETATM   27  P   UNL     1      -9.397   4.801  67.362  1.00  0.00    -0.156 P  
HETATM   28  O   UNL     1      -8.412   3.684  66.736  1.00  0.00    -0.102 OA 
HETATM   29  O   UNL     1     -10.612   5.056  66.519  1.00  0.00    -0.291 OA 
BRANCH  27  30
HETATM   30  O   UNL     1      -8.554   6.151  67.730  1.00  0.00    -0.115 OA 
HETATM   31  P   UNL     1      -7.788   6.968  66.411  1.00  0.00    -0.113 P  
HETATM   32  C   UNL     1      -6.978   7.831  65.016  1.00  0.00    -0.059 C  
HETATM   33  O   UNL     1      -6.588   5.837  66.494  1.00  0.00    -0.052 OA 
HETATM   34  O   UNL     1      -8.850   6.451  65.406  1.00  0.00    -0.089 OA 
HETATM   35 CL   UNL     1      -6.531   6.703  63.648  1.00  0.00    -0.040 Cl 
HETATM   36  P   UNL     1      -8.171   8.977  64.231  1.00  0.00    -0.159 P  
HETATM   37 CL   UNL     1      -5.424   8.519  65.596  1.00  0.00    -0.035 Cl 
HETATM   38  O   UNL     1      -7.471  10.246  65.034  1.00  0.00    -0.140 OA 
HETATM   39  O   UNL     1      -9.230   8.803  65.499  1.00  0.00    -0.203 OA 
HETATM   40  O   UNL     1      -9.180   9.946  63.568  1.00  0.00    -0.258 OA 
ENDBRANCH  27  30
ENDBRANCH  26  27
ENDBRANCH  25  26
ENDBRANCH  18  25
ENDBRANCH  11  16
BRANCH  14  41
HETATM   41  S   UNL     1      -8.415  10.600  68.589  1.00  0.00    -0.149 SA 
BRANCH  41  42
HETATM   42  C   UNL     1      -9.170  12.204  68.155  1.00  0.00    -0.197 C  
BRANCH  42  43
HETATM   43  C   UNL     1      -9.882  12.054  66.817  1.00  0.00    -0.218 C  
HETATM   44  C   UNL     1     -11.054  13.002  66.687  1.00  0.00    -0.289 C  
HETATM   45  F   UNL     1     -10.927  13.764  65.575  1.00  0.00    -0.289 F  
HETATM   46  F   UNL     1     -11.178  13.835  67.738  1.00  0.00    -0.267 F  
HETATM   47  F   UNL     1     -12.214  12.317  66.568  1.00  0.00    -0.399 F  
ENDBRANCH  42  43
ENDBRANCH  41  42
ENDBRANCH  14  41
ENDBRANCH   5   7
ENDBRANCH   4   5
ENDBRANCH   3   4
ENDBRANCH   2   3
TORSDOF 12
ENDMDL
MODEL       66
REMARK 921   NORMALIZED FREE ENERGY PREDICTED BY IDOCK:   -5.68 KCAL/MOL
REMARK 922        TOTAL FREE ENERGY PREDICTED BY IDOCK:  -10.67 KCAL/MOL
REMARK 923 INTER-LIGAND FREE ENERGY PREDICTED BY IDOCK:  -11.40 KCAL/MOL
REMARK 924 INTRA-LIGAND FREE ENERGY PREDICTED BY IDOCK:    0.73 KCAL/MOL
REMARK 927      BINDING AFFINITY PREDICTED BY RF-SCORE:    0.00 PKD
ROOT
HETATM    1  C   UNL     1      -9.367   6.102  73.713  1.00  0.00    -0.131 C  
HETATM    2  S   UNL     1     -10.159   7.637  73.183  1.00  0.00    -0.335 SA 
ENDROOT
BRANCH   2   3
HETATM    3  C   UNL     1      -8.773   8.386  72.245  1.00  0.00    -0.209 C  
BRANCH   3   4
HETATM    4  C   UNL     1      -8.821   8.014  70.748  1.00  0.00    -0.139 C  
BRANCH   4   5
HETATM    5  N   UNL     1      -9.771   8.853  70.038  1.00  0.00    -0.169 NA 
HETATM    6  H   UNL     1     -10.490   9.351  70.561  1.00  0.00     0.000 HD 
BRANCH   5   7
HETATM    7  C   UNL     1      -9.714   8.984  68.662  1.00  0.00    -0.160 A  
HETATM    8  C   UNL     1     -10.439   9.998  68.015  1.00  0.00    -0.218 A  
HETATM    9  N   UNL     1     -11.241  11.011  68.501  1.00  0.00    -0.244 NA 
HETATM   10  C   UNL     1     -11.587  11.712  67.432  1.00  0.00    -0.254 A  
HETATM   11  N   UNL     1     -11.065  11.175  66.274  1.00  0.00    -0.179 NA 
HETATM   12  C   UNL     1     -10.329  10.083  66.635  1.00  0.00    -0.213 A  
HETATM   13  N   UNL     1      -8.969   8.142  67.888  1.00  0.00    -0.134 NA 
HETATM   14  C   UNL     1      -8.986   8.309  66.549  1.00  0.00    -0.156 A  
HETATM   15  N   UNL     1      -9.629   9.269  65.843  1.00  0.00    -0.261 NA 
BRANCH  11  16
HETATM   16  C   UNL     1     -11.138  11.819  64.980  1.00  0.00    -0.284 C  
HETATM   17  O   UNL     1     -10.096  12.801  64.925  1.00  0.00    -0.274 OA 
HETATM   18  C   UNL     1     -10.659  14.113  65.086  1.00  0.00    -0.398 C  
HETATM   19  H   UNL     1     -13.306  13.037  62.824  1.00  0.00     0.000 HD 
HETATM   20  O   UNL     1     -12.521  12.576  63.095  1.00  0.00    -0.561 OA 
HETATM   21  C   UNL     1     -12.176  13.991  64.999  1.00  0.00    -0.433 C  
HETATM   22  H   UNL     1     -13.626  14.871  64.003  1.00  0.00     0.000 HD 
HETATM   23  C   UNL     1     -12.408  12.566  64.540  1.00  0.00    -0.467 C  
HETATM   24  O   UNL     1     -12.681  14.947  64.057  1.00  0.00    -0.792 OA 
BRANCH  18  25
HETATM   25  C   UNL     1     -10.224  14.764  66.401  1.00  0.00    -0.291 C  
BRANCH  25  26
HETATM   26  O   UNL     1      -8.961  15.378  66.147  1.00  0.00    -0.312 OA 
BRANCH  26  27
HETATM   27  P   UNL     1      -7.834  15.108  67.257  1.00  0.00    -0.170 P  
HETATM   28  O   UNL     1      -8.648  15.666  68.537  1.00  0.00    -0.166 OA 
HETATM   29  O   UNL     1      -7.384  13.686  67.418  1.00  0.00    -0.171 OA 
BRANCH  27  30
HETATM   30  O   UNL     1      -6.631  16.141  66.862  1.00  0.00    -0.255 OA 
HETATM   31  P   UNL     1      -6.903  17.814  67.210  1.00  0.00    -0.179 P  
HETATM   32  C   UNL     1      -7.191  19.583  67.578  1.00  0.00    -0.224 C  
HETATM   33  O   UNL     1      -7.816  17.883  65.836  1.00  0.00    -0.515 OA 
HETATM   34  O   UNL     1      -7.853  17.468  68.387  1.00  0.00    -0.243 OA 
HETATM   35 CL   UNL     1      -8.962  20.034  67.542  1.00  0.00    -0.417 Cl 
HETATM   36  P   UNL     1      -6.712  19.931  69.311  1.00  0.00    -0.248 P  
HETATM   37 CL   UNL     1      -6.419  20.567  66.289  1.00  0.00    -0.255 Cl 
HETATM   38  O   UNL     1      -5.284  20.581  68.780  1.00  0.00    -0.221 OA 
HETATM   39  O   UNL     1      -5.956  18.458  69.439  1.00  0.00    -0.230 OA 
HETATM   40  O   UNL     1      -6.307  20.226  70.776  1.00  0.00    -0.486 OA 
ENDBRANCH  27  30
ENDBRANCH  26  27
ENDBRANCH  25  26
ENDBRANCH  18  25
ENDBRANCH  11  16
BRANCH  14  41
HETATM   41  S   UNL     1      -8.079   7.152  65.545  1.00  0.00    -0.139 SA 
BRANCH  41  42
HETATM   42  C   UNL     1      -8.325   5.620  66.504  1.00  0.00    -0.110 C  
BRANCH  42  43
HETATM   43  C   UNL     1      -8.071   4.431  65.587  1.00  0.00    -0.105 C  
HETATM   44  C   UNL     1      -9.356   3.849  65.040  1.00  0.00    -0.158 C  
HETATM   45  F   UNL     1      -9.324   3.821  63.686  1.00  0.00    -0.111 F  
HETATM   46  F   UNL     1     -10.449   4.546  65.406  1.00  0.00    -0.239 F  
HETATM   47  F   UNL     1      -9.522   2.575  65.459  1.00  0.00    -0.141 F  
ENDBRANCH  42  43
ENDBRANCH  41  42
ENDBRANCH  14  41
ENDBRANCH   5   7
ENDBRANCH   4   5
ENDBRANCH   3   4
ENDBRANCH   2   3
TORSDOF 12
ENDMDL
MODEL       67
REMARK 921   NORMALIZED FREE ENERGY PREDICTED BY IDOCK:   -5.67 KCAL/MOL
REMARK 922        TOTAL FREE ENERGY PREDICTED BY IDOCK:  -10.65 KCAL/MOL
REMARK 923 INTER-LIGAND FREE ENERGY PREDICTED BY IDOCK:   -9.19 KCAL/MOL
REMARK 924 INTRA-LIGAND FREE ENERGY PREDICTED BY IDOCK:   -1.46 KCAL/MOL
REMARK 927      BINDING AFFINITY PREDICTED BY RF-SCORE:    0.00 PKD
ROOT
HETATM    1  C   UNL     1      -9.847  10.557  63.727  1.00  0.00    -0.300 C  
HETATM    2  S   UNL     1      -8.297   9.664  63.468  1.00  0.00    -0.188 SA 
ENDROOT
BRANCH   2   3
HETATM    3  C   UNL     1      -8.287   8.629  64.981  1.00  0.00    -0.171 C  
BRANCH   3   4
HETATM    4  C   UNL     1      -7.065   7.688  65.030  1.00  0.00    -0.063 C  
BRANCH   4   5
HETATM    5  N   UNL     1      -7.370   6.485  65.784  1.00  0.00    -0.077 NA 
HETATM    6  H   UNL     1      -7.413   5.587  65.303  1.00  0.00     0.000 HD 
BRANCH   5   7
HETATM    7  C   UNL     1      -7.605   6.540  67.147  1.00  0.00    -0.096 A  
HETATM    8  C   UNL     1      -8.905   6.375  67.651  1.00  0.00    -0.112 A  
HETATM    9  N   UNL     1     -10.108   6.105  67.028  1.00  0.00    -0.159 NA 
HETATM   10  C   UNL     1     -10.979   5.972  68.016  1.00  0.00    -0.245 A  
HETATM   11  N   UNL     1     -10.394   6.174  69.249  1.00  0.00    -0.199 NA 
HETATM   12  C   UNL     1      -9.071   6.429  69.027  1.00  0.00    -0.130 A  
HETATM   13  N   UNL     1      -6.599   6.762  68.043  1.00  0.00    -0.056 NA 
HETATM   14  C   UNL     1      -6.906   6.836  69.354  1.00  0.00    -0.061 A  
HETATM   15  N   UNL     1      -8.119   6.663  69.931  1.00  0.00    -0.123 NA 
BRANCH  11  16
HETATM   16  C   UNL     1     -11.061   5.931  70.509  1.00  0.00    -0.277 C  
HETATM   17  O   UNL     1     -12.261   6.715  70.522  1.00  0.00    -0.364 OA 
HETATM   18  C   UNL     1     -12.082   7.858  71.374  1.00  0.00    -0.307 C  
HETATM   19  H   UNL     1     -10.456   5.599  73.727  1.00  0.00     0.000 HD 
HETATM   20  O   UNL     1     -10.884   5.403  72.902  1.00  0.00    -0.230 OA 
HETATM   21  C   UNL     1     -10.779   7.675  72.144  1.00  0.00    -0.241 C  
HETATM   22  H   UNL     1     -10.204   7.768  74.024  1.00  0.00     0.000 HD 
HETATM   23  C   UNL     1     -10.368   6.248  71.844  1.00  0.00    -0.204 C  
HETATM   24  O   UNL     1     -11.015   7.882  73.544  1.00  0.00    -0.225 OA 
BRANCH  18  25
HETATM   25  C   UNL     1     -12.085   9.167  70.583  1.00  0.00    -0.068 C  
BRANCH  25  26
HETATM   26  O   UNL     1     -10.730   9.412  70.207  1.00  0.00    -0.219 OA 
BRANCH  26  27
HETATM   27  P   UNL     1     -10.536  10.186  68.815  1.00  0.00    -0.238 P  
HETATM   28  O   UNL     1      -9.063  10.787  69.101  1.00  0.00    -0.167 OA 
HETATM   29  O   UNL     1     -10.601   9.350  67.572  1.00  0.00    -0.262 OA 
BRANCH  27  30
HETATM   30  O   UNL     1     -11.649  11.381  68.867  1.00  0.00    -0.264 OA 
HETATM   31  P   UNL     1     -11.429  12.692  67.760  1.00  0.00    -0.356 P  
HETATM   32  C   UNL     1     -11.196  14.079  66.589  1.00  0.00    -0.323 C  
HETATM   33  O   UNL     1     -10.299  13.295  68.802  1.00  0.00    -0.221 OA 
HETATM   34  O   UNL     1     -10.691  11.779  66.745  1.00  0.00    -0.231 OA 
HETATM   35 CL   UNL     1      -9.440  14.352  66.157  1.00  0.00    -0.301 Cl 
HETATM   36  P   UNL     1     -11.954  13.651  64.979  1.00  0.00    -0.433 P  
HETATM   37 CL   UNL     1     -11.735  15.595  67.386  1.00  0.00     0.008 Cl 
HETATM   38  O   UNL     1     -13.270  14.585  65.357  1.00  0.00    -0.494 OA 
HETATM   39  O   UNL     1     -12.731  12.345  65.647  1.00  0.00    -0.462 OA 
HETATM   40  O   UNL     1     -12.597  13.290  63.617  1.00  0.00    -0.708 OA 
ENDBRANCH  27  30
ENDBRANCH  26  27
ENDBRANCH  25  26
ENDBRANCH  18  25
ENDBRANCH  11  16
BRANCH  14  41
HETATM   41  S   UNL     1      -5.601   7.212  70.504  1.00  0.00    -0.024 SA 
BRANCH  41  42
HETATM   42  C   UNL     1      -6.244   8.752  71.241  1.00  0.00    -0.055 C  
BRANCH  42  43
HETATM   43  C   UNL     1      -5.715   8.863  72.665  1.00  0.00    -0.076 C  
HETATM   44  C   UNL     1      -6.580   8.114  73.654  1.00  0.00    -0.118 C  
HETATM   45  F   UNL     1      -5.838   7.219  74.350  1.00  0.00    -0.066 F  
HETATM   46  F   UNL     1      -7.588   7.439  73.069  1.00  0.00    -0.079 F  
HETATM   47  F   UNL     1      -7.124   8.963  74.555  1.00  0.00    -0.204 F  
ENDBRANCH  42  43
ENDBRANCH  41  42
ENDBRANCH  14  41
ENDBRANCH   5   7
ENDBRANCH   4   5
ENDBRANCH   3   4
ENDBRANCH   2   3
TORSDOF 12
ENDMDL
MODEL       68
REMARK 921   NORMALIZED FREE ENERGY PREDICTED BY IDOCK:   -5.64 KCAL/MOL
REMARK 922        TOTAL FREE ENERGY PREDICTED BY IDOCK:  -10.61 KCAL/MOL
REMARK 923 INTER-LIGAND FREE ENERGY PREDICTED BY IDOCK:   -9.75 KCAL/MOL
REMARK 924 INTRA-LIGAND FREE ENERGY PREDICTED BY IDOCK:   -0.86 KCAL/MOL
REMARK 927      BINDING AFFINITY PREDICTED BY RF-SCORE:    0.00 PKD
ROOT
HETATM    1  C   UNL     1     -11.212  15.546  68.412  1.00  0.00    -0.341 C  
HETATM    2  S   UNL     1     -10.750  15.213  66.697  1.00  0.00    -0.312 SA 
ENDROOT
BRANCH   2   3
HETATM    3  C   UNL     1     -12.173  14.172  66.196  1.00  0.00    -0.442 C  
BRANCH   3   4
HETATM    4  C   UNL     1     -11.807  12.673  66.153  1.00  0.00    -0.418 C  
BRANCH   4   5
HETATM    5  N   UNL     1     -12.041  12.048  67.444  1.00  0.00    -0.520 NA 
HETATM    6  H   UNL     1     -12.857  12.318  67.992  1.00  0.00     0.000 HD 
BRANCH   5   7
HETATM    7  C   UNL     1     -11.172  11.093  67.939  1.00  0.00    -0.302 A  
HETATM    8  C   UNL     1     -11.262  10.677  69.277  1.00  0.00    -0.273 A  
HETATM    9  N   UNL     1     -12.135  11.018  70.292  1.00  0.00    -0.331 NA 
HETATM   10  C   UNL     1     -11.790  10.244  71.310  1.00  0.00    -0.335 A  
HETATM   11  N   UNL     1     -10.712   9.441  71.004  1.00  0.00    -0.311 NA 
HETATM   12  C   UNL     1     -10.369   9.707  69.709  1.00  0.00    -0.241 A  
HETATM   13  N   UNL     1     -10.201  10.529  67.162  1.00  0.00    -0.212 NA 
HETATM   14  C   UNL     1      -9.368   9.627  67.721  1.00  0.00    -0.127 A  
HETATM   15  N   UNL     1      -9.396   9.148  68.987  1.00  0.00    -0.150 NA 
BRANCH  11  16
HETATM   16  C   UNL     1     -10.224   8.382  71.861  1.00  0.00    -0.270 C  
HETATM   17  O   UNL     1      -9.684   7.357  71.018  1.00  0.00    -0.166 OA 
HETATM   18  C   UNL     1     -10.597   6.249  70.960  1.00  0.00    -0.238 C  
HETATM   19  H   UNL     1     -11.022   6.670  74.555  1.00  0.00     0.000 HD 
HETATM   20  O   UNL     1     -10.437   7.124  73.961  1.00  0.00    -0.353 OA 
HETATM   21  C   UNL     1     -11.675   6.469  72.015  1.00  0.00    -0.323 C  
HETATM   22  H   UNL     1     -12.482   5.424  73.474  1.00  0.00     0.000 HD 
HETATM   23  C   UNL     1     -11.169   7.646  72.823  1.00  0.00    -0.377 C  
HETATM   24  O   UNL     1     -11.811   5.287  72.816  1.00  0.00    -0.251 OA 
BRANCH  18  25
HETATM   25  C   UNL     1     -11.205   6.081  69.566  1.00  0.00    -0.346 C  
BRANCH  25  26
HETATM   26  O   UNL     1     -10.621   4.900  69.013  1.00  0.00    -0.035 OA 
BRANCH  26  27
HETATM   27  P   UNL     1      -9.736   5.129  67.695  1.00  0.00    -0.158 P  
HETATM   28  O   UNL     1     -10.727   6.158  66.940  1.00  0.00    -0.287 OA 
HETATM   29  O   UNL     1      -8.358   5.683  67.905  1.00  0.00    -0.101 OA 
BRANCH  27  30
HETATM   30  O   UNL     1      -9.757   3.677  66.945  1.00  0.00    -0.196 OA 
HETATM   31  P   UNL     1      -9.218   3.647  65.302  1.00  0.00    -0.165 P  
HETATM   32  C   UNL     1      -8.646   3.616  63.564  1.00  0.00    -0.091 C  
HETATM   33  O   UNL     1     -10.704   4.224  64.873  1.00  0.00    -0.247 OA 
HETATM   34  O   UNL     1      -8.289   4.869  65.530  1.00  0.00    -0.115 OA 
HETATM   35 CL   UNL     1      -8.924   5.203  62.699  1.00  0.00    -0.057 Cl 
HETATM   36  P   UNL     1      -6.825   3.438  63.523  1.00  0.00    -0.045 P  
HETATM   37 CL   UNL     1      -9.620   2.404  62.666  1.00  0.00    -0.089 Cl 
HETATM   38  O   UNL     1      -6.996   1.825  63.183  1.00  0.00    -0.025 OA 
HETATM   39  O   UNL     1      -6.786   3.059  65.139  1.00  0.00    -0.043 OA 
HETATM   40  O   UNL     1      -5.284   3.286  63.488  1.00  0.00    -0.008 OA 
ENDBRANCH  27  30
ENDBRANCH  26  27
ENDBRANCH  25  26
ENDBRANCH  18  25
ENDBRANCH  11  16
BRANCH  14  41
HETATM   41  S   UNL     1      -8.053   8.964  66.722  1.00  0.00    -0.112 SA 
BRANCH  41  42
HETATM   42  C   UNL     1      -7.871  10.298  65.490  1.00  0.00    -0.152 C  
BRANCH  42  43
HETATM   43  C   UNL     1      -8.586   9.876  64.213  1.00  0.00    -0.199 C  
HETATM   44  C   UNL     1      -9.436  10.989  63.642  1.00  0.00    -0.272 C  
HETATM   45  F   UNL     1      -9.087  11.241  62.358  1.00  0.00    -0.328 F  
HETATM   46  F   UNL     1      -9.323  12.144  64.327  1.00  0.00    -0.048 F  
HETATM   47  F   UNL     1     -10.742  10.642  63.637  1.00  0.00    -0.344 F  
ENDBRANCH  42  43
ENDBRANCH  41  42
ENDBRANCH  14  41
ENDBRANCH   5   7
ENDBRANCH   4   5
ENDBRANCH   3   4
ENDBRANCH   2   3
TORSDOF 12
ENDMDL
MODEL       69
REMARK 921   NORMALIZED FREE ENERGY PREDICTED BY IDOCK:   -5.63 KCAL/MOL
REMARK 922        TOTAL FREE ENERGY PREDICTED BY IDOCK:  -10.59 KCAL/MOL
REMARK 923 INTER-LIGAND FREE ENERGY PREDICTED BY IDOCK:   -9.56 KCAL/MOL
REMARK 924 INTRA-LIGAND FREE ENERGY PREDICTED BY IDOCK:   -1.02 KCAL/MOL
REMARK 927      BINDING AFFINITY PREDICTED BY RF-SCORE:    0.00 PKD
ROOT
HETATM    1  C   UNL     1     -10.399  11.145  64.695  1.00  0.00    -0.330 C  
HETATM    2  S   UNL     1      -9.412  11.492  63.222  1.00  0.00    -0.233 SA 
ENDROOT
BRANCH   2   3
HETATM    3  C   UNL     1      -9.271   9.795  62.544  1.00  0.00    -0.256 C  
BRANCH   3   4
HETATM    4  C   UNL     1      -7.814   9.285  62.560  1.00  0.00    -0.120 C  
BRANCH   4   5
HETATM    5  N   UNL     1      -7.660   8.193  63.506  1.00  0.00    -0.128 NA 
HETATM    6  H   UNL     1      -7.267   7.307  63.192  1.00  0.00     0.000 HD 
BRANCH   5   7
HETATM    7  C   UNL     1      -8.041   8.340  64.829  1.00  0.00    -0.151 A  
HETATM    8  C   UNL     1      -7.362   9.236  65.668  1.00  0.00    -0.093 A  
HETATM    9  N   UNL     1      -6.323  10.115  65.430  1.00  0.00    -0.108 NA 
HETATM   10  C   UNL     1      -6.158  10.762  66.573  1.00  0.00    -0.103 A  
HETATM   11  N   UNL     1      -7.027  10.317  67.547  1.00  0.00    -0.084 NA 
HETATM   12  C   UNL     1      -7.800   9.345  66.979  1.00  0.00    -0.098 A  
HETATM   13  N   UNL     1      -9.072   7.624  65.365  1.00  0.00     0.157 NA 
HETATM   14  C   UNL     1      -9.368   7.793  66.670  1.00  0.00    -0.188 A  
HETATM   15  N   UNL     1      -8.789   8.650  67.545  1.00  0.00    -0.134 NA 
BRANCH  11  16
HETATM   16  C   UNL     1      -7.187  10.949  68.838  1.00  0.00    -0.095 C  
HETATM   17  O   UNL     1      -8.401  11.709  68.801  1.00  0.00    -0.128 OA 
HETATM   18  C   UNL     1      -8.092  13.107  68.679  1.00  0.00    -0.014 C  
HETATM   19  H   UNL     1      -5.483  12.543  71.160  1.00  0.00     0.000 HD 
HETATM   20  O   UNL     1      -6.137  11.941  70.827  1.00  0.00    -0.323 OA 
HETATM   21  C   UNL     1      -6.593  13.281  68.892  1.00  0.00    -0.107 C  
HETATM   22  H   UNL     1      -5.428  14.416  70.000  1.00  0.00     0.000 HD 
HETATM   23  C   UNL     1      -6.127  11.924  69.377  1.00  0.00    -0.096 C  
HETATM   24  O   UNL     1      -6.362  14.308  69.867  1.00  0.00    -0.135 OA 
BRANCH  18  25
HETATM   25  C   UNL     1      -8.535  13.675  67.329  1.00  0.00    -0.194 C  
BRANCH  25  26
HETATM   26  O   UNL     1      -9.959  13.577  67.300  1.00  0.00    -0.230 OA 
BRANCH  26  27
HETATM   27  P   UNL     1     -10.723  14.882  66.765  1.00  0.00    -0.322 P  
HETATM   28  O   UNL     1     -11.702  14.148  65.709  1.00  0.00    -0.339 OA 
HETATM   29  O   UNL     1     -11.462  15.690  67.791  1.00  0.00    -0.307 OA 
BRANCH  27  30
HETATM   30  O   UNL     1      -9.568  15.721  65.970  1.00  0.00    -0.301 OA 
HETATM   31  P   UNL     1      -9.172  17.281  66.602  1.00  0.00    -0.265 P  
HETATM   32  C   UNL     1      -8.752  18.932  67.272  1.00  0.00    -0.278 C  
HETATM   33  O   UNL     1     -10.525  17.857  65.852  1.00  0.00    -0.497 OA 
HETATM   34  O   UNL     1      -9.577  16.859  68.039  1.00  0.00    -0.238 OA 
HETATM   35 CL   UNL     1     -10.155  19.720  68.141  1.00  0.00    -0.547 Cl 
HETATM   36  P   UNL     1      -7.497  18.754  68.592  1.00  0.00    -0.300 P  
HETATM   37 CL   UNL     1      -8.366  20.023  65.899  1.00  0.00    -0.281 Cl 
HETATM   38  O   UNL     1      -6.317  19.217  67.525  1.00  0.00    -0.197 OA 
HETATM   39  O   UNL     1      -7.216  17.174  68.166  1.00  0.00    -0.181 OA 
HETATM   40  O   UNL     1      -6.435  18.604  69.708  1.00  0.00    -0.226 OA 
ENDBRANCH  27  30
ENDBRANCH  26  27
ENDBRANCH  25  26
ENDBRANCH  18  25
ENDBRANCH  11  16
BRANCH  14  41
HETATM   41  S   UNL     1     -10.657   6.792  67.379  1.00  0.00    -0.344 SA 
BRANCH  41  42
HETATM   42  C   UNL     1     -10.221   6.898  69.148  1.00  0.00    -0.187 C  
BRANCH  42  43
HETATM   43  C   UNL     1     -11.460   6.568  69.970  1.00  0.00    -0.476 C  
HETATM   44  C   UNL     1     -11.602   7.472  71.174  1.00  0.00    -0.282 C  
HETATM   45  F   UNL     1     -12.809   8.088  71.165  1.00  0.00    -0.304 F  
HETATM   46  F   UNL     1     -10.657   8.431  71.229  1.00  0.00    -0.230 F  
HETATM   47  F   UNL     1     -11.530   6.760  72.320  1.00  0.00    -0.266 F  
ENDBRANCH  42  43
ENDBRANCH  41  42
ENDBRANCH  14  41
ENDBRANCH   5   7
ENDBRANCH   4   5
ENDBRANCH   3   4
ENDBRANCH   2   3
TORSDOF 12
ENDMDL
MODEL       70
REMARK 921   NORMALIZED FREE ENERGY PREDICTED BY IDOCK:   -5.61 KCAL/MOL
REMARK 922        TOTAL FREE ENERGY PREDICTED BY IDOCK:  -10.56 KCAL/MOL
REMARK 923 INTER-LIGAND FREE ENERGY PREDICTED BY IDOCK:   -9.24 KCAL/MOL
REMARK 924 INTRA-LIGAND FREE ENERGY PREDICTED BY IDOCK:   -1.32 KCAL/MOL
REMARK 927      BINDING AFFINITY PREDICTED BY RF-SCORE:    0.00 PKD
ROOT
HETATM    1  C   UNL     1      -6.549  17.391  68.977  1.00  0.00    -0.232 C  
HETATM    2  S   UNL     1      -6.470  16.611  67.349  1.00  0.00    -0.188 SA 
ENDROOT
BRANCH   2   3
HETATM    3  C   UNL     1      -5.904  14.938  67.841  1.00  0.00    -0.136 C  
BRANCH   3   4
HETATM    4  C   UNL     1      -6.963  13.857  67.539  1.00  0.00    -0.144 C  
BRANCH   4   5
HETATM    5  N   UNL     1      -6.344  12.675  66.965  1.00  0.00    -0.482 NA 
HETATM    6  H   UNL     1      -5.515  12.775  66.379  1.00  0.00     0.000 HD 
BRANCH   5   7
HETATM    7  C   UNL     1      -6.863  11.414  67.202  1.00  0.00    -0.124 A  
HETATM    8  C   UNL     1      -6.759  10.832  68.475  1.00  0.00    -0.057 A  
HETATM    9  N   UNL     1      -6.237  11.301  69.664  1.00  0.00    -0.098 NA 
HETATM   10  C   UNL     1      -6.495  10.349  70.548  1.00  0.00    -0.093 A  
HETATM   11  N   UNL     1      -7.135   9.272  69.971  1.00  0.00    -0.061 NA 
HETATM   12  C   UNL     1      -7.310   9.571  68.650  1.00  0.00    -0.075 A  
HETATM   13  N   UNL     1      -7.480  10.693  66.221  1.00  0.00    -0.133 NA 
HETATM   14  C   UNL     1      -7.934   9.457  66.515  1.00  0.00    -0.108 A  
HETATM   15  N   UNL     1      -7.903   8.828  67.714  1.00  0.00    -0.102 NA 
BRANCH  11  16
HETATM   16  C   UNL     1      -7.686   8.164  70.720  1.00  0.00    -0.080 C  
HETATM   17  O   UNL     1      -8.802   7.653  69.981  1.00  0.00    -0.141 OA 
HETATM   18  C   UNL     1     -10.027   8.072  70.606  1.00  0.00    -0.189 C  
HETATM   19  H   UNL     1      -8.451   7.250  73.788  1.00  0.00     0.000 HD 
HETATM   20  O   UNL     1      -8.124   7.127  72.905  1.00  0.00    -0.104 OA 
HETATM   21  C   UNL     1      -9.682   8.684  71.959  1.00  0.00    -0.321 C  
HETATM   22  H   UNL     1     -10.285   8.471  73.820  1.00  0.00     0.000 HD 
HETATM   23  C   UNL     1      -8.215   8.362  72.150  1.00  0.00    -0.147 C  
HETATM   24  O   UNL     1     -10.500   8.090  72.977  1.00  0.00    -0.342 OA 
BRANCH  18  25
HETATM   25  C   UNL     1     -10.809   9.053  69.730  1.00  0.00    -0.205 C  
BRANCH  25  26
HETATM   26  O   UNL     1     -10.944  10.252  70.494  1.00  0.00    -0.307 OA 
BRANCH  26  27
HETATM   27  P   UNL     1     -11.487  11.523  69.679  1.00  0.00    -0.265 P  
HETATM   28  O   UNL     1     -12.778  10.820  69.008  1.00  0.00    -0.188 OA 
HETATM   29  O   UNL     1     -11.831  12.737  70.489  1.00  0.00    -0.253 OA 
BRANCH  27  30
HETATM   30  O   UNL     1     -10.340  11.788  68.546  1.00  0.00    -0.207 OA 
HETATM   31  P   UNL     1     -10.755  12.870  67.263  1.00  0.00    -0.252 P  
HETATM   32  C   UNL     1     -11.195  14.016  65.905  1.00  0.00    -0.308 C  
HETATM   33  O   UNL     1     -11.579  11.622  66.564  1.00  0.00    -0.473 OA 
HETATM   34  O   UNL     1     -11.752  13.642  68.167  1.00  0.00    -0.317 OA 
HETATM   35 CL   UNL     1     -12.989  14.037  65.550  1.00  0.00    -0.478 Cl 
HETATM   36  P   UNL     1     -10.858  15.738  66.427  1.00  0.00    -0.087 P  
HETATM   37 CL   UNL     1     -10.415  13.437  64.395  1.00  0.00    -0.447 Cl 
HETATM   38  O   UNL     1      -9.449  15.721  65.555  1.00  0.00    -0.323 OA 
HETATM   39  O   UNL     1     -10.006  15.212  67.752  1.00  0.00    -0.223 OA 
HETATM   40  O   UNL     1     -10.572  17.195  66.868  1.00  0.00    -0.297 OA 
ENDBRANCH  27  30
ENDBRANCH  26  27
ENDBRANCH  25  26
ENDBRANCH  18  25
ENDBRANCH  11  16
BRANCH  14  41
HETATM   41  S   UNL     1      -8.660   8.493  65.207  1.00  0.00    -0.135 SA 
BRANCH  41  42
HETATM   42  C   UNL     1      -8.529   6.819  65.920  1.00  0.00    -0.144 C  
BRANCH  42  43
HETATM   43  C   UNL     1      -9.883   6.437  66.505  1.00  0.00    -0.170 C  
HETATM   44  C   UNL     1     -10.061   4.938  66.597  1.00  0.00    -0.249 C  
HETATM   45  F   UNL     1     -10.357   4.573  67.867  1.00  0.00    -0.141 F  
HETATM   46  F   UNL     1      -8.963   4.252  66.223  1.00  0.00    -0.112 F  
HETATM   47  F   UNL     1     -11.086   4.527  65.817  1.00  0.00    -0.307 F  
ENDBRANCH  42  43
ENDBRANCH  41  42
ENDBRANCH  14  41
ENDBRANCH   5   7
ENDBRANCH   4   5
ENDBRANCH   3   4
ENDBRANCH   2   3
TORSDOF 12
ENDMDL
MODEL       71
REMARK 921   NORMALIZED FREE ENERGY PREDICTED BY IDOCK:   -5.61 KCAL/MOL
REMARK 922        TOTAL FREE ENERGY PREDICTED BY IDOCK:  -10.55 KCAL/MOL
REMARK 923 INTER-LIGAND FREE ENERGY PREDICTED BY IDOCK:   -9.81 KCAL/MOL
REMARK 924 INTRA-LIGAND FREE ENERGY PREDICTED BY IDOCK:   -0.74 KCAL/MOL
REMARK 927      BINDING AFFINITY PREDICTED BY RF-SCORE:    0.00 PKD
ROOT
HETATM    1  C   UNL     1     -10.563  19.919  65.724  1.00  0.00    -0.385 C  
HETATM    2  S   UNL     1      -9.511  20.443  67.096  1.00  0.00    -0.413 SA 
ENDROOT
BRANCH   2   3
HETATM    3  C   UNL     1     -10.015  19.208  68.354  1.00  0.00    -0.418 C  
BRANCH   3   4
HETATM    4  C   UNL     1     -10.722  17.991  67.719  1.00  0.00    -0.334 C  
BRANCH   4   5
HETATM    5  N   UNL     1     -10.880  16.922  68.690  1.00  0.00    -0.338 NA 
HETATM    6  H   UNL     1     -11.608  16.992  69.401  1.00  0.00     0.000 HD 
BRANCH   5   7
HETATM    7  C   UNL     1     -10.056  15.811  68.664  1.00  0.00    -0.211 A  
HETATM    8  C   UNL     1     -10.586  14.542  68.382  1.00  0.00    -0.244 A  
HETATM    9  N   UNL     1     -11.863  14.126  68.058  1.00  0.00    -0.360 NA 
HETATM   10  C   UNL     1     -11.746  12.830  67.816  1.00  0.00    -0.359 A  
HETATM   11  N   UNL     1     -10.454  12.386  68.001  1.00  0.00    -0.211 NA 
HETATM   12  C   UNL     1      -9.705  13.470  68.359  1.00  0.00    -0.207 A  
HETATM   13  N   UNL     1      -8.717  15.900  68.914  1.00  0.00    -0.210 NA 
HETATM   14  C   UNL     1      -7.981  14.770  68.903  1.00  0.00    -0.160 A  
HETATM   15  N   UNL     1      -8.397  13.514  68.617  1.00  0.00    -0.082 NA 
BRANCH  11  16
HETATM   16  C   UNL     1      -9.998  11.058  67.651  1.00  0.00    -0.173 C  
HETATM   17  O   UNL     1     -11.000  10.129  68.084  1.00  0.00    -0.255 OA 
HETATM   18  C   UNL     1     -10.554   9.458  69.274  1.00  0.00    -0.225 C  
HETATM   19  H   UNL     1      -7.301   9.171  67.655  1.00  0.00     0.000 HD 
HETATM   20  O   UNL     1      -8.118   9.513  67.310  1.00  0.00    -0.109 OA 
HETATM   21  C   UNL     1      -9.083   9.797  69.486  1.00  0.00    -0.216 C  
HETATM   22  H   UNL     1      -7.420   8.801  69.824  1.00  0.00     0.000 HD 
HETATM   23  C   UNL     1      -8.677  10.504  68.209  1.00  0.00    -0.135 C  
HETATM   24  O   UNL     1      -8.337   8.590  69.692  1.00  0.00    -0.116 OA 
BRANCH  18  25
HETATM   25  C   UNL     1     -11.397   9.837  70.493  1.00  0.00    -0.314 C  
BRANCH  25  26
HETATM   26  O   UNL     1     -10.874   9.088  71.591  1.00  0.00    -0.317 OA 
BRANCH  26  27
HETATM   27  P   UNL     1     -11.835   7.931  72.149  1.00  0.00    -0.348 P  
HETATM   28  O   UNL     1     -13.050   8.875  72.644  1.00  0.00    -0.418 OA 
HETATM   29  O   UNL     1     -12.264   6.886  71.162  1.00  0.00    -0.358 OA 
BRANCH  27  30
HETATM   30  O   UNL     1     -11.029   7.332  73.438  1.00  0.00    -0.358 OA 
HETATM   31  P   UNL     1     -10.027   5.952  73.150  1.00  0.00    -0.195 P  
HETATM   32  C   UNL     1      -8.966   4.492  72.844  1.00  0.00    -0.118 C  
HETATM   33  O   UNL     1     -11.395   5.030  73.201  1.00  0.00    -0.314 OA 
HETATM   34  O   UNL     1      -9.795   6.364  71.672  1.00  0.00    -0.168 OA 
HETATM   35 CL   UNL     1      -9.564   3.461  71.458  1.00  0.00    -0.224 Cl 
HETATM   36  P   UNL     1      -7.320   5.045  72.266  1.00  0.00    -0.095 P  
HETATM   37 CL   UNL     1      -9.026   3.431  74.292  1.00  0.00    -0.091 Cl 
HETATM   38  O   UNL     1      -6.709   4.798  73.787  1.00  0.00    -0.064 OA 
HETATM   39  O   UNL     1      -7.653   6.615  72.692  1.00  0.00    -0.092 OA 
HETATM   40  O   UNL     1      -5.926   5.512  71.778  1.00  0.00    -0.027 OA 
ENDBRANCH  27  30
ENDBRANCH  26  27
ENDBRANCH  25  26
ENDBRANCH  18  25
ENDBRANCH  11  16
BRANCH  14  41
HETATM   41  S   UNL     1      -6.253  14.887  69.316  1.00  0.00    -0.118 SA 
BRANCH  41  42
HETATM   42  C   UNL     1      -5.620  15.753  67.839  1.00  0.00    -0.142 C  
BRANCH  42  43
HETATM   43  C   UNL     1      -5.291  17.189  68.227  1.00  0.00    -0.127 C  
HETATM   44  C   UNL     1      -6.304  18.172  67.682  1.00  0.00    -0.174 C  
HETATM   45  F   UNL     1      -6.829  18.916  68.685  1.00  0.00    -0.249 F  
HETATM   46  F   UNL     1      -7.326  17.575  67.040  1.00  0.00    -0.182 F  
HETATM   47  F   UNL     1      -5.721  19.030  66.816  1.00  0.00    -0.157 F  
ENDBRANCH  42  43
ENDBRANCH  41  42
ENDBRANCH  14  41
ENDBRANCH   5   7
ENDBRANCH   4   5
ENDBRANCH   3   4
ENDBRANCH   2   3
TORSDOF 12
ENDMDL
MODEL       72
REMARK 921   NORMALIZED FREE ENERGY PREDICTED BY IDOCK:   -5.61 KCAL/MOL
REMARK 922        TOTAL FREE ENERGY PREDICTED BY IDOCK:  -10.55 KCAL/MOL
REMARK 923 INTER-LIGAND FREE ENERGY PREDICTED BY IDOCK:   -8.67 KCAL/MOL
REMARK 924 INTRA-LIGAND FREE ENERGY PREDICTED BY IDOCK:   -1.88 KCAL/MOL
REMARK 927      BINDING AFFINITY PREDICTED BY RF-SCORE:    0.00 PKD
ROOT
HETATM    1  C   UNL     1      -6.918   4.074  72.399  1.00  0.00    -0.047 C  
HETATM    2  S   UNL     1      -6.829   5.689  73.204  1.00  0.00    -0.081 SA 
ENDROOT
BRANCH   2   3
HETATM    3  C   UNL     1      -6.975   6.771  71.732  1.00  0.00    -0.071 C  
BRANCH   3   4
HETATM    4  C   UNL     1      -7.369   8.215  72.112  1.00  0.00    -0.100 C  
BRANCH   4   5
HETATM    5  N   UNL     1      -7.549   9.030  70.924  1.00  0.00    -0.114 NA 
HETATM    6  H   UNL     1      -6.736   9.293  70.367  1.00  0.00     0.000 HD 
BRANCH   5   7
HETATM    7  C   UNL     1      -8.808   9.455  70.536  1.00  0.00    -0.239 A  
HETATM    8  C   UNL     1      -8.951  10.450  69.557  1.00  0.00    -0.106 A  
HETATM    9  N   UNL     1      -8.023  11.135  68.796  1.00  0.00    -0.143 NA 
HETATM   10  C   UNL     1      -8.744  11.888  67.980  1.00  0.00    -0.173 A  
HETATM   11  N   UNL     1     -10.097  11.739  68.202  1.00  0.00    -0.186 NA 
HETATM   12  C   UNL     1     -10.240  10.823  69.204  1.00  0.00    -0.211 A  
HETATM   13  N   UNL     1      -9.944   8.937  71.088  1.00  0.00    -0.245 NA 
HETATM   14  C   UNL     1     -11.137   9.422  70.685  1.00  0.00    -0.289 A  
HETATM   15  N   UNL     1     -11.372  10.356  69.733  1.00  0.00    -0.270 NA 
BRANCH  11  16
HETATM   16  C   UNL     1     -11.123  12.308  67.355  1.00  0.00    -0.282 C  
HETATM   17  O   UNL     1     -11.585  11.272  66.480  1.00  0.00    -0.344 OA 
HETATM   18  C   UNL     1     -11.046  11.476  65.163  1.00  0.00    -0.194 C  
HETATM   19  H   UNL     1     -11.824  15.009  65.610  1.00  0.00     0.000 HD 
HETATM   20  O   UNL     1     -12.014  14.273  66.180  1.00  0.00    -0.391 OA 
HETATM   21  C   UNL     1     -10.394  12.854  65.128  1.00  0.00    -0.303 C  
HETATM   22  H   UNL     1     -10.469  14.441  63.967  1.00  0.00     0.000 HD 
HETATM   23  C   UNL     1     -10.815  13.498  66.432  1.00  0.00    -0.290 C  
HETATM   24  O   UNL     1     -10.875  13.582  63.989  1.00  0.00    -0.308 OA 
BRANCH  18  25
HETATM   25  C   UNL     1     -10.054  10.378  64.775  1.00  0.00    -0.317 C  
BRANCH  25  26
HETATM   26  O   UNL     1      -8.750  10.919  64.994  1.00  0.00    -0.179 OA 
BRANCH  26  27
HETATM   27  P   UNL     1      -7.540   9.885  64.796  1.00  0.00    -0.143 P  
HETATM   28  O   UNL     1      -6.885  10.562  63.482  1.00  0.00    -0.063 OA 
HETATM   29  O   UNL     1      -6.575   9.760  65.938  1.00  0.00    -0.076 OA 
BRANCH  27  30
HETATM   30  O   UNL     1      -8.276   8.482  64.396  1.00  0.00    -0.158 OA 
HETATM   31  P   UNL     1      -8.363   7.275  65.632  1.00  0.00    -0.100 P  
HETATM   32  C   UNL     1      -8.454   5.998  66.940  1.00  0.00    -0.109 C  
HETATM   33  O   UNL     1      -6.795   6.897  65.281  1.00  0.00    -0.049 OA 
HETATM   34  O   UNL     1      -8.346   8.348  66.753  1.00  0.00    -0.107 OA 
HETATM   35 CL   UNL     1      -7.076   6.111  68.137  1.00  0.00    -0.079 Cl 
HETATM   36  P   UNL     1      -9.929   6.297  67.982  1.00  0.00    -0.165 P  
HETATM   37 CL   UNL     1      -8.292   4.383  66.173  1.00  0.00    -0.112 Cl 
HETATM   38  O   UNL     1     -10.738   5.099  67.172  1.00  0.00    -0.170 OA 
HETATM   39  O   UNL     1     -10.528   7.395  66.889  1.00  0.00    -0.302 OA 
HETATM   40  O   UNL     1     -11.177   6.550  68.863  1.00  0.00    -0.306 OA 
ENDBRANCH  27  30
ENDBRANCH  26  27
ENDBRANCH  25  26
ENDBRANCH  18  25
ENDBRANCH  11  16
BRANCH  14  41
HETATM   41  S   UNL     1     -12.607   8.801  71.473  1.00  0.00    -0.322 SA 
BRANCH  41  42
HETATM   42  C   UNL     1     -11.872   7.637  72.671  1.00  0.00    -0.218 C  
BRANCH  42  43
HETATM   43  C   UNL     1     -11.995   6.227  72.110  1.00  0.00    -0.338 C  
HETATM   44  C   UNL     1     -10.964   5.289  72.697  1.00  0.00    -0.260 C  
HETATM   45  F   UNL     1     -11.565   4.210  73.252  1.00  0.00    -0.325 F  
HETATM   46  F   UNL     1     -10.206   5.866  73.650  1.00  0.00    -0.169 F  
HETATM   47  F   UNL     1     -10.132   4.827  71.736  1.00  0.00    -0.220 F  
ENDBRANCH  42  43
ENDBRANCH  41  42
ENDBRANCH  14  41
ENDBRANCH   5   7
ENDBRANCH   4   5
ENDBRANCH   3   4
ENDBRANCH   2   3
TORSDOF 12
ENDMDL
MODEL       73
REMARK 921   NORMALIZED FREE ENERGY PREDICTED BY IDOCK:   -5.58 KCAL/MOL
REMARK 922        TOTAL FREE ENERGY PREDICTED BY IDOCK:  -10.51 KCAL/MOL
REMARK 923 INTER-LIGAND FREE ENERGY PREDICTED BY IDOCK:   -9.33 KCAL/MOL
REMARK 924 INTRA-LIGAND FREE ENERGY PREDICTED BY IDOCK:   -1.17 KCAL/MOL
REMARK 927      BINDING AFFINITY PREDICTED BY RF-SCORE:    0.00 PKD
ROOT
HETATM    1  C   UNL     1      -8.267   6.821  71.287  1.00  0.00    -0.119 C  
HETATM    2  S   UNL     1      -7.192   8.148  71.877  1.00  0.00    -0.094 SA 
ENDROOT
BRANCH   2   3
HETATM    3  C   UNL     1      -6.531   8.739  70.272  1.00  0.00    -0.039 C  
BRANCH   3   4
HETATM    4  C   UNL     1      -7.095  10.123  69.889  1.00  0.00    -0.144 C  
BRANCH   4   5
HETATM    5  N   UNL     1      -8.307   9.986  69.099  1.00  0.00    -0.134 NA 
HETATM    6  H   UNL     1      -8.420   9.177  68.489  1.00  0.00     0.000 HD 
BRANCH   5   7
HETATM    7  C   UNL     1      -9.310  10.937  69.164  1.00  0.00    -0.078 A  
HETATM    8  C   UNL     1      -9.212  12.123  68.419  1.00  0.00    -0.154 A  
HETATM    9  N   UNL     1      -8.263  12.573  67.522  1.00  0.00    -0.164 NA 
HETATM   10  C   UNL     1      -8.742  13.721  67.069  1.00  0.00    -0.198 A  
HETATM   11  N   UNL     1      -9.947  14.044  67.657  1.00  0.00    -0.234 NA 
HETATM   12  C   UNL     1     -10.256  13.031  68.518  1.00  0.00    -0.215 A  
HETATM   13  N   UNL     1     -10.414  10.768  69.948  1.00  0.00    -0.105 NA 
HETATM   14  C   UNL     1     -11.337  11.751  69.987  1.00  0.00    -0.045 A  
HETATM   15  N   UNL     1     -11.340  12.911  69.287  1.00  0.00    -0.260 NA 
BRANCH  11  16
HETATM   16  C   UNL     1     -10.780  15.151  67.238  1.00  0.00    -0.305 C  
HETATM   17  O   UNL     1     -12.110  14.648  67.061  1.00  0.00    -0.357 OA 
HETATM   18  C   UNL     1     -12.394  14.516  65.659  1.00  0.00    -0.250 C  
HETATM   19  H   UNL     1     -10.787  17.760  65.233  1.00  0.00     0.000 HD 
HETATM   20  O   UNL     1     -10.976  17.282  66.032  1.00  0.00    -0.049 OA 
HETATM   21  C   UNL     1     -11.272  15.199  64.883  1.00  0.00    -0.417 C  
HETATM   22  H   UNL     1     -11.136  16.528  63.439  1.00  0.00     0.000 HD 
HETATM   23  C   UNL     1     -10.474  15.924  65.947  1.00  0.00    -0.359 C  
HETATM   24  O   UNL     1     -11.835  16.103  63.923  1.00  0.00    -0.921 OA 
BRANCH  18  25
HETATM   25  C   UNL     1     -12.552  13.053  65.243  1.00  0.00    -0.457 C  
BRANCH  25  26
HETATM   26  O   UNL     1     -11.235  12.501  65.207  1.00  0.00    -0.288 OA 
BRANCH  26  27
HETATM   27  P   UNL     1     -10.874  11.682  63.876  1.00  0.00    -0.449 P  
HETATM   28  O   UNL     1     -12.339  11.710  63.195  1.00  0.00    -0.399 OA 
HETATM   29  O   UNL     1      -9.805  12.268  63.002  1.00  0.00    -0.314 OA 
BRANCH  27  30
HETATM   30  O   UNL     1     -10.534  10.177  64.415  1.00  0.00     0.028 OA 
HETATM   31  P   UNL     1      -8.900   9.641  64.233  1.00  0.00    -0.199 P  
HETATM   32  C   UNL     1      -7.170   9.074  64.041  1.00  0.00    -0.095 C  
HETATM   33  O   UNL     1      -9.252   9.317  62.653  1.00  0.00    -0.171 OA 
HETATM   34  O   UNL     1      -8.360  11.094  64.305  1.00  0.00     0.188 OA 
HETATM   35 CL   UNL     1      -6.325   9.851  62.618  1.00  0.00    -0.109 Cl 
HETATM   36  P   UNL     1      -6.179   9.643  65.470  1.00  0.00    -0.080 P  
HETATM   37 CL   UNL     1      -7.184   7.314  63.687  1.00  0.00    -0.069 Cl 
HETATM   38  O   UNL     1      -6.286   8.131  66.139  1.00  0.00    -0.044 OA 
HETATM   39  O   UNL     1      -7.551  10.072  66.302  1.00  0.00    -0.100 OA 
HETATM   40  O   UNL     1      -5.340  10.124  66.680  1.00  0.00    -0.043 OA 
ENDBRANCH  27  30
ENDBRANCH  26  27
ENDBRANCH  25  26
ENDBRANCH  18  25
ENDBRANCH  11  16
BRANCH  14  41
HETATM   41  S   UNL     1     -12.729  11.557  71.078  1.00  0.00    -0.263 SA 
BRANCH  41  42
HETATM   42  C   UNL     1     -13.204   9.836  70.703  1.00  0.00    -0.014 C  
BRANCH  42  43
HETATM   43  C   UNL     1     -13.313   9.069  72.015  1.00  0.00    -0.494 C  
HETATM   44  C   UNL     1     -12.319   7.931  72.093  1.00  0.00    -0.291 C  
HETATM   45  F   UNL     1     -11.552   8.047  73.204  1.00  0.00    -0.451 F  
HETATM   46  F   UNL     1     -11.491   7.879  71.032  1.00  0.00    -0.264 F  
HETATM   47  F   UNL     1     -12.957   6.742  72.175  1.00  0.00    -0.317 F  
ENDBRANCH  42  43
ENDBRANCH  41  42
ENDBRANCH  14  41
ENDBRANCH   5   7
ENDBRANCH   4   5
ENDBRANCH   3   4
ENDBRANCH   2   3
TORSDOF 12
ENDMDL
MODEL       74
REMARK 921   NORMALIZED FREE ENERGY PREDICTED BY IDOCK:   -5.49 KCAL/MOL
REMARK 922        TOTAL FREE ENERGY PREDICTED BY IDOCK:  -10.34 KCAL/MOL
REMARK 923 INTER-LIGAND FREE ENERGY PREDICTED BY IDOCK:   -9.35 KCAL/MOL
REMARK 924 INTRA-LIGAND FREE ENERGY PREDICTED BY IDOCK:   -0.99 KCAL/MOL
REMARK 927      BINDING AFFINITY PREDICTED BY RF-SCORE:    0.00 PKD
ROOT
HETATM    1  C   UNL     1     -11.341  15.435  67.775  1.00  0.00    -0.306 C  
HETATM    2  S   UNL     1     -10.934  15.086  66.049  1.00  0.00    -0.328 SA 
ENDROOT
BRANCH   2   3
HETATM    3  C   UNL     1     -12.242  13.860  65.670  1.00  0.00    -0.452 C  
BRANCH   3   4
HETATM    4  C   UNL     1     -11.725  12.410  65.778  1.00  0.00    -0.414 C  
BRANCH   4   5
HETATM    5  N   UNL     1     -12.021  11.854  67.087  1.00  0.00    -0.603 NA 
HETATM    6  H   UNL     1     -12.881  12.123  67.565  1.00  0.00     0.000 HD 
BRANCH   5   7
HETATM    7  C   UNL     1     -11.153  10.964  67.695  1.00  0.00    -0.313 A  
HETATM    8  C   UNL     1     -11.308  10.635  69.051  1.00  0.00    -0.277 A  
HETATM    9  N   UNL     1     -12.248  11.011  69.990  1.00  0.00    -0.337 NA 
HETATM   10  C   UNL     1     -11.940  10.319  71.075  1.00  0.00    -0.385 A  
HETATM   11  N   UNL     1     -10.821   9.535  70.885  1.00  0.00    -0.311 NA 
HETATM   12  C   UNL     1     -10.412   9.727  69.596  1.00  0.00    -0.242 A  
HETATM   13  N   UNL     1     -10.122  10.384  67.013  1.00  0.00    -0.206 NA 
HETATM   14  C   UNL     1      -9.295   9.550  67.677  1.00  0.00    -0.123 A  
HETATM   15  N   UNL     1      -9.382   9.155  68.970  1.00  0.00    -0.150 NA 
BRANCH  11  16
HETATM   16  C   UNL     1     -10.351   8.553  71.838  1.00  0.00    -0.308 C  
HETATM   17  O   UNL     1      -9.699   7.511  71.101  1.00  0.00    -0.164 OA 
HETATM   18  C   UNL     1     -10.552   6.356  71.041  1.00  0.00    -0.234 C  
HETATM   19  H   UNL     1     -11.274   6.955  74.563  1.00  0.00     0.000 HD 
HETATM   20  O   UNL     1     -10.667   7.405  73.988  1.00  0.00    -0.254 OA 
HETATM   21  C   UNL     1     -11.718   6.578  71.998  1.00  0.00    -0.323 C  
HETATM   22  H   UNL     1     -12.585   5.576  73.452  1.00  0.00     0.000 HD 
HETATM   23  C   UNL     1     -11.332   7.824  72.769  1.00  0.00    -0.389 C  
HETATM   24  O   UNL     1     -11.859   5.437  72.856  1.00  0.00    -0.263 OA 
BRANCH  18  25
HETATM   25  C   UNL     1     -11.040   6.078  69.618  1.00  0.00    -0.404 C  
BRANCH  25  26
HETATM   26  O   UNL     1     -10.371   4.892  69.188  1.00  0.00    -0.166 OA 
BRANCH  26  27
HETATM   27  P   UNL     1      -9.479   5.054  67.864  1.00  0.00    -0.147 P  
HETATM   28  O   UNL     1     -10.425   6.110  67.088  1.00  0.00    -0.194 OA 
HETATM   29  O   UNL     1      -8.078   5.551  68.061  1.00  0.00    -0.096 OA 
BRANCH  27  30
HETATM   30  O   UNL     1      -9.565   3.589  67.146  1.00  0.00    -0.207 OA 
HETATM   31  P   UNL     1      -9.099   3.514  65.482  1.00  0.00    -0.155 P  
HETATM   32  C   UNL     1      -8.605   3.437  63.721  1.00  0.00    -0.090 C  
HETATM   33  O   UNL     1     -10.589   4.117  65.106  1.00  0.00    -0.224 OA 
HETATM   34  O   UNL     1      -8.134   4.719  65.645  1.00  0.00    -0.108 OA 
HETATM   35 CL   UNL     1      -8.885   5.013  62.838  1.00  0.00    -0.105 Cl 
HETATM   36  P   UNL     1      -6.792   3.216  63.606  1.00  0.00    -0.041 P  
HETATM   37 CL   UNL     1      -9.645   2.231  62.891  1.00  0.00    -0.090 Cl 
HETATM   38  O   UNL     1      -7.014   1.601  63.306  1.00  0.00    -0.028 OA 
HETATM   39  O   UNL     1      -6.691   2.867  65.226  1.00  0.00    -0.038 OA 
HETATM   40  O   UNL     1      -5.258   3.027  63.507  1.00  0.00    -0.007 OA 
ENDBRANCH  27  30
ENDBRANCH  26  27
ENDBRANCH  25  26
ENDBRANCH  18  25
ENDBRANCH  11  16
BRANCH  14  41
HETATM   41  S   UNL     1      -7.905   8.868  66.801  1.00  0.00    -0.097 SA 
BRANCH  41  42
HETATM   42  C   UNL     1      -6.564   9.932  67.432  1.00  0.00    -0.069 C  
BRANCH  42  43
HETATM   43  C   UNL     1      -6.566  11.232  66.638  1.00  0.00    -0.135 C  
HETATM   44  C   UNL     1      -7.148  12.382  67.431  1.00  0.00    -0.152 C  
HETATM   45  F   UNL     1      -6.267  13.409  67.493  1.00  0.00    -0.144 F  
HETATM   46  F   UNL     1      -7.467  12.044  68.696  1.00  0.00    -0.100 F  
HETATM   47  F   UNL     1      -8.267  12.855  66.839  1.00  0.00    -0.175 F  
ENDBRANCH  42  43
ENDBRANCH  41  42
ENDBRANCH  14  41
ENDBRANCH   5   7
ENDBRANCH   4   5
ENDBRANCH   3   4
ENDBRANCH   2   3
TORSDOF 12
ENDMDL
MODEL       75
REMARK 921   NORMALIZED FREE ENERGY PREDICTED BY IDOCK:   -5.47 KCAL/MOL
REMARK 922        TOTAL FREE ENERGY PREDICTED BY IDOCK:  -10.31 KCAL/MOL
REMARK 923 INTER-LIGAND FREE ENERGY PREDICTED BY IDOCK:   -9.25 KCAL/MOL
REMARK 924 INTRA-LIGAND FREE ENERGY PREDICTED BY IDOCK:   -1.07 KCAL/MOL
REMARK 927      BINDING AFFINITY PREDICTED BY RF-SCORE:    0.00 PKD
ROOT
HETATM    1  C   UNL     1     -11.096  14.870  64.930  1.00  0.00    -0.414 C  
HETATM    2  S   UNL     1     -10.350  15.822  66.273  1.00  0.00    -0.324 SA 
ENDROOT
BRANCH   2   3
HETATM    3  C   UNL     1      -9.178  14.569  66.918  1.00  0.00    -0.250 C  
BRANCH   3   4
HETATM    4  C   UNL     1      -9.664  13.129  66.651  1.00  0.00    -0.261 C  
BRANCH   4   5
HETATM    5  N   UNL     1      -8.853  12.168  67.376  1.00  0.00    -0.174 NA 
HETATM    6  H   UNL     1      -7.868  12.058  67.136  1.00  0.00     0.000 HD 
BRANCH   5   7
HETATM    7  C   UNL     1      -9.397  11.397  68.389  1.00  0.00    -0.194 A  
HETATM    8  C   UNL     1      -8.622  10.420  69.033  1.00  0.00    -0.157 A  
HETATM    9  N   UNL     1      -7.299  10.050  68.889  1.00  0.00    -0.076 NA 
HETATM   10  C   UNL     1      -7.100   9.132  69.821  1.00  0.00    -0.061 A  
HETATM   11  N   UNL     1      -8.248   8.873  70.541  1.00  0.00    -0.128 NA 
HETATM   12  C   UNL     1      -9.223   9.691  70.048  1.00  0.00    -0.241 A  
HETATM   13  N   UNL     1     -10.692  11.549  68.792  1.00  0.00    -0.204 NA 
HETATM   14  C   UNL     1     -11.166  10.742  69.764  1.00  0.00    -0.297 A  
HETATM   15  N   UNL     1     -10.489   9.796  70.456  1.00  0.00    -0.295 NA 
BRANCH  11  16
HETATM   16  C   UNL     1      -8.289   8.041  71.725  1.00  0.00    -0.127 C  
HETATM   17  O   UNL     1      -8.573   6.701  71.303  1.00  0.00    -0.125 OA 
HETATM   18  C   UNL     1      -9.941   6.381  71.603  1.00  0.00    -0.175 C  
HETATM   19  H   UNL     1      -9.408   8.011  74.819  1.00  0.00     0.000 HD 
HETATM   20  O   UNL     1      -8.787   7.837  74.122  1.00  0.00    -0.251 OA 
HETATM   21  C   UNL     1     -10.504   7.490  72.486  1.00  0.00    -0.249 C  
HETATM   22  H   UNL     1     -11.481   7.603  74.190  1.00  0.00     0.000 HD 
HETATM   23  C   UNL     1      -9.293   8.322  72.853  1.00  0.00    -0.254 C  
HETATM   24  O   UNL     1     -11.130   6.913  73.640  1.00  0.00    -0.144 OA 
BRANCH  18  25
HETATM   25  C   UNL     1     -10.777   6.196  70.335  1.00  0.00    -0.284 C  
BRANCH  25  26
HETATM   26  O   UNL     1     -10.191   5.106  69.623  1.00  0.00    -0.241 OA 
BRANCH  26  27
HETATM   27  P   UNL     1      -9.859   5.397  68.080  1.00  0.00    -0.152 P  
HETATM   28  O   UNL     1      -9.172   3.977  67.731  1.00  0.00    -0.134 OA 
HETATM   29  O   UNL     1     -11.028   5.720  67.197  1.00  0.00    -0.268 OA 
BRANCH  27  30
HETATM   30  O   UNL     1      -8.725   6.573  68.132  1.00  0.00    -0.118 OA 
HETATM   31  P   UNL     1      -8.235   7.243  66.615  1.00  0.00    -0.127 P  
HETATM   32  C   UNL     1      -7.718   7.951  65.009  1.00  0.00    -0.106 C  
HETATM   33  O   UNL     1      -7.277   5.914  66.412  1.00  0.00    -0.073 OA 
HETATM   34  O   UNL     1      -9.613   6.928  65.973  1.00  0.00    -0.018 OA 
HETATM   35 CL   UNL     1      -7.881   6.765  63.626  1.00  0.00    -0.119 Cl 
HETATM   36  P   UNL     1      -8.868   9.295  64.536  1.00  0.00    -0.044 P  
HETATM   37 CL   UNL     1      -5.969   8.347  65.097  1.00  0.00    -0.045 Cl 
HETATM   38  O   UNL     1      -7.760  10.416  65.049  1.00  0.00    -0.143 OA 
HETATM   39  O   UNL     1      -9.537   9.310  66.056  1.00  0.00    -0.230 OA 
HETATM   40  O   UNL     1      -9.840  10.432  64.136  1.00  0.00    -0.319 OA 
ENDBRANCH  27  30
ENDBRANCH  26  27
ENDBRANCH  25  26
ENDBRANCH  18  25
ENDBRANCH  11  16
BRANCH  14  41
HETATM   41  S   UNL     1     -12.880  10.890  70.221  1.00  0.00    -0.030 SA 
BRANCH  41  42
HETATM   42  C   UNL     1     -12.756  12.115  71.568  1.00  0.00    -0.243 C  
BRANCH  42  43
HETATM   43  C   UNL     1     -12.612  13.500  70.948  1.00  0.00    -0.414 C  
HETATM   44  C   UNL     1     -12.806  14.602  71.966  1.00  0.00    -0.330 C  
HETATM   45  F   UNL     1     -11.731  15.425  71.984  1.00  0.00    -0.375 F  
HETATM   46  F   UNL     1     -12.983  14.138  73.219  1.00  0.00    -0.574 F  
HETATM   47  F   UNL     1     -13.880  15.360  71.654  1.00  0.00    -0.457 F  
ENDBRANCH  42  43
ENDBRANCH  41  42
ENDBRANCH  14  41
ENDBRANCH   5   7
ENDBRANCH   4   5
ENDBRANCH   3   4
ENDBRANCH   2   3
TORSDOF 12
ENDMDL
MODEL       76
REMARK 921   NORMALIZED FREE ENERGY PREDICTED BY IDOCK:   -5.45 KCAL/MOL
REMARK 922        TOTAL FREE ENERGY PREDICTED BY IDOCK:  -10.28 KCAL/MOL
REMARK 923 INTER-LIGAND FREE ENERGY PREDICTED BY IDOCK:   -9.02 KCAL/MOL
REMARK 924 INTRA-LIGAND FREE ENERGY PREDICTED BY IDOCK:   -1.26 KCAL/MOL
REMARK 927      BINDING AFFINITY PREDICTED BY RF-SCORE:    0.00 PKD
ROOT
HETATM    1  C   UNL     1     -10.320  17.727  68.163  1.00  0.00    -0.391 C  
HETATM    2  S   UNL     1      -8.952  18.750  67.574  1.00  0.00    -0.275 SA 
ENDROOT
BRANCH   2   3
HETATM    3  C   UNL     1      -7.547  17.834  68.315  1.00  0.00    -0.256 C  
BRANCH   3   4
HETATM    4  C   UNL     1      -7.128  16.623  67.454  1.00  0.00    -0.160 C  
BRANCH   4   5
HETATM    5  N   UNL     1      -7.038  15.421  68.264  1.00  0.00    -0.109 NA 
HETATM    6  H   UNL     1      -6.408  15.401  69.066  1.00  0.00     0.000 HD 
BRANCH   5   7
HETATM    7  C   UNL     1      -7.794  14.302  67.963  1.00  0.00    -0.143 A  
HETATM    8  C   UNL     1      -7.179  13.144  67.462  1.00  0.00    -0.151 A  
HETATM    9  N   UNL     1      -5.856  12.835  67.215  1.00  0.00    -0.323 NA 
HETATM   10  C   UNL     1      -5.869  11.569  66.830  1.00  0.00    -0.143 A  
HETATM   11  N   UNL     1      -7.149  11.057  66.788  1.00  0.00    -0.127 NA 
HETATM   12  C   UNL     1      -7.992  12.053  67.192  1.00  0.00    -0.175 A  
HETATM   13  N   UNL     1      -9.148  14.281  68.132  1.00  0.00    -0.187 NA 
HETATM   14  C   UNL     1      -9.826  13.167  67.788  1.00  0.00    -0.228 A  
HETATM   15  N   UNL     1      -9.318  12.000  67.325  1.00  0.00    -0.176 NA 
BRANCH  11  16
HETATM   16  C   UNL     1      -7.454   9.660  66.564  1.00  0.00    -0.094 C  
HETATM   17  O   UNL     1      -7.701   9.060  67.841  1.00  0.00    -0.095 OA 
HETATM   18  C   UNL     1      -6.568   8.265  68.228  1.00  0.00    -0.060 C  
HETATM   19  H   UNL     1      -6.491   7.062  64.788  1.00  0.00     0.000 HD 
HETATM   20  O   UNL     1      -7.118   7.637  65.211  1.00  0.00    -0.060 OA 
HETATM   21  C   UNL     1      -5.638   8.151  67.025  1.00  0.00    -0.037 C  
HETATM   22  H   UNL     1      -4.725   6.702  66.056  1.00  0.00     0.000 HD 
HETATM   23  C   UNL     1      -6.440   8.731  65.879  1.00  0.00    -0.057 C  
HETATM   24  O   UNL     1      -5.305   6.773  66.805  1.00  0.00    -0.016 OA 
BRANCH  18  25
HETATM   25  C   UNL     1      -5.845   8.852  69.441  1.00  0.00    -0.034 C  
BRANCH  25  26
HETATM   26  O   UNL     1      -6.136   7.987  70.540  1.00  0.00    -0.033 OA 
BRANCH  26  27
HETATM   27  P   UNL     1      -7.024   8.639  71.706  1.00  0.00    -0.017 P  
HETATM   28  O   UNL     1      -5.861   9.518  72.404  1.00  0.00    -0.267 OA 
HETATM   29  O   UNL     1      -8.201   9.460  71.268  1.00  0.00    -0.315 OA 
BRANCH  27  30
HETATM   30  O   UNL     1      -7.420   7.373  72.660  1.00  0.00    -0.074 OA 
HETATM   31  P   UNL     1      -8.817   6.464  72.198  1.00  0.00    -0.134 P  
HETATM   32  C   UNL     1     -10.295   5.502  71.709  1.00  0.00    -0.216 C  
HETATM   33  O   UNL     1      -9.735   7.651  72.886  1.00  0.00    -0.182 OA 
HETATM   34  O   UNL     1      -8.624   6.828  70.702  1.00  0.00    -0.139 OA 
HETATM   35 CL   UNL     1     -11.525   6.507  70.802  1.00  0.00    -0.395 Cl 
HETATM   36  P   UNL     1      -9.817   4.231  70.482  1.00  0.00    -0.074 P  
HETATM   37 CL   UNL     1     -11.133   4.948  73.197  1.00  0.00    -0.366 Cl 
HETATM   38  O   UNL     1      -9.832   3.081  71.675  1.00  0.00    -0.161 OA 
HETATM   39  O   UNL     1      -8.205   4.482  70.790  1.00  0.00    -0.077 OA 
HETATM   40  O   UNL     1      -9.413   3.155  69.444  1.00  0.00    -0.165 OA 
ENDBRANCH  27  30
ENDBRANCH  26  27
ENDBRANCH  25  26
ENDBRANCH  18  25
ENDBRANCH  11  16
BRANCH  14  41
HETATM   41  S   UNL     1     -11.600  13.182  67.931  1.00  0.00    -0.355 SA 
BRANCH  41  42
HETATM   42  C   UNL     1     -12.047  14.054  66.392  1.00  0.00    -0.455 C  
BRANCH  42  43
HETATM   43  C   UNL     1     -12.481  13.020  65.361  1.00  0.00    -0.531 C  
HETATM   44  C   UNL     1     -11.494  12.904  64.220  1.00  0.00    -0.377 C  
HETATM   45  F   UNL     1     -11.075  11.624  64.083  1.00  0.00    -0.356 F  
HETATM   46  F   UNL     1     -10.401  13.674  64.388  1.00  0.00    -0.426 F  
HETATM   47  F   UNL     1     -12.070  13.260  63.050  1.00  0.00    -0.608 F  
ENDBRANCH  42  43
ENDBRANCH  41  42
ENDBRANCH  14  41
ENDBRANCH   5   7
ENDBRANCH   4   5
ENDBRANCH   3   4
ENDBRANCH   2   3
TORSDOF 12
ENDMDL
MODEL       77
REMARK 921   NORMALIZED FREE ENERGY PREDICTED BY IDOCK:   -5.44 KCAL/MOL
REMARK 922        TOTAL FREE ENERGY PREDICTED BY IDOCK:  -10.27 KCAL/MOL
REMARK 923 INTER-LIGAND FREE ENERGY PREDICTED BY IDOCK:   -9.70 KCAL/MOL
REMARK 924 INTRA-LIGAND FREE ENERGY PREDICTED BY IDOCK:   -0.57 KCAL/MOL
REMARK 927      BINDING AFFINITY PREDICTED BY RF-SCORE:    0.00 PKD
ROOT
HETATM    1  C   UNL     1      -6.389  12.654  67.325  1.00  0.00    -0.094 C  
HETATM    2  S   UNL     1      -5.245  12.820  68.714  1.00  0.00    -0.064 SA 
ENDROOT
BRANCH   2   3
HETATM    3  C   UNL     1      -5.151  11.067  69.242  1.00  0.00    -0.041 C  
BRANCH   3   4
HETATM    4  C   UNL     1      -5.659  10.869  70.686  1.00  0.00    -0.125 C  
BRANCH   4   5
HETATM    5  N   UNL     1      -5.947   9.469  70.943  1.00  0.00    -0.066 NA 
HETATM    6  H   UNL     1      -5.226   8.768  70.776  1.00  0.00     0.000 HD 
BRANCH   5   7
HETATM    7  C   UNL     1      -7.188   9.073  71.412  1.00  0.00    -0.041 A  
HETATM    8  C   UNL     1      -8.352   9.397  70.698  1.00  0.00    -0.175 A  
HETATM    9  N   UNL     1      -8.547  10.054  69.499  1.00  0.00    -0.176 NA 
HETATM   10  C   UNL     1      -9.851   9.988  69.284  1.00  0.00    -0.214 A  
HETATM   11  N   UNL     1     -10.510   9.343  70.309  1.00  0.00    -0.231 NA 
HETATM   12  C   UNL     1      -9.563   8.960  71.215  1.00  0.00    -0.278 A  
HETATM   13  N   UNL     1      -7.328   8.368  72.572  1.00  0.00    -0.206 NA 
HETATM   14  C   UNL     1      -8.571   8.043  72.985  1.00  0.00    -0.204 A  
HETATM   15  N   UNL     1      -9.743   8.288  72.353  1.00  0.00    -0.275 NA 
BRANCH  11  16
HETATM   16  C   UNL     1     -11.910   8.980  70.267  1.00  0.00     0.100 C  
HETATM   17  O   UNL     1     -12.667  10.189  70.126  1.00  0.00    -0.133 OA 
HETATM   18  C   UNL     1     -13.276  10.528  71.382  1.00  0.00    -0.345 C  
HETATM   19  H   UNL     1     -14.104   6.993  71.705  1.00  0.00     0.000 HD 
HETATM   20  O   UNL     1     -13.698   7.452  70.980  1.00  0.00    -0.238 OA 
HETATM   21  C   UNL     1     -13.101   9.344  72.327  1.00  0.00    -0.428 C  
HETATM   22  H   UNL     1     -14.258   8.265  73.497  1.00  0.00     0.000 HD 
HETATM   23  C   UNL     1     -12.569   8.237  71.440  1.00  0.00    -0.275 C  
HETATM   24  O   UNL     1     -14.367   9.003  72.909  1.00  0.00    -0.550 OA 
BRANCH  18  25
HETATM   25  C   UNL     1     -12.688  11.809  71.976  1.00  0.00     0.017 C  
BRANCH  25  26
HETATM   26  O   UNL     1     -12.899  12.835  71.006  1.00  0.00    -0.279 OA 
BRANCH  26  27
HETATM   27  P   UNL     1     -12.873  14.333  71.579  1.00  0.00    -0.383 P  
HETATM   28  O   UNL     1     -14.225  14.255  72.461  1.00  0.00    -0.568 OA 
HETATM   29  O   UNL     1     -11.666  14.719  72.382  1.00  0.00    -0.266 OA 
BRANCH  27  30
HETATM   30  O   UNL     1     -13.116  15.268  70.261  1.00  0.00    -0.250 OA 
HETATM   31  P   UNL     1     -11.815  15.357  69.125  1.00  0.00    -0.265 P  
HETATM   32  C   UNL     1     -10.437  15.450  67.923  1.00  0.00    -0.256 C  
HETATM   33  O   UNL     1     -11.096  16.448  70.133  1.00  0.00    -0.355 OA 
HETATM   34  O   UNL     1     -11.304  13.946  69.521  1.00  0.00    -0.261 OA 
HETATM   35 CL   UNL     1      -8.801  15.209  68.703  1.00  0.00    -0.177 Cl 
HETATM   36  P   UNL     1     -10.549  14.044  66.757  1.00  0.00    -0.281 P  
HETATM   37 CL   UNL     1     -10.399  17.105  67.229  1.00  0.00    -0.317 Cl 
HETATM   38  O   UNL     1     -11.215  15.047  65.619  1.00  0.00    -0.339 OA 
HETATM   39  O   UNL     1     -12.081  13.678  67.283  1.00  0.00    -0.380 OA 
HETATM   40  O   UNL     1     -10.644  12.855  65.770  1.00  0.00    -0.267 OA 
ENDBRANCH  27  30
ENDBRANCH  26  27
ENDBRANCH  25  26
ENDBRANCH  18  25
ENDBRANCH  11  16
BRANCH  14  41
HETATM   41  S   UNL     1      -8.747   7.200  74.543  1.00  0.00    -0.167 SA 
BRANCH  41  42
HETATM   42  C   UNL     1      -7.778   5.690  74.211  1.00  0.00    -0.095 C  
BRANCH  42  43
HETATM   43  C   UNL     1      -8.672   4.481  74.452  1.00  0.00    -0.105 C  
HETATM   44  C   UNL     1      -9.644   4.256  73.315  1.00  0.00    -0.118 C  
HETATM   45  F   UNL     1      -9.516   3.001  72.822  1.00  0.00    -0.114 F  
HETATM   46  F   UNL     1      -9.468   5.115  72.292  1.00  0.00    -0.146 F  
HETATM   47  F   UNL     1     -10.920   4.385  73.742  1.00  0.00    -0.269 F  
ENDBRANCH  42  43
ENDBRANCH  41  42
ENDBRANCH  14  41
ENDBRANCH   5   7
ENDBRANCH   4   5
ENDBRANCH   3   4
ENDBRANCH   2   3
TORSDOF 12
ENDMDL
MODEL       78
REMARK 921   NORMALIZED FREE ENERGY PREDICTED BY IDOCK:   -5.44 KCAL/MOL
REMARK 922        TOTAL FREE ENERGY PREDICTED BY IDOCK:  -10.26 KCAL/MOL
REMARK 923 INTER-LIGAND FREE ENERGY PREDICTED BY IDOCK:  -10.04 KCAL/MOL
REMARK 924 INTRA-LIGAND FREE ENERGY PREDICTED BY IDOCK:   -0.22 KCAL/MOL
REMARK 927      BINDING AFFINITY PREDICTED BY RF-SCORE:    0.00 PKD
ROOT
HETATM    1  C   UNL     1      -5.952  20.107  70.735  1.00  0.00    -0.317 C  
HETATM    2  S   UNL     1      -5.366  18.398  70.707  1.00  0.00    -0.224 SA 
ENDROOT
BRANCH   2   3
HETATM    3  C   UNL     1      -5.599  18.026  68.928  1.00  0.00    -0.190 C  
BRANCH   3   4
HETATM    4  C   UNL     1      -7.019  18.390  68.442  1.00  0.00    -0.253 C  
BRANCH   4   5
HETATM    5  N   UNL     1      -7.243  17.901  67.092  1.00  0.00    -0.182 NA 
HETATM    6  H   UNL     1      -6.967  18.476  66.297  1.00  0.00     0.000 HD 
BRANCH   5   7
HETATM    7  C   UNL     1      -7.826  16.665  66.872  1.00  0.00    -0.226 A  
HETATM    8  C   UNL     1      -9.080  16.574  66.249  1.00  0.00    -0.313 A  
HETATM    9  N   UNL     1      -9.923  17.535  65.725  1.00  0.00    -0.569 NA 
HETATM   10  C   UNL     1     -10.924  16.854  65.190  1.00  0.00    -0.053 A  
HETATM   11  N   UNL     1     -10.778  15.495  65.374  1.00  0.00    -0.380 NA 
HETATM   12  C   UNL     1      -9.604  15.305  66.045  1.00  0.00    -0.338 A  
HETATM   13  N   UNL     1      -7.218  15.504  67.251  1.00  0.00    -0.211 NA 
HETATM   14  C   UNL     1      -7.859  14.337  67.033  1.00  0.00     0.079 A  
HETATM   15  N   UNL     1      -9.051  14.150  66.419  1.00  0.00    -0.175 NA 
BRANCH  11  16
HETATM   16  C   UNL     1     -11.628  14.500  64.757  1.00  0.00    -0.413 C  
HETATM   17  O   UNL     1     -12.539  14.028  65.757  1.00  0.00    -0.491 OA 
HETATM   18  C   UNL     1     -12.133  12.723  66.202  1.00  0.00    -0.364 C  
HETATM   19  H   UNL     1     -11.524  11.937  62.695  1.00  0.00     0.000 HD 
HETATM   20  O   UNL     1     -11.893  12.722  63.081  1.00  0.00    -0.493 OA 
HETATM   21  C   UNL     1     -11.039  12.223  65.265  1.00  0.00    -0.316 C  
HETATM   22  H   UNL     1     -10.683  10.591  64.224  1.00  0.00     0.000 HD 
HETATM   23  C   UNL     1     -11.032  13.229  64.132  1.00  0.00    -0.354 C  
HETATM   24  O   UNL     1     -11.364  10.903  64.808  1.00  0.00     0.110 OA 
BRANCH  18  25
HETATM   25  C   UNL     1     -11.659  12.736  67.657  1.00  0.00    -0.358 C  
BRANCH  25  26
HETATM   26  O   UNL     1     -12.260  11.603  68.285  1.00  0.00    -0.525 OA 
BRANCH  26  27
HETATM   27  P   UNL     1     -11.941  11.439  69.848  1.00  0.00    -0.349 P  
HETATM   28  O   UNL     1     -11.818  13.008  70.214  1.00  0.00    -0.305 OA 
HETATM   29  O   UNL     1     -12.972  10.721  70.668  1.00  0.00    -0.323 OA 
BRANCH  27  30
HETATM   30  O   UNL     1     -10.466  10.738  69.881  1.00  0.00    -0.170 OA 
HETATM   31  P   UNL     1     -10.431   9.015  70.029  1.00  0.00    -0.233 P  
HETATM   32  C   UNL     1     -10.395   7.192  70.184  1.00  0.00    -0.206 C  
HETATM   33  O   UNL     1     -10.701   9.213  71.645  1.00  0.00    -0.341 OA 
HETATM   34  O   UNL     1     -11.813   8.876  69.337  1.00  0.00     0.613 OA 
HETATM   35 CL   UNL     1     -11.848   6.529  71.074  1.00  0.00    -0.412 Cl 
HETATM   36  P   UNL     1     -10.548   6.434  68.525  1.00  0.00    -0.307 P  
HETATM   37 CL   UNL     1      -8.973   6.732  71.180  1.00  0.00    -0.147 Cl 
HETATM   38  O   UNL     1      -8.913   6.167  68.503  1.00  0.00    -0.117 OA 
HETATM   39  O   UNL     1     -10.284   7.900  67.789  1.00  0.00    -0.190 OA 
HETATM   40  O   UNL     1     -10.676   5.794  67.121  1.00  0.00    -0.264 OA 
ENDBRANCH  27  30
ENDBRANCH  26  27
ENDBRANCH  25  26
ENDBRANCH  18  25
ENDBRANCH  11  16
BRANCH  14  41
HETATM   41  S   UNL     1      -7.095  12.836  67.609  1.00  0.00    -0.156 SA 
BRANCH  41  42
HETATM   42  C   UNL     1      -8.238  11.596  66.911  1.00  0.00    -0.169 C  
BRANCH  42  43
HETATM   43  C   UNL     1      -7.413  10.464  66.313  1.00  0.00    -0.127 C  
HETATM   44  C   UNL     1      -7.009   9.443  67.353  1.00  0.00    -0.085 C  
HETATM   45  F   UNL     1      -7.418   8.205  66.986  1.00  0.00    -0.082 F  
HETATM   46  F   UNL     1      -7.526   9.697  68.571  1.00  0.00    -0.076 F  
HETATM   47  F   UNL     1      -5.664   9.394  67.481  1.00  0.00    -0.040 F  
ENDBRANCH  42  43
ENDBRANCH  41  42
ENDBRANCH  14  41
ENDBRANCH   5   7
ENDBRANCH   4   5
ENDBRANCH   3   4
ENDBRANCH   2   3
TORSDOF 12
ENDMDL
MODEL       79
REMARK 921   NORMALIZED FREE ENERGY PREDICTED BY IDOCK:   -5.40 KCAL/MOL
REMARK 922        TOTAL FREE ENERGY PREDICTED BY IDOCK:  -10.19 KCAL/MOL
REMARK 923 INTER-LIGAND FREE ENERGY PREDICTED BY IDOCK:   -9.78 KCAL/MOL
REMARK 924 INTRA-LIGAND FREE ENERGY PREDICTED BY IDOCK:   -0.41 KCAL/MOL
REMARK 927      BINDING AFFINITY PREDICTED BY RF-SCORE:    0.00 PKD
ROOT
HETATM    1  C   UNL     1     -14.090   8.807  72.032  1.00  0.00    -0.441 C  
HETATM    2  S   UNL     1     -12.348   9.288  72.042  1.00  0.00    -0.341 SA 
ENDROOT
BRANCH   2   3
HETATM    3  C   UNL     1     -11.576   7.637  71.854  1.00  0.00    -0.280 C  
BRANCH   3   4
HETATM    4  C   UNL     1     -12.190   6.840  70.683  1.00  0.00    -0.254 C  
BRANCH   4   5
HETATM    5  N   UNL     1     -11.199   5.969  70.076  1.00  0.00    -0.382 NA 
HETATM    6  H   UNL     1     -11.397   4.973  69.980  1.00  0.00     0.000 HD 
BRANCH   5   7
HETATM    7  C   UNL     1      -9.990   6.471  69.627  1.00  0.00    -0.164 A  
HETATM    8  C   UNL     1      -9.908   7.117  68.384  1.00  0.00    -0.152 A  
HETATM    9  N   UNL     1     -10.868   7.423  67.438  1.00  0.00    -0.260 NA 
HETATM   10  C   UNL     1     -10.222   8.113  66.511  1.00  0.00    -0.177 A  
HETATM   11  N   UNL     1      -8.880   8.238  66.803  1.00  0.00    -0.134 NA 
HETATM   12  C   UNL     1      -8.670   7.608  67.997  1.00  0.00    -0.125 A  
HETATM   13  N   UNL     1      -8.845   6.354  70.360  1.00  0.00    -0.150 NA 
HETATM   14  C   UNL     1      -7.695   6.838  69.846  1.00  0.00    -0.109 A  
HETATM   15  N   UNL     1      -7.526   7.497  68.674  1.00  0.00    -0.099 NA 
BRANCH  11  16
HETATM   16  C   UNL     1      -7.965   9.076  66.059  1.00  0.00    -0.103 C  
HETATM   17  O   UNL     1      -8.305  10.440  66.335  1.00  0.00    -0.132 OA 
HETATM   18  C   UNL     1      -8.997  11.003  65.208  1.00  0.00    -0.163 C  
HETATM   19  H   UNL     1      -6.523   9.337  63.112  1.00  0.00     0.000 HD 
HETATM   20  O   UNL     1      -6.572   9.390  64.059  1.00  0.00    -0.090 OA 
HETATM   21  C   UNL     1      -8.885  10.021  64.046  1.00  0.00    -0.224 C  
HETATM   22  H   UNL     1      -8.354  10.101  62.153  1.00  0.00     0.000 HD 
HETATM   23  C   UNL     1      -7.885   8.990  64.526  1.00  0.00    -0.123 C  
HETATM   24  O   UNL     1      -8.424  10.712  62.877  1.00  0.00    -0.175 OA 
BRANCH  18  25
HETATM   25  C   UNL     1     -10.457  11.320  65.533  1.00  0.00    -0.265 C  
BRANCH  25  26
HETATM   26  O   UNL     1     -10.501  12.705  65.877  1.00  0.00    -0.264 OA 
BRANCH  26  27
HETATM   27  P   UNL     1     -10.891  13.019  67.401  1.00  0.00    -0.263 P  
HETATM   28  O   UNL     1     -12.092  11.948  67.546  1.00  0.00    -0.573 OA 
HETATM   29  O   UNL     1      -9.806  12.829  68.419  1.00  0.00    -0.223 OA 
BRANCH  27  30
HETATM   30  O   UNL     1     -11.493  14.537  67.353  1.00  0.00    -0.335 OA 
HETATM   31  P   UNL     1     -10.398  15.817  67.742  1.00  0.00    -0.288 P  
HETATM   32  C   UNL     1      -9.238  17.172  68.153  1.00  0.00    -0.261 C  
HETATM   33  O   UNL     1     -10.640  15.453  69.333  1.00  0.00    -0.222 OA 
HETATM   34  O   UNL     1      -9.178  14.992  67.253  1.00  0.00    -0.190 OA 
HETATM   35 CL   UNL     1      -7.915  16.647  69.301  1.00  0.00    -0.152 Cl 
HETATM   36  P   UNL     1      -8.310  17.657  66.651  1.00  0.00    -0.270 P  
HETATM   37 CL   UNL     1     -10.145  18.455  69.021  1.00  0.00    -0.363 Cl 
HETATM   38  O   UNL     1      -9.306  18.968  66.467  1.00  0.00    -0.320 OA 
HETATM   39  O   UNL     1      -9.338  16.782  65.685  1.00  0.00    -0.511 OA 
HETATM   40  O   UNL     1      -7.526  18.069  65.381  1.00  0.00    -0.482 OA 
ENDBRANCH  27  30
ENDBRANCH  26  27
ENDBRANCH  25  26
ENDBRANCH  18  25
ENDBRANCH  11  16
BRANCH  14  41
HETATM   41  S   UNL     1      -6.194   6.603  70.771  1.00  0.00    -0.032 SA 
BRANCH  41  42
HETATM   42  C   UNL     1      -6.008   8.256  71.522  1.00  0.00    -0.038 C  
BRANCH  42  43
HETATM   43  C   UNL     1      -7.324   8.632  72.190  1.00  0.00    -0.061 C  
HETATM   44  C   UNL     1      -7.497   7.953  73.531  1.00  0.00    -0.139 C  
HETATM   45  F   UNL     1      -7.717   8.871  74.502  1.00  0.00    -0.245 F  
HETATM   46  F   UNL     1      -6.424   7.224  73.896  1.00  0.00    -0.073 F  
HETATM   47  F   UNL     1      -8.567   7.128  73.516  1.00  0.00    -0.135 F  
ENDBRANCH  42  43
ENDBRANCH  41  42
ENDBRANCH  14  41
ENDBRANCH   5   7
ENDBRANCH   4   5
ENDBRANCH   3   4
ENDBRANCH   2   3
TORSDOF 12
ENDMDL
MODEL       80
REMARK 921   NORMALIZED FREE ENERGY PREDICTED BY IDOCK:   -5.38 KCAL/MOL
REMARK 922        TOTAL FREE ENERGY PREDICTED BY IDOCK:  -10.16 KCAL/MOL
REMARK 923 INTER-LIGAND FREE ENERGY PREDICTED BY IDOCK:   -8.09 KCAL/MOL
REMARK 924 INTRA-LIGAND FREE ENERGY PREDICTED BY IDOCK:   -2.07 KCAL/MOL
REMARK 927      BINDING AFFINITY PREDICTED BY RF-SCORE:    0.00 PKD
ROOT
HETATM    1  C   UNL     1      -6.274   8.436  72.941  1.00  0.00    -0.086 C  
HETATM    2  S   UNL     1      -5.565   7.470  71.589  1.00  0.00    -0.036 SA 
ENDROOT
BRANCH   2   3
HETATM    3  C   UNL     1      -5.334   8.803  70.352  1.00  0.00    -0.020 C  
BRANCH   3   4
HETATM    4  C   UNL     1      -5.991   8.458  68.999  1.00  0.00    -0.043 C  
BRANCH   4   5
HETATM    5  N   UNL     1      -5.825   9.547  68.052  1.00  0.00    -0.041 NA 
HETATM    6  H   UNL     1      -5.042  10.190  68.158  1.00  0.00     0.000 HD 
BRANCH   5   7
HETATM    7  C   UNL     1      -6.717   9.723  67.009  1.00  0.00    -0.075 A  
HETATM    8  C   UNL     1      -7.561  10.844  66.979  1.00  0.00    -0.122 A  
HETATM    9  N   UNL     1      -7.683  11.930  67.823  1.00  0.00    -0.126 NA 
HETATM   10  C   UNL     1      -8.583  12.710  67.246  1.00  0.00    -0.196 A  
HETATM   11  N   UNL     1      -9.070  12.158  66.079  1.00  0.00    -0.123 NA 
HETATM   12  C   UNL     1      -8.423  10.969  65.899  1.00  0.00    -0.140 A  
HETATM   13  N   UNL     1      -6.815   8.826  65.985  1.00  0.00    -0.072 NA 
HETATM   14  C   UNL     1      -7.728   9.045  65.017  1.00  0.00    -0.109 A  
HETATM   15  N   UNL     1      -8.562  10.105  64.892  1.00  0.00    -0.167 NA 
BRANCH  11  16
HETATM   16  C   UNL     1      -9.938  12.856  65.155  1.00  0.00    -0.157 C  
HETATM   17  O   UNL     1     -10.525  13.957  65.860  1.00  0.00    -0.290 OA 
HETATM   18  C   UNL     1     -11.892  13.651  66.179  1.00  0.00    -0.392 C  
HETATM   19  H   UNL     1     -12.172  12.311  62.801  1.00  0.00     0.000 HD 
HETATM   20  O   UNL     1     -11.441  12.755  63.214  1.00  0.00    -0.476 OA 
HETATM   21  C   UNL     1     -12.281  12.382  65.429  1.00  0.00    -0.319 C  
HETATM   22  H   UNL     1     -13.752  11.811  64.254  1.00  0.00     0.000 HD 
HETATM   23  C   UNL     1     -11.120  12.138  64.487  1.00  0.00    -0.325 C  
HETATM   24  O   UNL     1     -13.510  12.601  64.722  1.00  0.00    -0.608 OA 
BRANCH  18  25
HETATM   25  C   UNL     1     -12.107  13.498  67.686  1.00  0.00    -0.283 C  
BRANCH  25  26
HETATM   26  O   UNL     1     -11.991  12.103  67.968  1.00  0.00    -0.465 OA 
BRANCH  26  27
HETATM   27  P   UNL     1     -11.770  11.734  69.514  1.00  0.00    -0.333 P  
HETATM   28  O   UNL     1     -11.593  13.240  70.076  1.00  0.00    -0.242 OA 
HETATM   29  O   UNL     1     -12.880  10.981  70.185  1.00  0.00    -0.197 OA 
BRANCH  27  30
HETATM   30  O   UNL     1     -10.334  10.955  69.536  1.00  0.00    -0.198 OA 
HETATM   31  P   UNL     1     -10.392   9.231  69.666  1.00  0.00    -0.238 P  
HETATM   32  C   UNL     1     -10.454   7.407  69.804  1.00  0.00    -0.229 C  
HETATM   33  O   UNL     1     -10.647   9.428  71.285  1.00  0.00    -0.313 OA 
HETATM   34  O   UNL     1     -11.781   9.174  68.977  1.00  0.00     0.554 OA 
HETATM   35 CL   UNL     1     -11.939   6.814  70.692  1.00  0.00    -0.445 Cl 
HETATM   36  P   UNL     1     -10.652   6.676  68.137  1.00  0.00    -0.269 P  
HETATM   37 CL   UNL     1      -9.056   6.862  70.791  1.00  0.00    -0.154 Cl 
HETATM   38  O   UNL     1      -9.033   6.321  68.108  1.00  0.00    -0.117 OA 
HETATM   39  O   UNL     1     -10.311   8.132  67.415  1.00  0.00    -0.234 OA 
HETATM   40  O   UNL     1     -10.818   6.057  66.728  1.00  0.00    -0.315 OA 
ENDBRANCH  27  30
ENDBRANCH  26  27
ENDBRANCH  25  26
ENDBRANCH  18  25
ENDBRANCH  11  16
BRANCH  14  41
HETATM   41  S   UNL     1      -7.906   7.824  63.735  1.00  0.00    -0.109 SA 
BRANCH  41  42
HETATM   42  C   UNL     1      -7.831   6.293  64.725  1.00  0.00    -0.110 C  
BRANCH  42  43
HETATM   43  C   UNL     1      -8.680   5.232  64.036  1.00  0.00    -0.008 C  
HETATM   44  C   UNL     1      -8.744   3.948  64.834  1.00  0.00    -0.116 C  
HETATM   45  F   UNL     1     -10.031   3.607  65.081  1.00  0.00    -0.170 F  
HETATM   46  F   UNL     1      -8.111   4.032  66.020  1.00  0.00    -0.097 F  
HETATM   47  F   UNL     1      -8.189   2.927  64.144  1.00  0.00    -0.080 F  
ENDBRANCH  42  43
ENDBRANCH  41  42
ENDBRANCH  14  41
ENDBRANCH   5   7
ENDBRANCH   4   5
ENDBRANCH   3   4
ENDBRANCH   2   3
TORSDOF 12
ENDMDL
MODEL       81
REMARK 921   NORMALIZED FREE ENERGY PREDICTED BY IDOCK:   -5.32 KCAL/MOL
REMARK 922        TOTAL FREE ENERGY PREDICTED BY IDOCK:  -10.07 KCAL/MOL
REMARK 923 INTER-LIGAND FREE ENERGY PREDICTED BY IDOCK:   -9.17 KCAL/MOL
REMARK 924 INTRA-LIGAND FREE ENERGY PREDICTED BY IDOCK:   -0.90 KCAL/MOL
REMARK 927      BINDING AFFINITY PREDICTED BY RF-SCORE:    0.00 PKD
ROOT
HETATM    1  C   UNL     1     -14.171  15.216  71.889  1.00  0.00    -0.579 C  
HETATM    2  S   UNL     1     -12.912  14.187  71.102  1.00  0.00    -0.337 SA 
ENDROOT
BRANCH   2   3
HETATM    3  C   UNL     1     -11.991  15.480  70.186  1.00  0.00    -0.366 C  
BRANCH   3   4
HETATM    4  C   UNL     1     -11.814  15.119  68.696  1.00  0.00    -0.302 C  
BRANCH   4   5
HETATM    5  N   UNL     1     -11.524  13.704  68.539  1.00  0.00    -0.288 NA 
HETATM    6  H   UNL     1     -12.235  13.015  68.782  1.00  0.00     0.000 HD 
BRANCH   5   7
HETATM    7  C   UNL     1     -10.295  13.278  68.066  1.00  0.00    -0.241 A  
HETATM    8  C   UNL     1     -10.222  12.346  67.020  1.00  0.00    -0.220 A  
HETATM    9  N   UNL     1     -11.199  11.731  66.262  1.00  0.00    -0.323 NA 
HETATM   10  C   UNL     1     -10.535  11.018  65.366  1.00  0.00    -0.241 A  
HETATM   11  N   UNL     1      -9.170  11.123  65.533  1.00  0.00    -0.216 NA 
HETATM   12  C   UNL     1      -8.960  11.970  66.583  1.00  0.00    -0.204 A  
HETATM   13  N   UNL     1      -9.122  13.735  68.595  1.00  0.00    -0.121 NA 
HETATM   14  C   UNL     1      -7.961  13.252  68.106  1.00  0.00    -0.150 A  
HETATM   15  N   UNL     1      -7.793  12.377  67.086  1.00  0.00    -0.163 NA 
BRANCH  11  16
HETATM   16  C   UNL     1      -8.199  10.589  64.603  1.00  0.00    -0.088 C  
HETATM   17  O   UNL     1      -8.696   9.330  64.134  1.00  0.00    -0.201 OA 
HETATM   18  C   UNL     1      -7.978   8.260  64.769  1.00  0.00    -0.146 C  
HETATM   19  H   UNL     1      -4.955  10.213  64.193  1.00  0.00     0.000 HD 
HETATM   20  O   UNL     1      -5.848  10.389  63.919  1.00  0.00    -0.141 OA 
HETATM   21  C   UNL     1      -6.789   8.862  65.509  1.00  0.00    -0.076 C  
HETATM   22  H   UNL     1      -4.852   8.531  65.612  1.00  0.00     0.000 HD 
HETATM   23  C   UNL     1      -6.755  10.304  65.046  1.00  0.00    -0.108 C  
HETATM   24  O   UNL     1      -5.593   8.155  65.152  1.00  0.00    -0.042 OA 
BRANCH  18  25
HETATM   25  C   UNL     1      -8.872   7.452  65.712  1.00  0.00    -0.075 C  
BRANCH  25  26
HETATM   26  O   UNL     1      -8.901   8.166  66.948  1.00  0.00    -0.124 OA 
BRANCH  26  27
HETATM   27  P   UNL     1      -9.860   7.543  68.074  1.00  0.00    -0.164 P  
HETATM   28  O   UNL     1     -10.732   8.869  68.378  1.00  0.00    -0.176 OA 
HETATM   29  O   UNL     1     -10.696   6.368  67.663  1.00  0.00    -0.236 OA 
BRANCH  27  30
HETATM   30  O   UNL     1      -8.855   7.234  69.325  1.00  0.00    -0.136 OA 
HETATM   31  P   UNL     1      -9.560   7.240  70.904  1.00  0.00    -0.167 P  
HETATM   32  C   UNL     1     -10.308   7.247  72.575  1.00  0.00    -0.218 C  
HETATM   33  O   UNL     1      -9.481   8.889  70.861  1.00  0.00    -0.194 OA 
HETATM   34  O   UNL     1     -10.946   6.824  70.343  1.00  0.00    -0.249 OA 
HETATM   35 CL   UNL     1     -11.760   8.351  72.696  1.00  0.00    -0.430 Cl 
HETATM   36  P   UNL     1     -11.014   5.597  72.934  1.00  0.00    -0.291 P  
HETATM   37 CL   UNL     1      -9.106   7.908  73.734  1.00  0.00    -0.337 Cl 
HETATM   38  O   UNL     1      -9.685   5.235  73.855  1.00  0.00    -0.143 OA 
HETATM   39  O   UNL     1     -10.241   4.937  71.620  1.00  0.00    -0.198 OA 
HETATM   40  O   UNL     1     -11.610   4.201  73.238  1.00  0.00    -0.197 OA 
ENDBRANCH  27  30
ENDBRANCH  26  27
ENDBRANCH  25  26
ENDBRANCH  18  25
ENDBRANCH  11  16
BRANCH  14  41
HETATM   41  S   UNL     1      -6.442  13.789  68.861  1.00  0.00    -0.106 SA 
BRANCH  41  42
HETATM   42  C   UNL     1      -5.872  15.005  67.625  1.00  0.00    -0.042 C  
BRANCH  42  43
HETATM   43  C   UNL     1      -6.957  16.060  67.451  1.00  0.00    -0.223 C  
HETATM   44  C   UNL     1      -6.473  17.248  66.649  1.00  0.00    -0.228 C  
HETATM   45  F   UNL     1      -7.279  17.460  65.582  1.00  0.00    -0.299 F  
HETATM   46  F   UNL     1      -5.217  17.096  66.186  1.00  0.00    -0.198 F  
HETATM   47  F   UNL     1      -6.500  18.374  67.396  1.00  0.00    -0.181 F  
ENDBRANCH  42  43
ENDBRANCH  41  42
ENDBRANCH  14  41
ENDBRANCH   5   7
ENDBRANCH   4   5
ENDBRANCH   3   4
ENDBRANCH   2   3
TORSDOF 12
ENDMDL
MODEL       82
REMARK 921   NORMALIZED FREE ENERGY PREDICTED BY IDOCK:   -5.29 KCAL/MOL
REMARK 922        TOTAL FREE ENERGY PREDICTED BY IDOCK:  -10.01 KCAL/MOL
REMARK 923 INTER-LIGAND FREE ENERGY PREDICTED BY IDOCK:   -9.23 KCAL/MOL
REMARK 924 INTRA-LIGAND FREE ENERGY PREDICTED BY IDOCK:   -0.78 KCAL/MOL
REMARK 927      BINDING AFFINITY PREDICTED BY RF-SCORE:    0.00 PKD
ROOT
HETATM    1  C   UNL     1      -9.906  20.321  67.578  1.00  0.00    -0.436 C  
HETATM    2  S   UNL     1      -8.426  19.639  66.798  1.00  0.00    -0.328 SA 
ENDROOT
BRANCH   2   3
HETATM    3  C   UNL     1      -7.322  19.559  68.260  1.00  0.00    -0.311 C  
BRANCH   3   4
HETATM    4  C   UNL     1      -6.918  18.108  68.601  1.00  0.00    -0.257 C  
BRANCH   4   5
HETATM    5  N   UNL     1      -7.404  17.186  67.590  1.00  0.00    -0.161 NA 
HETATM    6  H   UNL     1      -7.138  17.322  66.615  1.00  0.00     0.000 HD 
BRANCH   5   7
HETATM    7  C   UNL     1      -8.224  16.125  67.931  1.00  0.00    -0.153 A  
HETATM    8  C   UNL     1      -7.794  14.803  67.733  1.00  0.00    -0.151 A  
HETATM    9  N   UNL     1      -6.605  14.281  67.263  1.00  0.00    -0.217 NA 
HETATM   10  C   UNL     1      -6.741  12.969  67.378  1.00  0.00    -0.115 A  
HETATM   11  N   UNL     1      -7.980  12.622  67.875  1.00  0.00    -0.142 NA 
HETATM   12  C   UNL     1      -8.658  13.785  68.107  1.00  0.00    -0.175 A  
HETATM   13  N   UNL     1      -9.469  16.316  68.459  1.00  0.00    -0.212 NA 
HETATM   14  C   UNL     1     -10.226  15.235  68.738  1.00  0.00    -0.227 A  
HETATM   15  N   UNL     1      -9.887  13.931  68.606  1.00  0.00    -0.209 NA 
BRANCH  11  16
HETATM   16  C   UNL     1      -8.348  11.277  68.261  1.00  0.00    -0.150 C  
HETATM   17  O   UNL     1      -7.473  10.375  67.573  1.00  0.00    -0.092 OA 
HETATM   18  C   UNL     1      -8.177   9.752  66.487  1.00  0.00    -0.120 C  
HETATM   19  H   UNL     1     -10.980   9.373  68.785  1.00  0.00     0.000 HD 
HETATM   20  O   UNL     1     -10.106   9.706  68.951  1.00  0.00    -0.174 OA 
HETATM   21  C   UNL     1      -9.657  10.089  66.628  1.00  0.00    -0.186 C  
HETATM   22  H   UNL     1     -11.356   9.096  66.632  1.00  0.00     0.000 HD 
HETATM   23  C   UNL     1      -9.762  10.738  67.993  1.00  0.00    -0.162 C  
HETATM   24  O   UNL     1     -10.434   8.886  66.544  1.00  0.00    -0.238 OA 
BRANCH  18  25
HETATM   25  C   UNL     1      -7.631  10.189  65.126  1.00  0.00    -0.141 C  
BRANCH  25  26
HETATM   26  O   UNL     1      -6.568   9.288  64.812  1.00  0.00    -0.073 OA 
BRANCH  26  27
HETATM   27  P   UNL     1      -6.844   8.313  63.568  1.00  0.00    -0.086 P  
HETATM   28  O   UNL     1      -7.122   9.451  62.454  1.00  0.00    -0.101 OA 
HETATM   29  O   UNL     1      -5.732   7.379  63.193  1.00  0.00    -0.044 OA 
BRANCH  27  30
HETATM   30  O   UNL     1      -8.239   7.556  63.957  1.00  0.00    -0.081 OA 
HETATM   31  P   UNL     1      -8.095   6.073  64.834  1.00  0.00    -0.104 P  
HETATM   32  C   UNL     1      -7.943   4.503  65.763  1.00  0.00    -0.095 C  
HETATM   33  O   UNL     1      -7.748   5.334  63.399  1.00  0.00    -0.068 OA 
HETATM   34  O   UNL     1      -6.751   6.518  65.469  1.00  0.00    -0.045 OA 
HETATM   35 CL   UNL     1      -6.380   3.621  65.410  1.00  0.00    -0.031 Cl 
HETATM   36  P   UNL     1      -7.818   4.862  67.553  1.00  0.00    -0.094 P  
HETATM   37 CL   UNL     1      -9.249   3.394  65.226  1.00  0.00    -0.146 Cl 
HETATM   38  O   UNL     1      -9.417   4.470  67.738  1.00  0.00    -0.138 OA 
HETATM   39  O   UNL     1      -8.269   6.442  67.307  1.00  0.00    -0.112 OA 
HETATM   40  O   UNL     1      -7.713   5.167  69.068  1.00  0.00    -0.079 OA 
ENDBRANCH  27  30
ENDBRANCH  26  27
ENDBRANCH  25  26
ENDBRANCH  18  25
ENDBRANCH  11  16
BRANCH  14  41
HETATM   41  S   UNL     1     -11.878  15.499  69.344  1.00  0.00    -0.356 SA 
BRANCH  41  42
HETATM   42  C   UNL     1     -11.813  14.549  70.901  1.00  0.00    -0.302 C  
BRANCH  42  43
HETATM   43  C   UNL     1     -11.707  15.532  72.061  1.00  0.00    -0.541 C  
HETATM   44  C   UNL     1     -12.674  15.202  73.176  1.00  0.00    -0.481 C  
HETATM   45  F   UNL     1     -12.013  15.054  74.349  1.00  0.00    -0.683 F  
HETATM   46  F   UNL     1     -13.368  14.068  72.955  1.00  0.00    -0.573 F  
HETATM   47  F   UNL     1     -13.567  16.202  73.349  1.00  0.00    -0.639 F  
ENDBRANCH  42  43
ENDBRANCH  41  42
ENDBRANCH  14  41
ENDBRANCH   5   7
ENDBRANCH   4   5
ENDBRANCH   3   4
ENDBRANCH   2   3
TORSDOF 12
ENDMDL
MODEL       83
REMARK 921   NORMALIZED FREE ENERGY PREDICTED BY IDOCK:   -5.25 KCAL/MOL
REMARK 922        TOTAL FREE ENERGY PREDICTED BY IDOCK:   -9.95 KCAL/MOL
REMARK 923 INTER-LIGAND FREE ENERGY PREDICTED BY IDOCK:   -8.49 KCAL/MOL
REMARK 924 INTRA-LIGAND FREE ENERGY PREDICTED BY IDOCK:   -1.46 KCAL/MOL
REMARK 927      BINDING AFFINITY PREDICTED BY RF-SCORE:    0.00 PKD
ROOT
HETATM    1  C   UNL     1     -10.506  17.242  67.743  1.00  0.00    -0.371 C  
HETATM    2  S   UNL     1     -10.641  16.763  69.480  1.00  0.00    -0.199 SA 
ENDROOT
BRANCH   2   3
HETATM    3  C   UNL     1     -11.907  15.446  69.334  1.00  0.00    -0.351 C  
BRANCH   3   4
HETATM    4  C   UNL     1     -11.825  14.711  67.979  1.00  0.00    -0.311 C  
BRANCH   4   5
HETATM    5  N   UNL     1     -11.383  13.340  68.162  1.00  0.00    -0.270 NA 
HETATM    6  H   UNL     1     -12.018  12.658  68.577  1.00  0.00     0.000 HD 
BRANCH   5   7
HETATM    7  C   UNL     1     -10.113  12.945  67.780  1.00  0.00    -0.229 A  
HETATM    8  C   UNL     1      -9.922  11.732  67.099  1.00  0.00    -0.203 A  
HETATM    9  N   UNL     1     -10.811  10.775  66.652  1.00  0.00    -0.208 NA 
HETATM   10  C   UNL     1     -10.065   9.895  66.003  1.00  0.00    -0.244 A  
HETATM   11  N   UNL     1      -8.727  10.228  66.039  1.00  0.00    -0.146 NA 
HETATM   12  C   UNL     1      -8.625  11.400  66.734  1.00  0.00    -0.166 A  
HETATM   13  N   UNL     1      -9.011  13.703  68.051  1.00  0.00    -0.181 NA 
HETATM   14  C   UNL     1      -7.800  13.240  67.678  1.00  0.00    -0.168 A  
HETATM   15  N   UNL     1      -7.523  12.103  66.997  1.00  0.00    -0.125 NA 
BRANCH  11  16
HETATM   16  C   UNL     1      -7.703   9.544  65.280  1.00  0.00    -0.111 C  
HETATM   17  O   UNL     1      -8.281   8.341  64.760  1.00  0.00    -0.149 OA 
HETATM   18  C   UNL     1      -7.811   7.213  65.517  1.00  0.00    -0.115 C  
HETATM   19  H   UNL     1      -4.510   8.753  65.383  1.00  0.00     0.000 HD 
HETATM   20  O   UNL     1      -5.320   9.029  64.971  1.00  0.00    -0.038 OA 
HETATM   21  C   UNL     1      -6.680   7.689  66.422  1.00  0.00    -0.058 C  
HETATM   22  H   UNL     1      -4.840   7.124  66.829  1.00  0.00     0.000 HD 
HETATM   23  C   UNL     1      -6.392   9.098  65.946  1.00  0.00    -0.060 C  
HETATM   24  O   UNL     1      -5.544   6.827  66.265  1.00  0.00    -0.017 OA 
BRANCH  18  25
HETATM   25  C   UNL     1      -8.933   6.557  66.323  1.00  0.00    -0.156 C  
BRANCH  25  26
HETATM   26  O   UNL     1      -8.565   6.680  67.697  1.00  0.00    -0.120 OA 
BRANCH  26  27
HETATM   27  P   UNL     1      -9.182   5.564  68.672  1.00  0.00    -0.130 P  
HETATM   28  O   UNL     1      -8.946   4.282  67.716  1.00  0.00    -0.107 OA 
HETATM   29  O   UNL     1      -8.536   5.424  70.018  1.00  0.00    -0.107 OA 
BRANCH  27  30
HETATM   30  O   UNL     1     -10.773   5.930  68.738  1.00  0.00    -0.255 OA 
HETATM   31  P   UNL     1     -11.277   6.959  70.033  1.00  0.00    -0.266 P  
HETATM   32  C   UNL     1     -11.810   8.049  71.403  1.00  0.00    -0.295 C  
HETATM   33  O   UNL     1     -11.237   5.633  71.015  1.00  0.00    -0.200 OA 
HETATM   34  O   UNL     1      -9.884   7.638  70.105  1.00  0.00    -0.183 OA 
HETATM   35 CL   UNL     1     -10.747   7.897  72.883  1.00  0.00    -0.430 Cl 
HETATM   36  P   UNL     1     -11.586   9.799  70.914  1.00  0.00    -0.410 P  
HETATM   37 CL   UNL     1     -13.447   7.538  71.935  1.00  0.00    -0.338 Cl 
HETATM   38  O   UNL     1     -13.207   9.911  70.591  1.00  0.00    -0.245 OA 
HETATM   39  O   UNL     1     -11.335   9.365  69.330  1.00  0.00    -0.065 OA 
HETATM   40  O   UNL     1     -11.397  11.279  70.499  1.00  0.00    -0.150 OA 
ENDBRANCH  27  30
ENDBRANCH  26  27
ENDBRANCH  25  26
ENDBRANCH  18  25
ENDBRANCH  11  16
BRANCH  14  41
HETATM   41  S   UNL     1      -6.363  14.196  68.113  1.00  0.00    -0.147 SA 
BRANCH  41  42
HETATM   42  C   UNL     1      -6.813  15.813  67.397  1.00  0.00    -0.201 C  
BRANCH  42  43
HETATM   43  C   UNL     1      -6.125  16.906  68.206  1.00  0.00    -0.133 C  
HETATM   44  C   UNL     1      -6.531  18.290  67.750  1.00  0.00    -0.193 C  
HETATM   45  F   UNL     1      -7.023  19.006  68.790  1.00  0.00    -0.279 F  
HETATM   46  F   UNL     1      -7.471  18.275  66.786  1.00  0.00    -0.204 F  
HETATM   47  F   UNL     1      -5.464  18.969  67.272  1.00  0.00    -0.156 F  
ENDBRANCH  42  43
ENDBRANCH  41  42
ENDBRANCH  14  41
ENDBRANCH   5   7
ENDBRANCH   4   5
ENDBRANCH   3   4
ENDBRANCH   2   3
TORSDOF 12
ENDMDL
MODEL       84
REMARK 921   NORMALIZED FREE ENERGY PREDICTED BY IDOCK:   -5.23 KCAL/MOL
REMARK 922        TOTAL FREE ENERGY PREDICTED BY IDOCK:   -9.91 KCAL/MOL
REMARK 923 INTER-LIGAND FREE ENERGY PREDICTED BY IDOCK:  -11.19 KCAL/MOL
REMARK 924 INTRA-LIGAND FREE ENERGY PREDICTED BY IDOCK:    1.28 KCAL/MOL
REMARK 927      BINDING AFFINITY PREDICTED BY RF-SCORE:    0.00 PKD
ROOT
HETATM    1  C   UNL     1     -10.891   4.609  71.614  1.00  0.00     0.237 C  
HETATM    2  S   UNL     1     -11.350   6.023  70.588  1.00  0.00    -0.138 SA 
ENDROOT
BRANCH   2   3
HETATM    3  C   UNL     1     -12.670   6.743  71.636  1.00  0.00    -0.312 C  
BRANCH   3   4
HETATM    4  C   UNL     1     -12.188   8.000  72.392  1.00  0.00    -0.287 C  
BRANCH   4   5
HETATM    5  N   UNL     1     -11.204   8.727  71.608  1.00  0.00    -0.298 NA 
HETATM    6  H   UNL     1     -10.285   8.314  71.447  1.00  0.00     0.000 HD 
BRANCH   5   7
HETATM    7  C   UNL     1     -11.495   9.971  71.078  1.00  0.00    -0.383 A  
HETATM    8  C   UNL     1     -10.829  10.426  69.929  1.00  0.00    -0.298 A  
HETATM    9  N   UNL     1      -9.885   9.832  69.113  1.00  0.00    -0.178 NA 
HETATM   10  C   UNL     1      -9.688  10.701  68.134  1.00  0.00    -0.156 A  
HETATM   11  N   UNL     1     -10.442  11.843  68.300  1.00  0.00    -0.198 NA 
HETATM   12  C   UNL     1     -11.175  11.677  69.440  1.00  0.00    -0.246 A  
HETATM   13  N   UNL     1     -12.421  10.798  71.645  1.00  0.00    -0.330 NA 
HETATM   14  C   UNL     1     -12.631  12.010  71.092  1.00  0.00    -0.271 A  
HETATM   15  N   UNL     1     -12.059  12.521  69.976  1.00  0.00    -0.301 NA 
BRANCH  11  16
HETATM   16  C   UNL     1     -10.555  12.888  67.305  1.00  0.00    -0.234 C  
HETATM   17  O   UNL     1      -9.291  13.559  67.236  1.00  0.00    -0.216 OA 
HETATM   18  C   UNL     1      -9.381  14.830  67.900  1.00  0.00    -0.193 C  
HETATM   19  H   UNL     1     -12.607  15.236  66.252  1.00  0.00     0.000 HD 
HETATM   20  O   UNL     1     -11.966  14.541  66.159  1.00  0.00    -0.372 OA 
HETATM   21  C   UNL     1     -10.850  15.101  68.205  1.00  0.00    -0.262 C  
HETATM   22  H   UNL     1     -12.119  16.579  67.930  1.00  0.00     0.000 HD 
HETATM   23  C   UNL     1     -11.592  14.013  67.456  1.00  0.00    -0.367 C  
HETATM   24  O   UNL     1     -11.204  16.410  67.740  1.00  0.00    -0.254 OA 
BRANCH  18  25
HETATM   25  C   UNL     1      -8.528  14.874  69.169  1.00  0.00    -0.152 C  
BRANCH  25  26
HETATM   26  O   UNL     1      -7.554  15.897  68.963  1.00  0.00    -0.173 OA 
BRANCH  26  27
HETATM   27  P   UNL     1      -6.710  15.772  67.604  1.00  0.00    -0.195 P  
HETATM   28  O   UNL     1      -5.535  16.817  67.978  1.00  0.00    -0.110 OA 
HETATM   29  O   UNL     1      -6.196  14.405  67.261  1.00  0.00    -0.301 OA 
BRANCH  27  30
HETATM   30  O   UNL     1      -7.691  16.413  66.466  1.00  0.00    -0.257 OA 
HETATM   31  P   UNL     1      -7.668  18.135  66.306  1.00  0.00    -0.196 P  
HETATM   32  C   UNL     1      -7.643  19.958  66.137  1.00  0.00    -0.324 C  
HETATM   33  O   UNL     1      -8.658  18.205  67.625  1.00  0.00    -0.247 OA 
HETATM   34  O   UNL     1      -6.204  18.215  66.815  1.00  0.00    -0.164 OA 
HETATM   35 CL   UNL     1      -7.217  20.807  67.700  1.00  0.00    -0.354 Cl 
HETATM   36  P   UNL     1      -6.280  20.448  65.018  1.00  0.00    -0.301 P  
HETATM   37 CL   UNL     1      -9.299  20.515  65.724  1.00  0.00     0.024 Cl 
HETATM   38  O   UNL     1      -7.370  20.647  63.786  1.00  0.00     0.370 OA 
HETATM   39  O   UNL     1      -6.064  18.876  64.528  1.00  0.00    -0.420 OA 
HETATM   40  O   UNL     1      -5.128  20.863  64.070  1.00  0.00    -0.179 OA 
ENDBRANCH  27  30
ENDBRANCH  26  27
ENDBRANCH  25  26
ENDBRANCH  18  25
ENDBRANCH  11  16
BRANCH  14  41
HETATM   41  S   UNL     1     -13.777  13.112  71.891  1.00  0.00    -0.171 SA 
BRANCH  41  42
HETATM   42  C   UNL     1     -13.174  14.720  71.272  1.00  0.00    -0.382 C  
BRANCH  42  43
HETATM   43  C   UNL     1     -11.962  15.130  72.098  1.00  0.00    -0.489 C  
HETATM   44  C   UNL     1     -12.358  15.789  73.401  1.00  0.00    -0.528 C  
HETATM   45  F   UNL     1     -11.795  15.143  74.450  1.00  0.00    -0.623 F  
HETATM   46  F   UNL     1     -13.690  15.806  73.601  1.00  0.00    -0.460 F  
HETATM   47  F   UNL     1     -11.922  17.068  73.443  1.00  0.00    -0.500 F  
ENDBRANCH  42  43
ENDBRANCH  41  42
ENDBRANCH  14  41
ENDBRANCH   5   7
ENDBRANCH   4   5
ENDBRANCH   3   4
ENDBRANCH   2   3
TORSDOF 12
ENDMDL
MODEL       85
REMARK 921   NORMALIZED FREE ENERGY PREDICTED BY IDOCK:   -5.21 KCAL/MOL
REMARK 922        TOTAL FREE ENERGY PREDICTED BY IDOCK:   -9.87 KCAL/MOL
REMARK 923 INTER-LIGAND FREE ENERGY PREDICTED BY IDOCK:   -9.17 KCAL/MOL
REMARK 924 INTRA-LIGAND FREE ENERGY PREDICTED BY IDOCK:   -0.70 KCAL/MOL
REMARK 927      BINDING AFFINITY PREDICTED BY RF-SCORE:    0.00 PKD
ROOT
HETATM    1  C   UNL     1     -10.258   5.945  74.561  1.00  0.00    -0.278 C  
HETATM    2  S   UNL     1     -11.033   4.727  73.475  1.00  0.00    -0.330 SA 
ENDROOT
BRANCH   2   3
HETATM    3  C   UNL     1     -10.081   5.039  71.940  1.00  0.00    -0.197 C  
BRANCH   3   4
HETATM    4  C   UNL     1      -9.660   6.518  71.811  1.00  0.00    -0.152 C  
BRANCH   4   5
HETATM    5  N   UNL     1      -8.858   6.724  70.617  1.00  0.00    -0.150 NA 
HETATM    6  H   UNL     1      -7.848   6.593  70.662  1.00  0.00     0.000 HD 
BRANCH   5   7
HETATM    7  C   UNL     1      -9.446   7.096  69.421  1.00  0.00    -0.153 A  
HETATM    8  C   UNL     1      -9.806   8.433  69.193  1.00  0.00    -0.183 A  
HETATM    9  N   UNL     1      -9.654   9.573  69.958  1.00  0.00    -0.222 NA 
HETATM   10  C   UNL     1     -10.103  10.557  69.195  1.00  0.00    -0.224 A  
HETATM   11  N   UNL     1     -10.567  10.096  67.980  1.00  0.00    -0.213 NA 
HETATM   12  C   UNL     1     -10.380   8.743  67.968  1.00  0.00    -0.220 A  
HETATM   13  N   UNL     1      -9.702   6.191  68.432  1.00  0.00    -0.120 NA 
HETATM   14  C   UNL     1     -10.306   6.618  67.304  1.00  0.00    -0.232 A  
HETATM   15  N   UNL     1     -10.664   7.886  66.986  1.00  0.00    -0.306 NA 
BRANCH  11  16
HETATM   16  C   UNL     1     -10.961  10.956  66.886  1.00  0.00    -0.223 C  
HETATM   17  O   UNL     1      -9.795  11.207  66.091  1.00  0.00    -0.210 OA 
HETATM   18  C   UNL     1      -9.315  12.537  66.344  1.00  0.00    -0.209 C  
HETATM   19  H   UNL     1     -12.797  13.605  66.219  1.00  0.00     0.000 HD 
HETATM   20  O   UNL     1     -12.424  12.747  66.055  1.00  0.00    -0.540 OA 
HETATM   21  C   UNL     1     -10.367  13.271  67.168  1.00  0.00    -0.248 C  
HETATM   22  H   UNL     1     -11.313  14.994  67.070  1.00  0.00     0.000 HD 
HETATM   23  C   UNL     1     -11.565  12.344  67.151  1.00  0.00    -0.365 C  
HETATM   24  O   UNL     1     -10.658  14.536  66.557  1.00  0.00    -0.289 OA 
BRANCH  18  25
HETATM   25  C   UNL     1      -7.957  12.529  67.050  1.00  0.00    -0.085 C  
BRANCH  25  26
HETATM   26  O   UNL     1      -8.000  13.583  68.013  1.00  0.00    -0.126 OA 
BRANCH  26  27
HETATM   27  P   UNL     1      -6.580  13.996  68.636  1.00  0.00    -0.115 P  
HETATM   28  O   UNL     1      -6.304  12.642  69.474  1.00  0.00    -0.117 OA 
HETATM   29  O   UNL     1      -5.490  14.317  67.657  1.00  0.00    -0.311 OA 
BRANCH  27  30
HETATM   30  O   UNL     1      -6.935  15.224  69.654  1.00  0.00    -0.172 OA 
HETATM   31  P   UNL     1      -7.239  16.765  68.931  1.00  0.00    -0.220 P  
HETATM   32  C   UNL     1      -7.561  18.396  68.165  1.00  0.00    -0.274 C  
HETATM   33  O   UNL     1      -5.605  16.953  68.800  1.00  0.00    -0.130 OA 
HETATM   34  O   UNL     1      -7.742  16.108  67.618  1.00  0.00    -0.131 OA 
HETATM   35 CL   UNL     1      -6.675  18.621  66.581  1.00  0.00    -0.209 Cl 
HETATM   36  P   UNL     1      -9.321  18.501  67.670  1.00  0.00    -0.290 P  
HETATM   37 CL   UNL     1      -6.927  19.673  69.255  1.00  0.00    -0.384 Cl 
HETATM   38  O   UNL     1      -9.641  19.406  69.021  1.00  0.00    -0.401 OA 
HETATM   39  O   UNL     1      -9.688  17.135  68.540  1.00  0.00    -0.267 OA 
HETATM   40  O   UNL     1     -10.809  18.590  67.253  1.00  0.00    -0.408 OA 
ENDBRANCH  27  30
ENDBRANCH  26  27
ENDBRANCH  25  26
ENDBRANCH  18  25
ENDBRANCH  11  16
BRANCH  14  41
HETATM   41  S   UNL     1     -10.713   5.414  66.058  1.00  0.00     0.130 SA 
BRANCH  41  42
HETATM   42  C   UNL     1      -9.171   4.440  66.026  1.00  0.00    -0.139 C  
BRANCH  42  43
HETATM   43  C   UNL     1      -8.152   5.178  65.168  1.00  0.00    -0.118 C  
HETATM   44  C   UNL     1      -8.093   4.632  63.758  1.00  0.00    -0.101 C  
HETATM   45  F   UNL     1      -8.308   5.620  62.858  1.00  0.00    -0.106 F  
HETATM   46  F   UNL     1      -9.004   3.666  63.527  1.00  0.00    -0.093 F  
HETATM   47  F   UNL     1      -6.872   4.114  63.495  1.00  0.00    -0.039 F  
ENDBRANCH  42  43
ENDBRANCH  41  42
ENDBRANCH  14  41
ENDBRANCH   5   7
ENDBRANCH   4   5
ENDBRANCH   3   4
ENDBRANCH   2   3
TORSDOF 12
ENDMDL
MODEL       86
REMARK 921   NORMALIZED FREE ENERGY PREDICTED BY IDOCK:   -5.20 KCAL/MOL
REMARK 922        TOTAL FREE ENERGY PREDICTED BY IDOCK:   -9.86 KCAL/MOL
REMARK 923 INTER-LIGAND FREE ENERGY PREDICTED BY IDOCK:  -12.21 KCAL/MOL
REMARK 924 INTRA-LIGAND FREE ENERGY PREDICTED BY IDOCK:    2.35 KCAL/MOL
REMARK 927      BINDING AFFINITY PREDICTED BY RF-SCORE:    0.00 PKD
ROOT
HETATM    1  C   UNL     1     -10.953   4.689  73.877  1.00  0.00    -0.263 C  
HETATM    2  S   UNL     1     -10.124   6.138  73.186  1.00  0.00    -0.200 SA 
ENDROOT
BRANCH   2   3
HETATM    3  C   UNL     1     -11.179   6.418  71.713  1.00  0.00    -0.277 C  
BRANCH   3   4
HETATM    4  C   UNL     1     -10.725   7.649  70.901  1.00  0.00    -0.235 C  
BRANCH   4   5
HETATM    5  N   UNL     1     -11.816   8.596  70.747  1.00  0.00    -0.436 NA 
HETATM    6  H   UNL     1     -12.769   8.305  70.962  1.00  0.00     0.000 HD 
BRANCH   5   7
HETATM    7  C   UNL     1     -11.579   9.889  70.313  1.00  0.00    -0.250 A  
HETATM    8  C   UNL     1     -12.292  10.965  70.866  1.00  0.00    -0.400 A  
HETATM    9  N   UNL     1     -13.239  11.025  71.869  1.00  0.00    -0.463 NA 
HETATM   10  C   UNL     1     -13.492  12.316  72.019  1.00  0.00    -0.316 A  
HETATM   11  N   UNL     1     -12.769  13.089  71.135  1.00  0.00    -0.336 NA 
HETATM   12  C   UNL     1     -11.999  12.237  70.397  1.00  0.00    -0.263 A  
HETATM   13  N   UNL     1     -10.662  10.166  69.341  1.00  0.00    -0.222 NA 
HETATM   14  C   UNL     1     -10.507  11.446  68.944  1.00  0.00    -0.193 A  
HETATM   15  N   UNL     1     -11.126  12.545  69.435  1.00  0.00    -0.141 NA 
BRANCH  11  16
HETATM   16  C   UNL     1     -12.717  14.534  71.180  1.00  0.00    -0.338 C  
HETATM   17  O   UNL     1     -13.174  15.023  69.913  1.00  0.00     0.114 OA 
HETATM   18  C   UNL     1     -12.053  15.476  69.137  1.00  0.00    -0.240 C  
HETATM   19  H   UNL     1     -10.812  17.017  72.199  1.00  0.00     0.000 HD 
HETATM   20  O   UNL     1     -11.632  16.563  72.042  1.00  0.00    -0.424 OA 
HETATM   21  C   UNL     1     -10.829  15.505  70.046  1.00  0.00    -0.318 C  
HETATM   22  H   UNL     1      -9.419  16.798  70.506  1.00  0.00     0.000 HD 
HETATM   23  C   UNL     1     -11.392  15.269  71.433  1.00  0.00    -0.363 C  
HETATM   24  O   UNL     1     -10.181  16.780  69.939  1.00  0.00    -0.065 OA 
BRANCH  18  25
HETATM   25  C   UNL     1     -11.815  14.597  67.908  1.00  0.00    -0.320 C  
BRANCH  25  26
HETATM   26  O   UNL     1     -11.886  15.464  66.775  1.00  0.00     0.009 OA 
BRANCH  26  27
HETATM   27  P   UNL     1     -10.534  15.579  65.917  1.00  0.00    -0.384 P  
HETATM   28  O   UNL     1      -9.486  15.362  67.129  1.00  0.00    -0.207 OA 
HETATM   29  O   UNL     1     -10.364  14.587  64.805  1.00  0.00    -0.415 OA 
BRANCH  27  30
HETATM   30  O   UNL     1     -10.508  17.136  65.424  1.00  0.00    -0.633 OA 
HETATM   31  P   UNL     1      -9.391  18.184  66.228  1.00  0.00    -0.059 P  
HETATM   32  C   UNL     1      -8.208  19.292  67.078  1.00  0.00    -0.266 C  
HETATM   33  O   UNL     1     -10.477  18.284  67.466  1.00  0.00    -0.379 OA 
HETATM   34  O   UNL     1      -8.431  17.005  66.540  1.00  0.00    -0.227 OA 
HETATM   35 CL   UNL     1      -7.861  18.771  68.796  1.00  0.00    -0.359 Cl 
HETATM   36  P   UNL     1      -6.569  19.169  66.272  1.00  0.00    -0.224 P  
HETATM   37 CL   UNL     1      -8.949  20.921  67.212  1.00  0.00    -0.306 Cl 
HETATM   38  O   UNL     1      -6.864  20.590  65.471  1.00  0.00    -0.251 OA 
HETATM   39  O   UNL     1      -7.221  18.347  64.984  1.00  0.00    -0.152 OA 
HETATM   40  O   UNL     1      -5.184  19.067  65.589  1.00  0.00    -0.146 OA 
ENDBRANCH  27  30
ENDBRANCH  26  27
ENDBRANCH  25  26
ENDBRANCH  18  25
ENDBRANCH  11  16
BRANCH  14  41
HETATM   41  S   UNL     1      -9.372  11.784  67.615  1.00  0.00    -0.186 SA 
BRANCH  41  42
HETATM   42  C   UNL     1     -10.170  10.861  66.258  1.00  0.00    -0.247 C  
BRANCH  42  43
HETATM   43  C   UNL     1     -10.753  11.865  65.271  1.00  0.00    -0.331 C  
HETATM   44  C   UNL     1     -10.724  11.347  63.850  1.00  0.00    -0.397 C  
HETATM   45  F   UNL     1     -11.966  11.374  63.310  1.00  0.00    -0.493 F  
HETATM   46  F   UNL     1     -10.269  10.083  63.757  1.00  0.00    -0.204 F  
HETATM   47  F   UNL     1      -9.937  12.124  63.073  1.00  0.00    -0.404 F  
ENDBRANCH  42  43
ENDBRANCH  41  42
ENDBRANCH  14  41
ENDBRANCH   5   7
ENDBRANCH   4   5
ENDBRANCH   3   4
ENDBRANCH   2   3
TORSDOF 12
ENDMDL
MODEL       87
REMARK 921   NORMALIZED FREE ENERGY PREDICTED BY IDOCK:   -5.18 KCAL/MOL
REMARK 922        TOTAL FREE ENERGY PREDICTED BY IDOCK:   -9.83 KCAL/MOL
REMARK 923 INTER-LIGAND FREE ENERGY PREDICTED BY IDOCK:   -8.82 KCAL/MOL
REMARK 924 INTRA-LIGAND FREE ENERGY PREDICTED BY IDOCK:   -1.00 KCAL/MOL
REMARK 927      BINDING AFFINITY PREDICTED BY RF-SCORE:    0.00 PKD
ROOT
HETATM    1  C   UNL     1     -10.637  19.297  66.758  1.00  0.00    -0.448 C  
HETATM    2  S   UNL     1      -8.939  19.795  66.390  1.00  0.00    -0.372 SA 
ENDROOT
BRANCH   2   3
HETATM    3  C   UNL     1      -8.088  19.066  67.840  1.00  0.00    -0.278 C  
BRANCH   3   4
HETATM    4  C   UNL     1      -7.047  18.003  67.426  1.00  0.00    -0.192 C  
BRANCH   4   5
HETATM    5  N   UNL     1      -7.620  17.062  66.479  1.00  0.00    -0.261 NA 
HETATM    6  H   UNL     1      -7.559  17.254  65.480  1.00  0.00     0.000 HD 
BRANCH   5   7
HETATM    7  C   UNL     1      -8.248  15.908  66.915  1.00  0.00    -0.248 A  
HETATM    8  C   UNL     1      -7.491  14.807  67.343  1.00  0.00    -0.194 A  
HETATM    9  N   UNL     1      -6.128  14.618  67.471  1.00  0.00    -0.345 NA 
HETATM   10  C   UNL     1      -6.002  13.412  68.003  1.00  0.00    -0.129 A  
HETATM   11  N   UNL     1      -7.225  12.803  68.195  1.00  0.00    -0.102 NA 
HETATM   12  C   UNL     1      -8.180  13.685  67.779  1.00  0.00    -0.179 A  
HETATM   13  N   UNL     1      -9.608  15.794  66.940  1.00  0.00    -0.224 NA 
HETATM   14  C   UNL     1     -10.151  14.628  67.347  1.00  0.00    -0.232 A  
HETATM   15  N   UNL     1      -9.505  13.527  67.800  1.00  0.00    -0.208 NA 
BRANCH  11  16
HETATM   16  C   UNL     1      -7.403  11.556  68.907  1.00  0.00    -0.116 C  
HETATM   17  O   UNL     1      -6.304  10.702  68.569  1.00  0.00    -0.053 OA 
HETATM   18  C   UNL     1      -6.743   9.693  67.645  1.00  0.00    -0.066 C  
HETATM   19  H   UNL     1      -9.715   9.363  69.728  1.00  0.00     0.000 HD 
HETATM   20  O   UNL     1      -8.941   9.896  69.864  1.00  0.00    -0.211 OA 
HETATM   21  C   UNL     1      -8.265   9.752  67.569  1.00  0.00    -0.114 C  
HETATM   22  H   UNL     1      -9.754   8.473  67.713  1.00  0.00     0.000 HD 
HETATM   23  C   UNL     1      -8.656  10.694  68.688  1.00  0.00    -0.144 C  
HETATM   24  O   UNL     1      -8.806   8.437  67.760  1.00  0.00    -0.136 OA 
BRANCH  18  25
HETATM   25  C   UNL     1      -6.107   9.866  66.264  1.00  0.00    -0.066 C  
BRANCH  25  26
HETATM   26  O   UNL     1      -5.822   8.551  65.786  1.00  0.00    -0.046 OA 
BRANCH  26  27
HETATM   27  P   UNL     1      -6.365   8.228  64.311  1.00  0.00    -0.067 P  
HETATM   28  O   UNL     1      -6.376   9.742  63.744  1.00  0.00    -0.105 OA 
HETATM   29  O   UNL     1      -5.532   7.294  63.483  1.00  0.00    -0.032 OA 
BRANCH  27  30
HETATM   30  O   UNL     1      -7.895   7.709  64.555  1.00  0.00    -0.122 OA 
HETATM   31  P   UNL     1      -8.099   6.019  64.859  1.00  0.00    -0.104 P  
HETATM   32  C   UNL     1      -8.314   4.230  65.181  1.00  0.00    -0.114 C  
HETATM   33  O   UNL     1      -7.960   5.776  63.232  1.00  0.00    -0.096 OA 
HETATM   34  O   UNL     1      -6.678   5.905  65.472  1.00  0.00    -0.045 OA 
HETATM   35 CL   UNL     1      -7.014   3.209  64.400  1.00  0.00    -0.051 Cl 
HETATM   36  P   UNL     1      -8.081   3.899  66.966  1.00  0.00    -0.096 P  
HETATM   37 CL   UNL     1      -9.856   3.697  64.431  1.00  0.00    -0.174 Cl 
HETATM   38  O   UNL     1      -9.725   3.828  67.162  1.00  0.00    -0.209 OA 
HETATM   39  O   UNL     1      -8.143   5.521  67.315  1.00  0.00    -0.101 OA 
HETATM   40  O   UNL     1      -7.884   3.619  68.476  1.00  0.00    -0.060 OA 
ENDBRANCH  27  30
ENDBRANCH  26  27
ENDBRANCH  25  26
ENDBRANCH  18  25
ENDBRANCH  11  16
BRANCH  14  41
HETATM   41  S   UNL     1     -11.922  14.460  67.293  1.00  0.00    -0.311 SA 
BRANCH  41  42
HETATM   42  C   UNL     1     -12.078  12.916  66.334  1.00  0.00    -0.329 C  
BRANCH  42  43
HETATM   43  C   UNL     1     -12.370  13.278  64.883  1.00  0.00    -0.476 C  
HETATM   44  C   UNL     1     -11.903  12.204  63.924  1.00  0.00    -0.466 C  
HETATM   45  F   UNL     1     -12.928  11.790  63.142  1.00  0.00    -0.708 F  
HETATM   46  F   UNL     1     -11.403  11.120  64.548  1.00  0.00    -0.322 F  
HETATM   47  F   UNL     1     -10.944  12.682  63.100  1.00  0.00    -0.473 F  
ENDBRANCH  42  43
ENDBRANCH  41  42
ENDBRANCH  14  41
ENDBRANCH   5   7
ENDBRANCH   4   5
ENDBRANCH   3   4
ENDBRANCH   2   3
TORSDOF 12
ENDMDL
MODEL       88
REMARK 921   NORMALIZED FREE ENERGY PREDICTED BY IDOCK:   -5.17 KCAL/MOL
REMARK 922        TOTAL FREE ENERGY PREDICTED BY IDOCK:   -9.80 KCAL/MOL
REMARK 923 INTER-LIGAND FREE ENERGY PREDICTED BY IDOCK:   -8.60 KCAL/MOL
REMARK 924 INTRA-LIGAND FREE ENERGY PREDICTED BY IDOCK:   -1.20 KCAL/MOL
REMARK 927      BINDING AFFINITY PREDICTED BY RF-SCORE:    0.00 PKD
ROOT
HETATM    1  C   UNL     1      -6.072   3.905  65.161  1.00  0.00    -0.023 C  
HETATM    2  S   UNL     1      -6.525   5.414  66.046  1.00  0.00    -0.045 SA 
ENDROOT
BRANCH   2   3
HETATM    3  C   UNL     1      -6.512   6.601  64.649  1.00  0.00    -0.042 C  
BRANCH   3   4
HETATM    4  C   UNL     1      -7.911   7.196  64.382  1.00  0.00    -0.101 C  
BRANCH   4   5
HETATM    5  N   UNL     1      -8.129   8.383  65.191  1.00  0.00    -0.139 NA 
HETATM    6  H   UNL     1      -8.214   9.292  64.737  1.00  0.00     0.000 HD 
BRANCH   5   7
HETATM    7  C   UNL     1      -8.222   8.298  66.569  1.00  0.00    -0.106 A  
HETATM    8  C   UNL     1      -9.301   7.629  67.167  1.00  0.00    -0.146 A  
HETATM    9  N   UNL     1     -10.371   6.940  66.630  1.00  0.00    -0.186 NA 
HETATM   10  C   UNL     1     -11.018   6.449  67.676  1.00  0.00    -0.349 A  
HETATM   11  N   UNL     1     -10.426   6.818  68.867  1.00  0.00    -0.195 NA 
HETATM   12  C   UNL     1      -9.329   7.568  68.553  1.00  0.00    -0.142 A  
HETATM   13  N   UNL     1      -7.286   8.858  67.390  1.00  0.00    -0.080 NA 
HETATM   14  C   UNL     1      -7.458   8.763  68.725  1.00  0.00    -0.084 A  
HETATM   15  N   UNL     1      -8.447   8.118  69.388  1.00  0.00    -0.126 NA 
BRANCH  11  16
HETATM   16  C   UNL     1     -10.815   6.295  70.158  1.00  0.00    -0.313 C  
HETATM   17  O   UNL     1     -12.108   6.827  70.469  1.00  0.00    -0.386 OA 
HETATM   18  C   UNL     1     -11.979   7.866  71.454  1.00  0.00    -0.303 C  
HETATM   19  H   UNL     1      -9.615   5.678  73.160  1.00  0.00     0.000 HD 
HETATM   20  O   UNL     1     -10.141   5.510  72.387  1.00  0.00    -0.172 OA 
HETATM   21  C   UNL     1     -10.550   7.838  71.986  1.00  0.00    -0.228 C  
HETATM   22  H   UNL     1      -9.682   7.799  73.751  1.00  0.00     0.000 HD 
HETATM   23  C   UNL     1      -9.964   6.565  71.409  1.00  0.00    -0.183 C  
HETATM   24  O   UNL     1     -10.572   7.817  73.420  1.00  0.00    -0.348 OA 
BRANCH  18  25
HETATM   25  C   UNL     1     -12.338   9.240  70.886  1.00  0.00    -0.167 C  
BRANCH  25  26
HETATM   26  O   UNL     1     -11.417   9.488  69.823  1.00  0.00    -0.151 OA 
BRANCH  26  27
HETATM   27  P   UNL     1     -11.289  11.023  69.374  1.00  0.00    -0.336 P  
HETATM   28  O   UNL     1     -12.010  11.689  70.659  1.00  0.00    -0.358 OA 
HETATM   29  O   UNL     1      -9.898  11.537  69.147  1.00  0.00    -0.061 OA 
BRANCH  27  30
HETATM   30  O   UNL     1     -12.258  11.137  68.064  1.00  0.00    -0.584 OA 
HETATM   31  P   UNL     1     -11.612  11.972  66.694  1.00  0.00    -0.143 P  
HETATM   32  C   UNL     1     -10.928  12.855  65.245  1.00  0.00    -0.283 C  
HETATM   33  O   UNL     1     -11.985  13.385  67.462  1.00  0.00    -0.361 OA 
HETATM   34  O   UNL     1     -10.159  11.595  67.085  1.00  0.00    -0.201 OA 
HETATM   35 CL   UNL     1      -9.701  14.129  65.707  1.00  0.00    -0.287 Cl 
HETATM   36  P   UNL     1      -9.948  11.690  64.227  1.00  0.00    -0.247 P  
HETATM   37 CL   UNL     1     -12.262  13.744  64.437  1.00  0.00    -0.447 Cl 
HETATM   38  O   UNL     1     -11.217  11.554  63.170  1.00  0.00    -0.247 OA 
HETATM   39  O   UNL     1     -10.551  10.389  65.065  1.00  0.00    -0.190 OA 
HETATM   40  O   UNL     1      -9.120  10.705  63.366  1.00  0.00    -0.198 OA 
ENDBRANCH  27  30
ENDBRANCH  26  27
ENDBRANCH  25  26
ENDBRANCH  18  25
ENDBRANCH  11  16
BRANCH  14  41
HETATM   41  S   UNL     1      -6.278   9.571  69.785  1.00  0.00    -0.043 SA 
BRANCH  41  42
HETATM   42  C   UNL     1      -5.558  10.775  68.618  1.00  0.00    -0.040 C  
BRANCH  42  43
HETATM   43  C   UNL     1      -5.983  12.174  69.046  1.00  0.00    -0.069 C  
HETATM   44  C   UNL     1      -6.585  12.960  67.903  1.00  0.00    -0.125 C  
HETATM   45  F   UNL     1      -7.823  13.402  68.231  1.00  0.00    -0.111 F  
HETATM   46  F   UNL     1      -6.698  12.242  66.769  1.00  0.00    -0.121 F  
HETATM   47  F   UNL     1      -5.837  14.051  67.624  1.00  0.00    -0.133 F  
ENDBRANCH  42  43
ENDBRANCH  41  42
ENDBRANCH  14  41
ENDBRANCH   5   7
ENDBRANCH   4   5
ENDBRANCH   3   4
ENDBRANCH   2   3
TORSDOF 12
ENDMDL
MODEL       89
REMARK 921   NORMALIZED FREE ENERGY PREDICTED BY IDOCK:   -5.09 KCAL/MOL
REMARK 922        TOTAL FREE ENERGY PREDICTED BY IDOCK:   -9.68 KCAL/MOL
REMARK 923 INTER-LIGAND FREE ENERGY PREDICTED BY IDOCK:   -9.01 KCAL/MOL
REMARK 924 INTRA-LIGAND FREE ENERGY PREDICTED BY IDOCK:   -0.67 KCAL/MOL
REMARK 927      BINDING AFFINITY PREDICTED BY RF-SCORE:    0.00 PKD
ROOT
HETATM    1  C   UNL     1     -11.221  16.913  68.183  1.00  0.00    -0.093 C  
HETATM    2  S   UNL     1     -10.160  18.375  68.149  1.00  0.00    -0.397 SA 
ENDROOT
BRANCH   2   3
HETATM    3  C   UNL     1      -8.541  17.583  68.481  1.00  0.00    -0.276 C  
BRANCH   3   4
HETATM    4  C   UNL     1      -8.060  16.727  67.290  1.00  0.00    -0.177 C  
BRANCH   4   5
HETATM    5  N   UNL     1      -7.377  15.533  67.756  1.00  0.00    -0.141 NA 
HETATM    6  H   UNL     1      -6.463  15.617  68.200  1.00  0.00     0.000 HD 
BRANCH   5   7
HETATM    7  C   UNL     1      -7.949  14.282  67.606  1.00  0.00    -0.180 A  
HETATM    8  C   UNL     1      -7.141  13.153  67.398  1.00  0.00    -0.106 A  
HETATM    9  N   UNL     1      -5.770  12.997  67.344  1.00  0.00    -0.332 NA 
HETATM   10  C   UNL     1      -5.582  11.693  67.211  1.00  0.00    -0.104 A  
HETATM   11  N   UNL     1      -6.776  11.005  67.146  1.00  0.00    -0.089 NA 
HETATM   12  C   UNL     1      -7.776  11.926  67.267  1.00  0.00    -0.164 A  
HETATM   13  N   UNL     1      -9.301  14.099  67.644  1.00  0.00    -0.203 NA 
HETATM   14  C   UNL     1      -9.791  12.856  67.458  1.00  0.00    -0.208 A  
HETATM   15  N   UNL     1      -9.092  11.709  67.279  1.00  0.00    -0.164 NA 
BRANCH  11  16
HETATM   16  C   UNL     1      -6.878   9.562  67.167  1.00  0.00    -0.084 C  
HETATM   17  O   UNL     1      -8.119   9.225  67.800  1.00  0.00    -0.103 OA 
HETATM   18  C   UNL     1      -7.867   8.756  69.135  1.00  0.00    -0.098 C  
HETATM   19  H   UNL     1      -5.092   6.856  67.731  1.00  0.00     0.000 HD 
HETATM   20  O   UNL     1      -5.745   7.385  67.288  1.00  0.00    -0.028 OA 
HETATM   21  C   UNL     1      -6.364   8.551  69.289  1.00  0.00    -0.042 C  
HETATM   22  H   UNL     1      -5.175   7.115  69.918  1.00  0.00     0.000 HD 
HETATM   23  C   UNL     1      -5.823   8.705  67.883  1.00  0.00    -0.043 C  
HETATM   24  O   UNL     1      -6.111   7.243  69.822  1.00  0.00    -0.026 OA 
BRANCH  18  25
HETATM   25  C   UNL     1      -8.411   9.720  70.192  1.00  0.00    -0.174 C  
BRANCH  25  26
HETATM   26  O   UNL     1      -8.873   8.911  71.274  1.00  0.00    -0.206 OA 
BRANCH  26  27
HETATM   27  P   UNL     1     -10.416   8.479  71.194  1.00  0.00    -0.259 P  
HETATM   28  O   UNL     1     -11.064   9.955  71.302  1.00  0.00    -0.351 OA 
HETATM   29  O   UNL     1     -10.838   7.738  69.959  1.00  0.00    -0.247 OA 
BRANCH  27  30
HETATM   30  O   UNL     1     -10.669   7.652  72.580  1.00  0.00    -0.245 OA 
HETATM   31  P   UNL     1     -10.205   5.985  72.582  1.00  0.00    -0.197 P  
HETATM   32  C   UNL     1      -9.713   4.223  72.584  1.00  0.00    -0.143 C  
HETATM   33  O   UNL     1     -11.612   5.660  71.782  1.00  0.00    -0.146 OA 
HETATM   34  O   UNL     1      -9.107   6.236  71.516  1.00  0.00    -0.145 OA 
HETATM   35 CL   UNL     1      -9.800   3.462  70.924  1.00  0.00    -0.189 Cl 
HETATM   36  P   UNL     1      -7.938   4.085  73.008  1.00  0.00    -0.086 P  
HETATM   37 CL   UNL     1     -10.882   3.306  73.593  1.00  0.00    -0.302 Cl 
HETATM   38  O   UNL     1      -8.346   3.665  74.558  1.00  0.00    -0.083 OA 
HETATM   39  O   UNL     1      -7.889   5.674  73.488  1.00  0.00    -0.105 OA 
HETATM   40  O   UNL     1      -6.436   3.969  73.367  1.00  0.00    -0.037 OA 
ENDBRANCH  27  30
ENDBRANCH  26  27
ENDBRANCH  25  26
ENDBRANCH  18  25
ENDBRANCH  11  16
BRANCH  14  41
HETATM   41  S   UNL     1     -11.558  12.643  67.425  1.00  0.00    -0.369 SA 
BRANCH  41  42
HETATM   42  C   UNL     1     -12.012  13.868  66.150  1.00  0.00    -0.423 C  
BRANCH  42  43
HETATM   43  C   UNL     1     -12.782  13.152  65.047  1.00  0.00    -0.456 C  
HETATM   44  C   UNL     1     -11.884  12.746  63.899  1.00  0.00    -0.468 C  
HETATM   45  F   UNL     1     -11.983  11.415  63.667  1.00  0.00    -0.467 F  
HETATM   46  F   UNL     1     -10.585  13.024  64.120  1.00  0.00    -0.355 F  
HETATM   47  F   UNL     1     -12.250  13.374  62.759  1.00  0.00    -0.498 F  
ENDBRANCH  42  43
ENDBRANCH  41  42
ENDBRANCH  14  41
ENDBRANCH   5   7
ENDBRANCH   4   5
ENDBRANCH   3   4
ENDBRANCH   2   3
TORSDOF 12
ENDMDL
MODEL       90
REMARK 921   NORMALIZED FREE ENERGY PREDICTED BY IDOCK:   -5.09 KCAL/MOL
REMARK 922        TOTAL FREE ENERGY PREDICTED BY IDOCK:   -9.67 KCAL/MOL
REMARK 923 INTER-LIGAND FREE ENERGY PREDICTED BY IDOCK:   -8.51 KCAL/MOL
REMARK 924 INTRA-LIGAND FREE ENERGY PREDICTED BY IDOCK:   -1.16 KCAL/MOL
REMARK 927      BINDING AFFINITY PREDICTED BY RF-SCORE:    0.00 PKD
ROOT
HETATM    1  C   UNL     1     -11.901  15.863  70.804  1.00  0.00    -0.391 C  
HETATM    2  S   UNL     1     -12.315  14.154  70.386  1.00  0.00    -0.368 SA 
ENDROOT
BRANCH   2   3
HETATM    3  C   UNL     1     -11.188  13.908  68.961  1.00  0.00    -0.274 C  
BRANCH   3   4
HETATM    4  C   UNL     1     -11.928  13.345  67.729  1.00  0.00    -0.324 C  
BRANCH   4   5
HETATM    5  N   UNL     1     -11.923  11.893  67.744  1.00  0.00    -0.573 NA 
HETATM    6  H   UNL     1     -12.639  11.382  67.228  1.00  0.00     0.000 HD 
BRANCH   5   7
HETATM    7  C   UNL     1     -10.959  11.192  68.447  1.00  0.00    -0.227 A  
HETATM    8  C   UNL     1     -11.299  10.505  69.623  1.00  0.00    -0.281 A  
HETATM    9  N   UNL     1     -12.505  10.326  70.272  1.00  0.00    -0.217 NA 
HETATM   10  C   UNL     1     -12.231   9.516  71.282  1.00  0.00    -0.348 A  
HETATM   11  N   UNL     1     -10.892   9.188  71.330  1.00  0.00    -0.303 NA 
HETATM   12  C   UNL     1     -10.289   9.811  70.275  1.00  0.00    -0.291 A  
HETATM   13  N   UNL     1      -9.658  11.147  68.038  1.00  0.00    -0.171 NA 
HETATM   14  C   UNL     1      -8.766  10.471  68.790  1.00  0.00    -0.154 A  
HETATM   15  N   UNL     1      -9.005   9.760  69.918  1.00  0.00    -0.222 NA 
BRANCH  11  16
HETATM   16  C   UNL     1     -10.335   8.194  72.221  1.00  0.00    -0.292 C  
HETATM   17  O   UNL     1      -9.640   7.233  71.418  1.00  0.00    -0.161 OA 
HETATM   18  C   UNL     1     -10.419   6.029  71.323  1.00  0.00    -0.230 C  
HETATM   19  H   UNL     1     -11.078   6.412  74.887  1.00  0.00     0.000 HD 
HETATM   20  O   UNL     1     -10.517   6.928  74.319  1.00  0.00    -0.312 OA 
HETATM   21  C   UNL     1     -11.569   6.130  72.318  1.00  0.00    -0.313 C  
HETATM   22  H   UNL     1     -12.331   5.007  73.742  1.00  0.00     0.000 HD 
HETATM   23  C   UNL     1     -11.242   7.360  73.140  1.00  0.00    -0.247 C  
HETATM   24  O   UNL     1     -11.615   4.944  73.122  1.00  0.00    -0.324 OA 
BRANCH  18  25
HETATM   25  C   UNL     1     -10.929   5.789  69.901  1.00  0.00    -0.319 C  
BRANCH  25  26
HETATM   26  O   UNL     1      -9.938   4.995  69.247  1.00  0.00    -0.183 OA 
BRANCH  26  27
HETATM   27  P   UNL     1      -9.677   5.360  67.706  1.00  0.00    -0.152 P  
HETATM   28  O   UNL     1      -8.898   4.007  67.289  1.00  0.00    -0.108 OA 
HETATM   29  O   UNL     1     -10.894   5.622  66.869  1.00  0.00    -0.286 OA 
BRANCH  27  30
HETATM   30  O   UNL     1      -8.632   6.614  67.766  1.00  0.00    -0.121 OA 
HETATM   31  P   UNL     1      -8.070   7.225  66.249  1.00  0.00    -0.135 P  
HETATM   32  C   UNL     1      -7.477   7.872  64.643  1.00  0.00    -0.101 C  
HETATM   33  O   UNL     1      -7.012   5.959  66.205  1.00  0.00    -0.060 OA 
HETATM   34  O   UNL     1      -9.369   6.775  65.528  1.00  0.00     0.181 OA 
HETATM   35 CL   UNL     1      -7.451   6.597  63.332  1.00  0.00    -0.073 Cl 
HETATM   36  P   UNL     1      -8.673   9.099  63.999  1.00  0.00     0.022 P  
HETATM   37 CL   UNL     1      -5.770   8.396  64.835  1.00  0.00    -0.044 Cl 
HETATM   38  O   UNL     1      -7.686  10.325  64.519  1.00  0.00    -0.148 OA 
HETATM   39  O   UNL     1      -9.459   9.158  65.461  1.00  0.00    -0.250 OA 
HETATM   40  O   UNL     1      -9.684  10.138  63.455  1.00  0.00    -0.273 OA 
ENDBRANCH  27  30
ENDBRANCH  26  27
ENDBRANCH  25  26
ENDBRANCH  18  25
ENDBRANCH  11  16
BRANCH  14  41
HETATM   41  S   UNL     1      -7.057  10.492  68.293  1.00  0.00    -0.083 SA 
BRANCH  41  42
HETATM   42  C   UNL     1      -6.265  11.003  69.855  1.00  0.00    -0.127 C  
BRANCH  42  43
HETATM   43  C   UNL     1      -5.302   9.905  70.289  1.00  0.00    -0.043 C  
HETATM   44  C   UNL     1      -5.884   9.037  71.383  1.00  0.00    -0.059 C  
HETATM   45  F   UNL     1      -5.869   7.735  71.012  1.00  0.00    -0.033 F  
HETATM   46  F   UNL     1      -7.156   9.357  71.691  1.00  0.00    -0.043 F  
HETATM   47  F   UNL     1      -5.151   9.136  72.514  1.00  0.00    -0.046 F  
ENDBRANCH  42  43
ENDBRANCH  41  42
ENDBRANCH  14  41
ENDBRANCH   5   7
ENDBRANCH   4   5
ENDBRANCH   3   4
ENDBRANCH   2   3
TORSDOF 12
ENDMDL
MODEL       91
REMARK 921   NORMALIZED FREE ENERGY PREDICTED BY IDOCK:   -5.08 KCAL/MOL
REMARK 922        TOTAL FREE ENERGY PREDICTED BY IDOCK:   -9.66 KCAL/MOL
REMARK 923 INTER-LIGAND FREE ENERGY PREDICTED BY IDOCK:  -10.20 KCAL/MOL
REMARK 924 INTRA-LIGAND FREE ENERGY PREDICTED BY IDOCK:    0.54 KCAL/MOL
REMARK 927      BINDING AFFINITY PREDICTED BY RF-SCORE:    0.00 PKD
ROOT
HETATM    1  C   UNL     1     -12.369  15.951  74.473  1.00  0.00    -0.602 C  
HETATM    2  S   UNL     1     -11.824  15.685  72.770  1.00  0.00    -0.456 SA 
ENDROOT
BRANCH   2   3
HETATM    3  C   UNL     1     -13.454  15.479  71.958  1.00  0.00    -0.482 C  
BRANCH   3   4
HETATM    4  C   UNL     1     -13.315  15.044  70.484  1.00  0.00    -0.140 C  
BRANCH   4   5
HETATM    5  N   UNL     1     -11.921  15.045  70.075  1.00  0.00    -0.311 NA 
HETATM    6  H   UNL     1     -11.201  15.313  70.745  1.00  0.00     0.000 HD 
BRANCH   5   7
HETATM    7  C   UNL     1     -11.557  14.688  68.789  1.00  0.00    -0.317 A  
HETATM    8  C   UNL     1     -11.355  13.339  68.457  1.00  0.00    -0.284 A  
HETATM    9  N   UNL     1     -11.489  12.178  69.193  1.00  0.00    -0.276 NA 
HETATM   10  C   UNL     1     -11.249  11.201  68.332  1.00  0.00    -0.262 A  
HETATM   11  N   UNL     1     -10.936  11.684  67.079  1.00  0.00    -0.273 NA 
HETATM   12  C   UNL     1     -11.003  13.047  67.147  1.00  0.00    -0.269 A  
HETATM   13  N   UNL     1     -11.375  15.619  67.807  1.00  0.00    -0.303 NA 
HETATM   14  C   UNL     1     -10.989  15.201  66.583  1.00  0.00    -0.318 A  
HETATM   15  N   UNL     1     -10.797  13.927  66.166  1.00  0.00    -0.289 NA 
BRANCH  11  16
HETATM   16  C   UNL     1     -10.790  10.852  65.905  1.00  0.00    -0.062 C  
HETATM   17  O   UNL     1     -10.322   9.569  66.340  1.00  0.00    -0.240 OA 
HETATM   18  C   UNL     1      -8.925   9.434  66.031  1.00  0.00    -0.168 C  
HETATM   19  H   UNL     1      -9.698  10.936  62.801  1.00  0.00     0.000 HD 
HETATM   20  O   UNL     1     -10.285  10.688  63.506  1.00  0.00    -0.295 OA 
HETATM   21  C   UNL     1      -8.525  10.598  65.131  1.00  0.00    -0.144 C  
HETATM   22  H   UNL     1      -7.586  10.823  63.417  1.00  0.00     0.000 HD 
HETATM   23  C   UNL     1      -9.841  11.253  64.765  1.00  0.00    -0.266 C  
HETATM   24  O   UNL     1      -7.835  10.098  63.978  1.00  0.00    -0.154 OA 
BRANCH  18  25
HETATM   25  C   UNL     1      -8.063   9.382  67.294  1.00  0.00    -0.110 C  
BRANCH  25  26
HETATM   26  O   UNL     1      -8.089   8.026  67.741  1.00  0.00    -0.124 OA 
BRANCH  26  27
HETATM   27  P   UNL     1      -6.803   7.152  67.345  1.00  0.00    -0.074 P  
HETATM   28  O   UNL     1      -7.581   5.921  66.643  1.00  0.00    -0.092 OA 
HETATM   29  O   UNL     1      -5.803   7.809  66.441  1.00  0.00    -0.038 OA 
BRANCH  27  30
HETATM   30  O   UNL     1      -6.185   6.679  68.782  1.00  0.00    -0.025 OA 
HETATM   31  P   UNL     1      -7.170   6.958  70.176  1.00  0.00    -0.079 P  
HETATM   32  C   UNL     1      -8.212   7.253  71.651  1.00  0.00    -0.104 C  
HETATM   33  O   UNL     1      -6.663   8.529  70.138  1.00  0.00    -0.038 OA 
HETATM   34  O   UNL     1      -8.473   6.866  69.339  1.00  0.00    -0.131 OA 
HETATM   35 CL   UNL     1      -9.327   8.689  71.455  1.00  0.00    -0.275 Cl 
HETATM   36  P   UNL     1      -9.375   5.856  71.866  1.00  0.00    -0.149 P  
HETATM   37 CL   UNL     1      -7.141   7.663  73.033  1.00  0.00    -0.077 Cl 
HETATM   38  O   UNL     1      -8.398   5.232  73.050  1.00  0.00    -0.111 OA 
HETATM   39  O   UNL     1      -8.548   4.945  70.751  1.00  0.00    -0.109 OA 
HETATM   40  O   UNL     1     -10.358   4.674  72.049  1.00  0.00    -0.194 OA 
ENDBRANCH  27  30
ENDBRANCH  26  27
ENDBRANCH  25  26
ENDBRANCH  18  25
ENDBRANCH  11  16
BRANCH  14  41
HETATM   41  S   UNL     1     -10.671  16.430  65.336  1.00  0.00    -0.210 SA 
BRANCH  41  42
HETATM   42  C   UNL     1      -9.710  17.642  66.304  1.00  0.00    -0.263 C  
BRANCH  42  43
HETATM   43  C   UNL     1     -10.447  18.974  66.277  1.00  0.00    -0.534 C  
HETATM   44  C   UNL     1     -10.080  19.852  67.453  1.00  0.00    -0.430 C  
HETATM   45  F   UNL     1      -9.630  21.056  67.024  1.00  0.00    -0.530 F  
HETATM   46  F   UNL     1      -9.123  19.316  68.234  1.00  0.00    -0.328 F  
HETATM   47  F   UNL     1     -11.160  20.088  68.231  1.00  0.00    -0.268 F  
ENDBRANCH  42  43
ENDBRANCH  41  42
ENDBRANCH  14  41
ENDBRANCH   5   7
ENDBRANCH   4   5
ENDBRANCH   3   4
ENDBRANCH   2   3
TORSDOF 12
ENDMDL
MODEL       92
REMARK 921   NORMALIZED FREE ENERGY PREDICTED BY IDOCK:   -5.08 KCAL/MOL
REMARK 922        TOTAL FREE ENERGY PREDICTED BY IDOCK:   -9.65 KCAL/MOL
REMARK 923 INTER-LIGAND FREE ENERGY PREDICTED BY IDOCK:   -8.98 KCAL/MOL
REMARK 924 INTRA-LIGAND FREE ENERGY PREDICTED BY IDOCK:   -0.66 KCAL/MOL
REMARK 927      BINDING AFFINITY PREDICTED BY RF-SCORE:    0.00 PKD
ROOT
HETATM    1  C   UNL     1     -10.081   5.675  66.451  1.00  0.00    -0.156 C  
HETATM    2  S   UNL     1      -8.621   6.158  65.502  1.00  0.00    -0.093 SA 
ENDROOT
BRANCH   2   3
HETATM    3  C   UNL     1      -7.862   7.332  66.687  1.00  0.00    -0.102 C  
BRANCH   3   4
HETATM    4  C   UNL     1      -7.774   8.761  66.110  1.00  0.00    -0.101 C  
BRANCH   4   5
HETATM    5  N   UNL     1      -6.619   9.462  66.642  1.00  0.00    -0.067 NA 
HETATM    6  H   UNL     1      -5.789   9.579  66.061  1.00  0.00     0.000 HD 
BRANCH   5   7
HETATM    7  C   UNL     1      -6.627   9.973  67.928  1.00  0.00    -0.063 A  
HETATM    8  C   UNL     1      -6.377  11.336  68.152  1.00  0.00    -0.052 A  
HETATM    9  N   UNL     1      -6.139  12.384  67.285  1.00  0.00    -0.170 NA 
HETATM   10  C   UNL     1      -6.060  13.455  68.060  1.00  0.00    -0.129 A  
HETATM   11  N   UNL     1      -6.208  13.136  69.394  1.00  0.00    -0.106 NA 
HETATM   12  C   UNL     1      -6.413  11.788  69.463  1.00  0.00    -0.120 A  
HETATM   13  N   UNL     1      -6.869   9.184  69.016  1.00  0.00    -0.055 NA 
HETATM   14  C   UNL     1      -6.831   9.744  70.242  1.00  0.00    -0.123 A  
HETATM   15  N   UNL     1      -6.625  11.046  70.551  1.00  0.00    -0.255 NA 
BRANCH  11  16
HETATM   16  C   UNL     1      -6.331  14.117  70.450  1.00  0.00    -0.103 C  
HETATM   17  O   UNL     1      -7.490  14.912  70.169  1.00  0.00    -0.016 OA 
HETATM   18  C   UNL     1      -7.085  16.196  69.666  1.00  0.00    -0.071 C  
HETATM   19  H   UNL     1      -4.535  16.188  72.271  1.00  0.00     0.000 HD 
HETATM   20  O   UNL     1      -5.228  15.560  72.105  1.00  0.00    -0.045 OA 
HETATM   21  C   UNL     1      -5.578  16.325  69.860  1.00  0.00    -0.170 C  
HETATM   22  H   UNL     1      -4.344  17.649  70.632  1.00  0.00     0.000 HD 
HETATM   23  C   UNL     1      -5.210  15.133  70.719  1.00  0.00    -0.138 C  
HETATM   24  O   UNL     1      -5.283  17.568  70.512  1.00  0.00    -0.233 OA 
BRANCH  18  25
HETATM   25  C   UNL     1      -7.479  16.386  68.200  1.00  0.00    -0.149 C  
BRANCH  25  26
HETATM   26  O   UNL     1      -8.723  17.086  68.207  1.00  0.00    -0.225 OA 
BRANCH  26  27
HETATM   27  P   UNL     1      -9.479  17.148  66.793  1.00  0.00    -0.291 P  
HETATM   28  O   UNL     1      -9.738  18.743  66.752  1.00  0.00    -0.301 OA 
HETATM   29  O   UNL     1      -8.715  16.643  65.605  1.00  0.00    -0.428 OA 
BRANCH  27  30
HETATM   30  O   UNL     1     -10.885  16.359  67.059  1.00  0.00    -0.267 OA 
HETATM   31  P   UNL     1     -10.991  14.742  66.452  1.00  0.00    -0.335 P  
HETATM   32  C   UNL     1     -11.102  13.032  65.810  1.00  0.00    -0.278 C  
HETATM   33  O   UNL     1     -11.292  15.391  64.964  1.00  0.00    -0.370 OA 
HETATM   34  O   UNL     1      -9.457  14.541  66.574  1.00  0.00    -0.264 OA 
HETATM   35 CL   UNL     1     -10.053  12.759  64.337  1.00  0.00    -0.312 Cl 
HETATM   36  P   UNL     1     -10.396  11.872  67.038  1.00  0.00    -0.223 P  
HETATM   37 CL   UNL     1     -12.785  12.738  65.260  1.00  0.00    -0.474 Cl 
HETATM   38  O   UNL     1     -11.927  11.470  67.529  1.00  0.00    -0.629 OA 
HETATM   39  O   UNL     1     -10.372  13.058  68.202  1.00  0.00    -0.227 OA 
HETATM   40  O   UNL     1      -9.801  10.891  68.078  1.00  0.00    -0.165 OA 
ENDBRANCH  27  30
ENDBRANCH  26  27
ENDBRANCH  25  26
ENDBRANCH  18  25
ENDBRANCH  11  16
BRANCH  14  41
HETATM   41  S   UNL     1      -7.061   8.689  71.657  1.00  0.00    -0.072 SA 
BRANCH  41  42
HETATM   42  C   UNL     1      -8.679   7.947  71.254  1.00  0.00    -0.134 C  
BRANCH  42  43
HETATM   43  C   UNL     1      -9.775   8.890  71.734  1.00  0.00    -0.365 C  
HETATM   44  C   UNL     1     -11.120   8.554  71.129  1.00  0.00    -0.260 C  
HETATM   45  F   UNL     1     -12.040   8.352  72.102  1.00  0.00    -0.327 F  
HETATM   46  F   UNL     1     -11.092   7.449  70.359  1.00  0.00    -0.251 F  
HETATM   47  F   UNL     1     -11.570   9.574  70.364  1.00  0.00    -0.270 F  
ENDBRANCH  42  43
ENDBRANCH  41  42
ENDBRANCH  14  41
ENDBRANCH   5   7
ENDBRANCH   4   5
ENDBRANCH   3   4
ENDBRANCH   2   3
TORSDOF 12
ENDMDL
MODEL       93
REMARK 921   NORMALIZED FREE ENERGY PREDICTED BY IDOCK:   -5.05 KCAL/MOL
REMARK 922        TOTAL FREE ENERGY PREDICTED BY IDOCK:   -9.61 KCAL/MOL
REMARK 923 INTER-LIGAND FREE ENERGY PREDICTED BY IDOCK:   -9.12 KCAL/MOL
REMARK 924 INTRA-LIGAND FREE ENERGY PREDICTED BY IDOCK:   -0.48 KCAL/MOL
REMARK 927      BINDING AFFINITY PREDICTED BY RF-SCORE:    0.00 PKD
ROOT
HETATM    1  C   UNL     1      -8.565  17.028  66.471  1.00  0.00    -0.270 C  
HETATM    2  S   UNL     1     -10.230  17.725  66.550  1.00  0.00    -0.351 SA 
ENDROOT
BRANCH   2   3
HETATM    3  C   UNL     1     -10.735  17.118  68.204  1.00  0.00    -0.366 C  
BRANCH   3   4
HETATM    4  C   UNL     1     -11.352  15.704  68.138  1.00  0.00    -0.340 C  
BRANCH   4   5
HETATM    5  N   UNL     1     -10.467  14.727  68.748  1.00  0.00    -0.243 NA 
HETATM    6  H   UNL     1      -9.547  15.019  69.079  1.00  0.00     0.000 HD 
BRANCH   5   7
HETATM    7  C   UNL     1     -10.853  13.406  68.886  1.00  0.00    -0.220 A  
HETATM    8  C   UNL     1     -10.493  12.456  67.917  1.00  0.00    -0.215 A  
HETATM    9  N   UNL     1      -9.734  12.554  66.767  1.00  0.00    -0.227 NA 
HETATM   10  C   UNL     1      -9.663  11.316  66.301  1.00  0.00    -0.216 A  
HETATM   11  N   UNL     1     -10.370  10.430  67.086  1.00  0.00    -0.225 NA 
HETATM   12  C   UNL     1     -10.902  11.146  68.120  1.00  0.00    -0.219 A  
HETATM   13  N   UNL     1     -11.595  12.979  69.949  1.00  0.00    -0.230 NA 
HETATM   14  C   UNL     1     -11.964  11.683  70.002  1.00  0.00    -0.351 A  
HETATM   15  N   UNL     1     -11.643  10.695  69.133  1.00  0.00    -0.280 NA 
BRANCH  11  16
HETATM   16  C   UNL     1     -10.335   8.993  66.914  1.00  0.00    -0.254 C  
HETATM   17  O   UNL     1     -10.644   8.399  68.181  1.00  0.00    -0.197 OA 
HETATM   18  C   UNL     1      -9.443   7.885  68.779  1.00  0.00    -0.147 C  
HETATM   19  H   UNL     1      -8.583   6.609  65.475  1.00  0.00     0.000 HD 
HETATM   20  O   UNL     1      -9.375   7.046  65.764  1.00  0.00     0.030 OA 
HETATM   21  C   UNL     1      -8.335   7.935  67.732  1.00  0.00    -0.129 C  
HETATM   22  H   UNL     1      -6.998   6.688  67.004  1.00  0.00     0.000 HD 
HETATM   23  C   UNL     1      -9.055   8.285  66.446  1.00  0.00    -0.182 C  
HETATM   24  O   UNL     1      -7.689   6.657  67.656  1.00  0.00    -0.103 OA 
BRANCH  18  25
HETATM   25  C   UNL     1      -9.056   8.658  70.041  1.00  0.00    -0.156 C  
BRANCH  25  26
HETATM   26  O   UNL     1      -8.953   7.692  71.088  1.00  0.00    -0.136 OA 
BRANCH  26  27
HETATM   27  P   UNL     1      -7.988   8.102  72.303  1.00  0.00    -0.133 P  
HETATM   28  O   UNL     1      -7.051   9.144  71.498  1.00  0.00    -0.258 OA 
HETATM   29  O   UNL     1      -8.651   8.710  73.504  1.00  0.00    -0.341 OA 
BRANCH  27  30
HETATM   30  O   UNL     1      -7.156   6.734  72.629  1.00  0.00    -0.077 OA 
HETATM   31  P   UNL     1      -8.070   5.267  72.682  1.00  0.00    -0.110 P  
HETATM   32  C   UNL     1      -9.037   3.714  72.738  1.00  0.00    -0.096 C  
HETATM   33  O   UNL     1      -8.544   5.694  74.204  1.00  0.00    -0.116 OA 
HETATM   34  O   UNL     1      -9.123   5.825  71.689  1.00  0.00    -0.142 OA 
HETATM   35 CL   UNL     1     -10.776   3.981  73.237  1.00  0.00    -0.265 Cl 
HETATM   36  P   UNL     1      -9.195   3.032  71.046  1.00  0.00    -0.152 P  
HETATM   37 CL   UNL     1      -8.334   2.650  74.001  1.00  0.00    -0.067 Cl 
HETATM   38  O   UNL     1      -7.990   1.944  71.379  1.00  0.00    -0.040 OA 
HETATM   39  O   UNL     1      -8.042   4.081  70.473  1.00  0.00    -0.054 OA 
HETATM   40  O   UNL     1      -9.327   2.455  69.616  1.00  0.00    -0.121 OA 
ENDBRANCH  27  30
ENDBRANCH  26  27
ENDBRANCH  25  26
ENDBRANCH  18  25
ENDBRANCH  11  16
BRANCH  14  41
HETATM   41  S   UNL     1     -13.004  11.157  71.348  1.00  0.00    -0.332 SA 
BRANCH  41  42
HETATM   42  C   UNL     1     -12.191   9.587  71.799  1.00  0.00    -0.387 C  
BRANCH  42  43
HETATM   43  C   UNL     1     -12.964   8.443  71.156  1.00  0.00    -0.065 C  
HETATM   44  C   UNL     1     -12.552   7.096  71.710  1.00  0.00    -0.346 C  
HETATM   45  F   UNL     1     -13.629   6.432  72.192  1.00  0.00    -0.295 F  
HETATM   46  F   UNL     1     -11.651   7.189  72.708  1.00  0.00    -0.293 F  
HETATM   47  F   UNL     1     -12.011   6.324  70.741  1.00  0.00    -0.405 F  
ENDBRANCH  42  43
ENDBRANCH  41  42
ENDBRANCH  14  41
ENDBRANCH   5   7
ENDBRANCH   4   5
ENDBRANCH   3   4
ENDBRANCH   2   3
TORSDOF 12
ENDMDL
MODEL       94
REMARK 921   NORMALIZED FREE ENERGY PREDICTED BY IDOCK:   -5.04 KCAL/MOL
REMARK 922        TOTAL FREE ENERGY PREDICTED BY IDOCK:   -9.58 KCAL/MOL
REMARK 923 INTER-LIGAND FREE ENERGY PREDICTED BY IDOCK:   -8.71 KCAL/MOL
REMARK 924 INTRA-LIGAND FREE ENERGY PREDICTED BY IDOCK:   -0.86 KCAL/MOL
REMARK 927      BINDING AFFINITY PREDICTED BY RF-SCORE:    0.00 PKD
ROOT
HETATM    1  C   UNL     1      -7.442  15.568  69.351  1.00  0.00    -0.219 C  
HETATM    2  S   UNL     1      -5.861  15.497  70.222  1.00  0.00    -0.097 SA 
ENDROOT
BRANCH   2   3
HETATM    3  C   UNL     1      -5.650  13.679  70.320  1.00  0.00    -0.135 C  
BRANCH   3   4
HETATM    4  C   UNL     1      -5.741  13.010  68.932  1.00  0.00    -0.074 C  
BRANCH   4   5
HETATM    5  N   UNL     1      -5.141  11.687  68.957  1.00  0.00    -0.044 NA 
HETATM    6  H   UNL     1      -4.133  11.594  69.078  1.00  0.00     0.000 HD 
BRANCH   5   7
HETATM    7  C   UNL     1      -5.919  10.550  68.818  1.00  0.00    -0.040 A  
HETATM    8  C   UNL     1      -6.350   9.843  69.952  1.00  0.00    -0.063 A  
HETATM    9  N   UNL     1      -6.184  10.076  71.303  1.00  0.00    -0.305 NA 
HETATM   10  C   UNL     1      -6.883   9.124  71.900  1.00  0.00     0.158 A  
HETATM   11  N   UNL     1      -7.468   8.268  70.991  1.00  0.00    -0.062 NA 
HETATM   12  C   UNL     1      -7.137   8.720  69.745  1.00  0.00    -0.054 A  
HETATM   13  N   UNL     1      -6.287  10.074  67.593  1.00  0.00    -0.059 NA 
HETATM   14  C   UNL     1      -7.018   8.943  67.532  1.00  0.00    -0.075 A  
HETATM   15  N   UNL     1      -7.500   8.212  68.566  1.00  0.00    -0.096 NA 
BRANCH  11  16
HETATM   16  C   UNL     1      -8.420   7.239  71.347  1.00  0.00    -0.114 C  
HETATM   17  O   UNL     1      -9.328   7.089  70.248  1.00  0.00    -0.159 OA 
HETATM   18  C   UNL     1     -10.585   7.705  70.573  1.00  0.00    -0.226 C  
HETATM   19  H   UNL     1     -10.254   6.180  73.867  1.00  0.00     0.000 HD 
HETATM   20  O   UNL     1      -9.698   6.088  73.102  1.00  0.00    -0.159 OA 
HETATM   21  C   UNL     1     -10.568   8.061  72.055  1.00  0.00    -0.248 C  
HETATM   22  H   UNL     1     -11.746   7.781  73.607  1.00  0.00     0.000 HD 
HETATM   23  C   UNL     1      -9.319   7.388  72.585  1.00  0.00    -0.150 C  
HETATM   24  O   UNL     1     -11.756   7.559  72.683  1.00  0.00    -0.295 OA 
BRANCH  18  25
HETATM   25  C   UNL     1     -10.860   8.934  69.705  1.00  0.00    -0.200 C  
BRANCH  25  26
HETATM   26  O   UNL     1     -10.947  10.045  70.599  1.00  0.00    -0.300 OA 
BRANCH  26  27
HETATM   27  P   UNL     1     -12.121  11.091  70.277  1.00  0.00    -0.386 P  
HETATM   28  O   UNL     1     -12.660  10.404  68.917  1.00  0.00     0.058 OA 
HETATM   29  O   UNL     1     -13.185  11.241  71.324  1.00  0.00    -0.282 OA 
BRANCH  27  30
HETATM   30  O   UNL     1     -11.333  12.479  69.931  1.00  0.00    -0.137 OA 
HETATM   31  P   UNL     1     -10.889  12.726  68.278  1.00  0.00    -0.270 P  
HETATM   32  C   UNL     1     -10.420  12.987  66.528  1.00  0.00    -0.277 C  
HETATM   33  O   UNL     1      -9.609  11.716  68.539  1.00  0.00    -0.196 OA 
HETATM   34  O   UNL     1     -12.074  11.860  67.777  1.00  0.00    -0.564 OA 
HETATM   35 CL   UNL     1     -10.146  11.419  65.628  1.00  0.00    -0.278 Cl 
HETATM   36  P   UNL     1     -11.824  13.739  65.626  1.00  0.00    -0.414 P  
HETATM   37 CL   UNL     1      -8.845  13.847  66.482  1.00  0.00    -0.101 Cl 
HETATM   38  O   UNL     1     -11.090  15.221  65.732  1.00  0.00    -0.338 OA 
HETATM   39  O   UNL     1     -12.615  14.066  67.049  1.00  0.00    -0.215 OA 
HETATM   40  O   UNL     1     -13.011  14.376  64.863  1.00  0.00    -0.641 OA 
ENDBRANCH  27  30
ENDBRANCH  26  27
ENDBRANCH  25  26
ENDBRANCH  18  25
ENDBRANCH  11  16
BRANCH  14  41
HETATM   41  S   UNL     1      -7.419   8.284  65.928  1.00  0.00    -0.082 SA 
BRANCH  41  42
HETATM   42  C   UNL     1      -9.172   7.846  66.180  1.00  0.00    -0.152 C  
BRANCH  42  43
HETATM   43  C   UNL     1      -9.279   6.330  66.286  1.00  0.00    -0.165 C  
HETATM   44  C   UNL     1     -10.622   5.891  66.828  1.00  0.00    -0.300 C  
HETATM   45  F   UNL     1     -11.218   5.027  65.972  1.00  0.00    -0.282 F  
HETATM   46  F   UNL     1     -11.472   6.917  67.027  1.00  0.00    -0.445 F  
HETATM   47  F   UNL     1     -10.476   5.245  68.006  1.00  0.00    -0.227 F  
ENDBRANCH  42  43
ENDBRANCH  41  42
ENDBRANCH  14  41
ENDBRANCH   5   7
ENDBRANCH   4   5
ENDBRANCH   3   4
ENDBRANCH   2   3
TORSDOF 12
ENDMDL
MODEL       95
REMARK 921   NORMALIZED FREE ENERGY PREDICTED BY IDOCK:   -5.01 KCAL/MOL
REMARK 922        TOTAL FREE ENERGY PREDICTED BY IDOCK:   -9.54 KCAL/MOL
REMARK 923 INTER-LIGAND FREE ENERGY PREDICTED BY IDOCK:   -7.45 KCAL/MOL
REMARK 924 INTRA-LIGAND FREE ENERGY PREDICTED BY IDOCK:   -2.09 KCAL/MOL
REMARK 927      BINDING AFFINITY PREDICTED BY RF-SCORE:    0.00 PKD
ROOT
HETATM    1  C   UNL     1     -12.500  13.853  70.793  1.00  0.00    -0.375 C  
HETATM    2  S   UNL     1     -13.193  12.804  72.091  1.00  0.00    -0.353 SA 
ENDROOT
BRANCH   2   3
HETATM    3  C   UNL     1     -13.269  11.212  71.187  1.00  0.00    -0.041 C  
BRANCH   3   4
HETATM    4  C   UNL     1     -12.184  10.223  71.665  1.00  0.00    -0.291 C  
BRANCH   4   5
HETATM    5  N   UNL     1     -12.108   9.074  70.779  1.00  0.00    -0.466 NA 
HETATM    6  H   UNL     1     -12.583   9.101  69.878  1.00  0.00     0.000 HD 
BRANCH   5   7
HETATM    7  C   UNL     1     -11.399   7.942  71.142  1.00  0.00    -0.266 A  
HETATM    8  C   UNL     1     -11.107   6.952  70.191  1.00  0.00    -0.299 A  
HETATM    9  N   UNL     1     -11.363   6.871  68.836  1.00  0.00    -0.038 NA 
HETATM   10  C   UNL     1     -10.778   5.748  68.447  1.00  0.00    -0.209 A  
HETATM   11  N   UNL     1     -10.181   5.088  69.500  1.00  0.00    -0.236 NA 
HETATM   12  C   UNL     1     -10.382   5.848  70.616  1.00  0.00    -0.235 A  
HETATM   13  N   UNL     1     -10.968   7.741  72.422  1.00  0.00    -0.284 NA 
HETATM   14  C   UNL     1     -10.310   6.600  72.711  1.00  0.00    -0.203 A  
HETATM   15  N   UNL     1      -9.961   5.607  71.859  1.00  0.00    -0.176 NA 
BRANCH  11  16
HETATM   16  C   UNL     1      -9.330   3.927  69.347  1.00  0.00    -0.176 C  
HETATM   17  O   UNL     1      -7.979   4.349  69.568  1.00  0.00    -0.061 OA 
HETATM   18  C   UNL     1      -7.288   4.435  68.311  1.00  0.00    -0.064 C  
HETATM   19  H   UNL     1      -8.894   1.281  67.439  1.00  0.00     0.000 HD 
HETATM   20  O   UNL     1      -8.918   1.764  68.257  1.00  0.00    -0.098 OA 
HETATM   21  C   UNL     1      -8.172   3.803  67.241  1.00  0.00    -0.091 C  
HETATM   22  H   UNL     1      -7.959   2.454  65.824  1.00  0.00     0.000 HD 
HETATM   23  C   UNL     1      -9.290   3.146  68.024  1.00  0.00    -0.194 C  
HETATM   24  O   UNL     1      -7.409   2.849  66.491  1.00  0.00    -0.068 OA 
BRANCH  18  25
HETATM   25  C   UNL     1      -6.926   5.879  67.956  1.00  0.00    -0.069 C  
BRANCH  25  26
HETATM   26  O   UNL     1      -7.588   6.167  66.723  1.00  0.00    -0.095 OA 
BRANCH  26  27
HETATM   27  P   UNL     1      -6.968   7.386  65.884  1.00  0.00    -0.063 P  
HETATM   28  O   UNL     1      -5.512   6.743  65.604  1.00  0.00    -0.024 OA 
HETATM   29  O   UNL     1      -7.695   7.769  64.629  1.00  0.00    -0.106 OA 
BRANCH  27  30
HETATM   30  O   UNL     1      -6.847   8.598  66.974  1.00  0.00    -0.065 OA 
HETATM   31  P   UNL     1      -7.942   9.922  66.783  1.00  0.00    -0.118 P  
HETATM   32  C   UNL     1      -9.103  11.323  66.582  1.00  0.00    -0.179 C  
HETATM   33  O   UNL     1      -6.946  10.490  65.596  1.00  0.00    -0.135 OA 
HETATM   34  O   UNL     1      -9.004   9.014  66.109  1.00  0.00    -0.154 OA 
HETATM   35 CL   UNL     1      -9.613  11.575  64.844  1.00  0.00    -0.240 Cl 
HETATM   36  P   UNL     1     -10.682  10.933  67.422  1.00  0.00    -0.285 P  
HETATM   37 CL   UNL     1      -8.259  12.835  67.058  1.00  0.00    -0.141 Cl 
HETATM   38  O   UNL     1     -10.228  11.881  68.703  1.00  0.00    -0.216 OA 
HETATM   39  O   UNL     1      -9.997   9.628  68.188  1.00  0.00    -0.150 OA 
HETATM   40  O   UNL     1     -12.017  10.604  68.133  1.00  0.00    -0.460 OA 
ENDBRANCH  27  30
ENDBRANCH  26  27
ENDBRANCH  25  26
ENDBRANCH  18  25
ENDBRANCH  11  16
BRANCH  14  41
HETATM   41  S   UNL     1      -9.829   6.310  74.400  1.00  0.00    -0.337 SA 
BRANCH  41  42
HETATM   42  C   UNL     1      -8.072   6.800  74.330  1.00  0.00    -0.126 C  
BRANCH  42  43
HETATM   43  C   UNL     1      -7.220   5.537  74.307  1.00  0.00    -0.085 C  
HETATM   44  C   UNL     1      -6.549   5.329  72.968  1.00  0.00    -0.067 C  
HETATM   45  F   UNL     1      -5.208   5.214  73.122  1.00  0.00    -0.011 F  
HETATM   46  F   UNL     1      -6.773   6.337  72.102  1.00  0.00    -0.058 F  
HETATM   47  F   UNL     1      -6.980   4.187  72.387  1.00  0.00    -0.043 F  
ENDBRANCH  42  43
ENDBRANCH  41  42
ENDBRANCH  14  41
ENDBRANCH   5   7
ENDBRANCH   4   5
ENDBRANCH   3   4
ENDBRANCH   2   3
TORSDOF 12
ENDMDL
MODEL       96
REMARK 921   NORMALIZED FREE ENERGY PREDICTED BY IDOCK:   -5.01 KCAL/MOL
REMARK 922        TOTAL FREE ENERGY PREDICTED BY IDOCK:   -9.54 KCAL/MOL
REMARK 923 INTER-LIGAND FREE ENERGY PREDICTED BY IDOCK:   -7.63 KCAL/MOL
REMARK 924 INTRA-LIGAND FREE ENERGY PREDICTED BY IDOCK:   -1.91 KCAL/MOL
REMARK 927      BINDING AFFINITY PREDICTED BY RF-SCORE:    0.00 PKD
ROOT
HETATM    1  C   UNL     1      -9.896  17.615  66.970  1.00  0.00    -0.307 C  
HETATM    2  S   UNL     1     -10.280  17.242  68.695  1.00  0.00    -0.367 SA 
ENDROOT
BRANCH   2   3
HETATM    3  C   UNL     1     -11.283  15.726  68.463  1.00  0.00    -0.354 C  
BRANCH   3   4
HETATM    4  C   UNL     1     -11.021  15.063  67.094  1.00  0.00    -0.329 C  
BRANCH   4   5
HETATM    5  N   UNL     1     -10.950  13.618  67.227  1.00  0.00    -0.284 NA 
HETATM    6  H   UNL     1     -11.789  13.094  67.474  1.00  0.00     0.000 HD 
BRANCH   5   7
HETATM    7  C   UNL     1      -9.760  12.942  67.022  1.00  0.00    -0.230 A  
HETATM    8  C   UNL     1      -9.709  11.840  66.155  1.00  0.00    -0.229 A  
HETATM    9  N   UNL     1     -10.669  11.250  65.356  1.00  0.00    -0.257 NA 
HETATM   10  C   UNL     1     -10.024  10.302  64.695  1.00  0.00    -0.307 A  
HETATM   11  N   UNL     1      -8.694  10.236  65.056  1.00  0.00    -0.172 NA 
HETATM   12  C   UNL     1      -8.483  11.214  65.984  1.00  0.00    -0.138 A  
HETATM   13  N   UNL     1      -8.606  13.310  67.652  1.00  0.00    -0.183 NA 
HETATM   14  C   UNL     1      -7.489  12.586  67.430  1.00  0.00    -0.153 A  
HETATM   15  N   UNL     1      -7.340  11.531  66.595  1.00  0.00    -0.109 NA 
BRANCH  11  16
HETATM   16  C   UNL     1      -7.714   9.412  64.382  1.00  0.00    -0.119 C  
HETATM   17  O   UNL     1      -8.349   8.172  64.044  1.00  0.00    -0.115 OA 
HETATM   18  C   UNL     1      -7.906   7.142  64.943  1.00  0.00    -0.126 C  
HETATM   19  H   UNL     1      -4.553   8.512  64.542  1.00  0.00     0.000 HD 
HETATM   20  O   UNL     1      -5.361   8.761  64.109  1.00  0.00    -0.054 OA 
HETATM   21  C   UNL     1      -6.738   7.692  65.754  1.00  0.00    -0.046 C  
HETATM   22  H   UNL     1      -4.913   7.112  66.205  1.00  0.00     0.000 HD 
HETATM   23  C   UNL     1      -6.407   9.008  65.082  1.00  0.00    -0.061 C  
HETATM   24  O   UNL     1      -5.641   6.770  65.700  1.00  0.00    -0.028 OA 
BRANCH  18  25
HETATM   25  C   UNL     1      -9.036   6.651  65.850  1.00  0.00    -0.074 C  
BRANCH  25  26
HETATM   26  O   UNL     1      -8.466   6.492  67.150  1.00  0.00    -0.112 OA 
BRANCH  26  27
HETATM   27  P   UNL     1      -8.703   5.059  67.830  1.00  0.00    -0.103 P  
HETATM   28  O   UNL     1      -8.639   4.164  66.486  1.00  0.00    -0.111 OA 
HETATM   29  O   UNL     1      -7.704   4.639  68.867  1.00  0.00    -0.070 OA 
BRANCH  27  30
HETATM   30  O   UNL     1     -10.239   5.131  68.384  1.00  0.00    -0.159 OA 
HETATM   31  P   UNL     1     -10.483   5.953  69.885  1.00  0.00    -0.326 P  
HETATM   32  C   UNL     1     -10.739   6.824  71.474  1.00  0.00    -0.226 C  
HETATM   33  O   UNL     1      -9.958   4.585  70.645  1.00  0.00    -0.212 OA 
HETATM   34  O   UNL     1      -9.246   6.860  69.648  1.00  0.00    -0.146 OA 
HETATM   35 CL   UNL     1      -9.275   6.750  72.567  1.00  0.00    -0.144 Cl 
HETATM   36  P   UNL     1     -10.931   8.618  71.163  1.00  0.00    -0.306 P  
HETATM   37 CL   UNL     1     -12.051   5.992  72.375  1.00  0.00    -0.266 Cl 
HETATM   38  O   UNL     1     -12.573   8.465  71.324  1.00  0.00    -0.292 OA 
HETATM   39  O   UNL     1     -11.099   8.357  69.532  1.00  0.00    -0.111 OA 
HETATM   40  O   UNL     1     -11.093  10.135  70.900  1.00  0.00    -0.338 OA 
ENDBRANCH  27  30
ENDBRANCH  26  27
ENDBRANCH  25  26
ENDBRANCH  18  25
ENDBRANCH  11  16
BRANCH  14  41
HETATM   41  S   UNL     1      -6.012  13.022  68.322  1.00  0.00    -0.098 SA 
BRANCH  41  42
HETATM   42  C   UNL     1      -6.383  12.288  69.951  1.00  0.00    -0.060 C  
BRANCH  42  43
HETATM   43  C   UNL     1      -6.044  10.804  69.899  1.00  0.00    -0.094 C  
HETATM   44  C   UNL     1      -7.284   9.939  69.831  1.00  0.00    -0.129 C  
HETATM   45  F   UNL     1      -7.234   9.124  68.751  1.00  0.00    -0.069 F  
HETATM   46  F   UNL     1      -8.423  10.655  69.747  1.00  0.00    -0.135 F  
HETATM   47  F   UNL     1      -7.377   9.147  70.922  1.00  0.00    -0.079 F  
ENDBRANCH  42  43
ENDBRANCH  41  42
ENDBRANCH  14  41
ENDBRANCH   5   7
ENDBRANCH   4   5
ENDBRANCH   3   4
ENDBRANCH   2   3
TORSDOF 12
ENDMDL
MODEL       97
REMARK 921   NORMALIZED FREE ENERGY PREDICTED BY IDOCK:   -5.01 KCAL/MOL
REMARK 922        TOTAL FREE ENERGY PREDICTED BY IDOCK:   -9.53 KCAL/MOL
REMARK 923 INTER-LIGAND FREE ENERGY PREDICTED BY IDOCK:   -8.16 KCAL/MOL
REMARK 924 INTRA-LIGAND FREE ENERGY PREDICTED BY IDOCK:   -1.38 KCAL/MOL
REMARK 927      BINDING AFFINITY PREDICTED BY RF-SCORE:    0.00 PKD
ROOT
HETATM    1  C   UNL     1     -11.004   2.363  73.325  1.00  0.00    -0.169 C  
HETATM    2  S   UNL     1     -10.464   3.764  74.330  1.00  0.00    -0.207 SA 
ENDROOT
BRANCH   2   3
HETATM    3  C   UNL     1     -11.137   5.138  73.320  1.00  0.00    -0.327 C  
BRANCH   3   4
HETATM    4  C   UNL     1     -10.661   6.516  73.827  1.00  0.00    -0.266 C  
BRANCH   4   5
HETATM    5  N   UNL     1     -11.389   7.588  73.170  1.00  0.00    -0.604 NA 
HETATM    6  H   UNL     1     -12.370   7.743  73.398  1.00  0.00     0.000 HD 
BRANCH   5   7
HETATM    7  C   UNL     1     -10.769   8.401  72.237  1.00  0.00    -0.347 A  
HETATM    8  C   UNL     1     -11.522   9.309  71.476  1.00  0.00    -0.384 A  
HETATM    9  N   UNL     1     -12.866   9.626  71.482  1.00  0.00    -0.364 NA 
HETATM   10  C   UNL     1     -12.985  10.615  70.610  1.00  0.00    -0.264 A  
HETATM   11  N   UNL     1     -11.779  10.929  70.020  1.00  0.00    -0.313 NA 
HETATM   12  C   UNL     1     -10.839  10.104  70.567  1.00  0.00    -0.273 A  
HETATM   13  N   UNL     1      -9.423   8.349  72.017  1.00  0.00    -0.241 NA 
HETATM   14  C   UNL     1      -8.891   9.148  71.070  1.00  0.00    -0.202 A  
HETATM   15  N   UNL     1      -9.530  10.069  70.310  1.00  0.00    -0.099 NA 
BRANCH  11  16
HETATM   16  C   UNL     1     -11.576  12.072  69.156  1.00  0.00    -0.312 C  
HETATM   17  O   UNL     1     -12.022  11.707  67.844  1.00  0.00    -0.599 OA 
HETATM   18  C   UNL     1     -10.886  11.460  66.999  1.00  0.00    -0.282 C  
HETATM   19  H   UNL     1      -9.390  14.437  68.477  1.00  0.00     0.000 HD 
HETATM   20  O   UNL     1     -10.257  14.071  68.606  1.00  0.00    -0.236 OA 
HETATM   21  C   UNL     1      -9.636  11.924  67.739  1.00  0.00    -0.190 C  
HETATM   22  H   UNL     1      -8.085  13.068  67.345  1.00  0.00     0.000 HD 
HETATM   23  C   UNL     1     -10.173  12.664  68.947  1.00  0.00     0.017 C  
HETATM   24  O   UNL     1      -8.863  12.779  66.885  1.00  0.00    -0.211 OA 
BRANCH  18  25
HETATM   25  C   UNL     1     -10.784   9.988  66.596  1.00  0.00    -0.058 C  
BRANCH  25  26
HETATM   26  O   UNL     1      -9.501   9.539  67.036  1.00  0.00    -0.146 OA 
BRANCH  26  27
HETATM   27  P   UNL     1      -9.166   8.004  66.713  1.00  0.00    -0.188 P  
HETATM   28  O   UNL     1     -10.638   7.395  66.982  1.00  0.00    -0.313 OA 
HETATM   29  O   UNL     1      -8.650   7.711  65.335  1.00  0.00    -0.129 OA 
BRANCH  27  30
HETATM   30  O   UNL     1      -8.146   7.559  67.909  1.00  0.00    -0.117 OA 
HETATM   31  P   UNL     1      -8.089   5.873  68.289  1.00  0.00    -0.109 P  
HETATM   32  C   UNL     1      -8.029   4.088  68.691  1.00  0.00    -0.071 C  
HETATM   33  O   UNL     1      -9.481   6.087  69.151  1.00  0.00    -0.127 OA 
HETATM   34  O   UNL     1      -8.489   5.480  66.843  1.00  0.00    -0.111 OA 
HETATM   35 CL   UNL     1      -9.603   3.229  68.333  1.00  0.00    -0.199 Cl 
HETATM   36  P   UNL     1      -6.841   3.252  67.577  1.00  0.00    -0.050 P  
HETATM   37 CL   UNL     1      -7.777   3.910  70.460  1.00  0.00    -0.044 Cl 
HETATM   38  O   UNL     1      -5.710   3.258  68.788  1.00  0.00    -0.021 OA 
HETATM   39  O   UNL     1      -6.242   4.711  67.056  1.00  0.00    -0.033 OA 
HETATM   40  O   UNL     1      -5.836   2.545  66.636  1.00  0.00    -0.021 OA 
ENDBRANCH  27  30
ENDBRANCH  26  27
ENDBRANCH  25  26
ENDBRANCH  18  25
ENDBRANCH  11  16
BRANCH  14  41
HETATM   41  S   UNL     1      -7.149   9.009  70.732  1.00  0.00    -0.103 SA 
BRANCH  41  42
HETATM   42  C   UNL     1      -6.533   8.512  72.376  1.00  0.00    -0.084 C  
BRANCH  42  43
HETATM   43  C   UNL     1      -6.271   7.012  72.359  1.00  0.00    -0.045 C  
HETATM   44  C   UNL     1      -6.740   6.337  73.629  1.00  0.00    -0.075 C  
HETATM   45  F   UNL     1      -7.603   5.333  73.341  1.00  0.00    -0.090 F  
HETATM   46  F   UNL     1      -7.364   7.179  74.475  1.00  0.00    -0.104 F  
HETATM   47  F   UNL     1      -5.699   5.786  74.292  1.00  0.00    -0.045 F  
ENDBRANCH  42  43
ENDBRANCH  41  42
ENDBRANCH  14  41
ENDBRANCH   5   7
ENDBRANCH   4   5
ENDBRANCH   3   4
ENDBRANCH   2   3
TORSDOF 12
ENDMDL
MODEL       98
REMARK 921   NORMALIZED FREE ENERGY PREDICTED BY IDOCK:   -5.00 KCAL/MOL
REMARK 922        TOTAL FREE ENERGY PREDICTED BY IDOCK:   -9.51 KCAL/MOL
REMARK 923 INTER-LIGAND FREE ENERGY PREDICTED BY IDOCK:   -8.73 KCAL/MOL
REMARK 924 INTRA-LIGAND FREE ENERGY PREDICTED BY IDOCK:   -0.78 KCAL/MOL
REMARK 927      BINDING AFFINITY PREDICTED BY RF-SCORE:    0.00 PKD
ROOT
HETATM    1  C   UNL     1      -6.957   9.626  64.603  1.00  0.00    -0.112 C  
HETATM    2  S   UNL     1      -5.427   8.664  64.628  1.00  0.00    -0.047 SA 
ENDROOT
BRANCH   2   3
HETATM    3  C   UNL     1      -6.066   7.095  65.328  1.00  0.00    -0.037 C  
BRANCH   3   4
HETATM    4  C   UNL     1      -7.575   6.914  65.060  1.00  0.00    -0.104 C  
BRANCH   4   5
HETATM    5  N   UNL     1      -8.018   5.595  65.478  1.00  0.00    -0.107 NA 
HETATM    6  H   UNL     1      -8.125   4.857  64.783  1.00  0.00     0.000 HD 
BRANCH   5   7
HETATM    7  C   UNL     1      -8.298   5.327  66.806  1.00  0.00    -0.108 A  
HETATM    8  C   UNL     1      -9.350   5.989  67.458  1.00  0.00    -0.113 A  
HETATM    9  N   UNL     1     -10.279   6.909  67.011  1.00  0.00    -0.222 NA 
HETATM   10  C   UNL     1     -11.078   7.115  68.046  1.00  0.00     0.027 A  
HETATM   11  N   UNL     1     -10.686   6.389  69.151  1.00  0.00    -0.252 NA 
HETATM   12  C   UNL     1      -9.586   5.666  68.786  1.00  0.00    -0.131 A  
HETATM   13  N   UNL     1      -7.569   4.426  67.528  1.00  0.00    -0.077 NA 
HETATM   14  C   UNL     1      -7.877   4.239  68.828  1.00  0.00    -0.073 A  
HETATM   15  N   UNL     1      -8.886   4.809  69.530  1.00  0.00    -0.085 NA 
BRANCH  11  16
HETATM   16  C   UNL     1     -11.461   6.288  70.368  1.00  0.00    -0.344 C  
HETATM   17  O   UNL     1     -12.157   7.529  70.542  1.00  0.00    -0.150 OA 
HETATM   18  C   UNL     1     -11.517   8.301  71.571  1.00  0.00    -0.275 C  
HETATM   19  H   UNL     1     -11.269   5.198  73.468  1.00  0.00     0.000 HD 
HETATM   20  O   UNL     1     -11.691   5.362  72.632  1.00  0.00    -0.271 OA 
HETATM   21  C   UNL     1     -10.496   7.408  72.267  1.00  0.00    -0.223 C  
HETATM   22  H   UNL     1     -10.055   6.917  74.121  1.00  0.00     0.000 HD 
HETATM   23  C   UNL     1     -10.780   6.024  71.720  1.00  0.00    -0.244 C  
HETATM   24  O   UNL     1     -10.690   7.474  73.687  1.00  0.00    -0.343 OA 
BRANCH  18  25
HETATM   25  C   UNL     1     -10.864   9.567  71.014  1.00  0.00    -0.353 C  
BRANCH  25  26
HETATM   26  O   UNL     1     -11.726  10.040  69.978  1.00  0.00    -0.238 OA 
BRANCH  26  27
HETATM   27  P   UNL     1     -11.131  11.235  69.086  1.00  0.00    -0.276 P  
HETATM   28  O   UNL     1     -11.300  12.423  70.169  1.00  0.00    -0.036 OA 
HETATM   29  O   UNL     1      -9.719  11.070  68.607  1.00  0.00    -0.183 OA 
BRANCH  27  30
HETATM   30  O   UNL     1     -12.221  11.413  67.882  1.00  0.00    -0.592 OA 
HETATM   31  P   UNL     1     -11.726  12.364  66.525  1.00  0.00    -0.262 P  
HETATM   32  C   UNL     1     -11.200  13.369  65.089  1.00  0.00    -0.305 C  
HETATM   33  O   UNL     1     -12.058  13.706  67.427  1.00  0.00    -0.380 OA 
HETATM   34  O   UNL     1     -10.233  12.004  66.753  1.00  0.00    -0.200 OA 
HETATM   35 CL   UNL     1      -9.966  14.644  65.531  1.00  0.00    -0.390 Cl 
HETATM   36  P   UNL     1     -10.293  12.311  63.902  1.00  0.00    -0.388 P  
HETATM   37 CL   UNL     1     -12.625  14.274  64.475  1.00  0.00    -0.328 Cl 
HETATM   38  O   UNL     1     -11.652  12.213  62.959  1.00  0.00    -0.233 OA 
HETATM   39  O   UNL     1     -10.784  10.935  64.693  1.00  0.00    -0.308 OA 
HETATM   40  O   UNL     1      -9.526  11.416  62.898  1.00  0.00    -0.368 OA 
ENDBRANCH  27  30
ENDBRANCH  26  27
ENDBRANCH  25  26
ENDBRANCH  18  25
ENDBRANCH  11  16
BRANCH  14  41
HETATM   41  S   UNL     1      -6.866   3.127  69.781  1.00  0.00    -0.034 SA 
BRANCH  41  42
HETATM   42  C   UNL     1      -8.143   2.004  70.441  1.00  0.00    -0.041 C  
BRANCH  42  43
HETATM   43  C   UNL     1      -8.042   1.999  71.961  1.00  0.00    -0.049 C  
HETATM   44  C   UNL     1      -9.312   2.494  72.618  1.00  0.00    -0.085 C  
HETATM   45  F   UNL     1      -9.784   1.573  73.491  1.00  0.00    -0.070 F  
HETATM   46  F   UNL     1     -10.295   2.758  71.735  1.00  0.00    -0.217 F  
HETATM   47  F   UNL     1      -9.079   3.624  73.321  1.00  0.00    -0.098 F  
ENDBRANCH  42  43
ENDBRANCH  41  42
ENDBRANCH  14  41
ENDBRANCH   5   7
ENDBRANCH   4   5
ENDBRANCH   3   4
ENDBRANCH   2   3
TORSDOF 12
ENDMDL
MODEL       99
REMARK 921   NORMALIZED FREE ENERGY PREDICTED BY IDOCK:   -4.98 KCAL/MOL
REMARK 922        TOTAL FREE ENERGY PREDICTED BY IDOCK:   -9.48 KCAL/MOL
REMARK 923 INTER-LIGAND FREE ENERGY PREDICTED BY IDOCK:   -8.52 KCAL/MOL
REMARK 924 INTRA-LIGAND FREE ENERGY PREDICTED BY IDOCK:   -0.96 KCAL/MOL
REMARK 927      BINDING AFFINITY PREDICTED BY RF-SCORE:    0.00 PKD
ROOT
HETATM    1  C   UNL     1      -9.672  20.906  67.444  1.00  0.00    -0.227 C  
HETATM    2  S   UNL     1     -10.045  19.342  68.269  1.00  0.00    -0.435 SA 
ENDROOT
BRANCH   2   3
HETATM    3  C   UNL     1      -9.929  18.206  66.834  1.00  0.00    -0.342 C  
BRANCH   3   4
HETATM    4  C   UNL     1      -8.529  17.567  66.714  1.00  0.00    -0.250 C  
BRANCH   4   5
HETATM    5  N   UNL     1      -8.557  16.430  65.810  1.00  0.00    -0.327 NA 
HETATM    6  H   UNL     1      -7.988  16.446  64.965  1.00  0.00     0.000 HD 
BRANCH   5   7
HETATM    7  C   UNL     1      -9.347  15.326  66.081  1.00  0.00    -0.325 A  
HETATM    8  C   UNL     1      -8.897  14.332  66.965  1.00  0.00    -0.226 A  
HETATM    9  N   UNL     1      -7.748  14.224  67.725  1.00  0.00    -0.146 NA 
HETATM   10  C   UNL     1      -7.911  13.115  68.430  1.00  0.00    -0.130 A  
HETATM   11  N   UNL     1      -9.104  12.488  68.135  1.00  0.00    -0.201 NA 
HETATM   12  C   UNL     1      -9.741  13.257  67.204  1.00  0.00    -0.236 A  
HETATM   13  N   UNL     1     -10.572  15.157  65.504  1.00  0.00    -0.338 NA 
HETATM   14  C   UNL     1     -11.273  14.040  65.789  1.00  0.00    -0.303 A  
HETATM   15  N   UNL     1     -10.934  13.047  66.645  1.00  0.00    -0.275 NA 
BRANCH  11  16
HETATM   16  C   UNL     1      -9.622  11.352  68.866  1.00  0.00    -0.073 C  
HETATM   17  O   UNL     1      -8.546  10.422  69.041  1.00  0.00    -0.139 OA 
HETATM   18  C   UNL     1      -8.711   9.318  68.137  1.00  0.00    -0.125 C  
HETATM   19  H   UNL     1     -12.243   9.369  69.034  1.00  0.00     0.000 HD 
HETATM   20  O   UNL     1     -11.526   9.887  69.381  1.00  0.00    -0.152 OA 
HETATM   21  C   UNL     1     -10.098   9.421  67.512  1.00  0.00    -0.215 C  
HETATM   22  H   UNL     1     -11.639   8.226  67.249  1.00  0.00     0.000 HD 
HETATM   23  C   UNL     1     -10.782  10.515  68.306  1.00  0.00    -0.229 C  
HETATM   24  O   UNL     1     -10.775   8.163  67.638  1.00  0.00    -0.221 OA 
BRANCH  18  25
HETATM   25  C   UNL     1      -7.617   9.286  67.067  1.00  0.00    -0.091 C  
BRANCH  25  26
HETATM   26  O   UNL     1      -7.242   7.917  66.917  1.00  0.00    -0.085 OA 
BRANCH  26  27
HETATM   27  P   UNL     1      -7.176   7.389  65.403  1.00  0.00    -0.075 P  
HETATM   28  O   UNL     1      -7.561   8.776  64.669  1.00  0.00    -0.101 OA 
HETATM   29  O   UNL     1      -5.861   6.827  64.950  1.00  0.00    -0.033 OA 
BRANCH  27  30
HETATM   30  O   UNL     1      -8.418   6.333  65.296  1.00  0.00    -0.151 OA 
HETATM   31  P   UNL     1      -8.112   4.720  65.841  1.00  0.00    -0.109 P  
HETATM   32  C   UNL     1      -7.788   3.014  66.419  1.00  0.00    -0.077 C  
HETATM   33  O   UNL     1      -7.363   4.444  64.397  1.00  0.00    -0.067 OA 
HETATM   34  O   UNL     1      -7.032   5.209  66.843  1.00  0.00    -0.062 OA 
HETATM   35 CL   UNL     1      -6.033   2.530  66.246  1.00  0.00    -0.022 Cl 
HETATM   36  P   UNL     1      -8.064   2.919  68.226  1.00  0.00    -0.062 P  
HETATM   37 CL   UNL     1      -8.704   1.876  65.376  1.00  0.00    -0.112 Cl 
HETATM   38  O   UNL     1      -9.546   2.227  67.957  1.00  0.00    -0.199 OA 
HETATM   39  O   UNL     1      -8.798   4.409  68.232  1.00  0.00    -0.098 OA 
HETATM   40  O   UNL     1      -8.300   2.838  69.754  1.00  0.00    -0.047 OA 
ENDBRANCH  27  30
ENDBRANCH  26  27
ENDBRANCH  25  26
ENDBRANCH  18  25
ENDBRANCH  11  16
BRANCH  14  41
HETATM   41  S   UNL     1     -12.829  13.789  64.964  1.00  0.00    -0.169 SA 
BRANCH  41  42
HETATM   42  C   UNL     1     -12.250  13.152  63.355  1.00  0.00    -0.444 C  
BRANCH  42  43
HETATM   43  C   UNL     1     -11.962  11.663  63.503  1.00  0.00    -0.359 C  
HETATM   44  C   UNL     1     -10.478  11.369  63.511  1.00  0.00    -0.417 C  
HETATM   45  F   UNL     1     -10.137  10.683  64.628  1.00  0.00    -0.317 F  
HETATM   46  F   UNL     1      -9.719  12.481  63.470  1.00  0.00    -0.322 F  
HETATM   47  F   UNL     1     -10.135  10.599  62.454  1.00  0.00    -0.188 F  
ENDBRANCH  42  43
ENDBRANCH  41  42
ENDBRANCH  14  41
ENDBRANCH   5   7
ENDBRANCH   4   5
ENDBRANCH   3   4
ENDBRANCH   2   3
TORSDOF 12
ENDMDL
MODEL      100
REMARK 921   NORMALIZED FREE ENERGY PREDICTED BY IDOCK:   -4.96 KCAL/MOL
REMARK 922        TOTAL FREE ENERGY PREDICTED BY IDOCK:   -9.45 KCAL/MOL
REMARK 923 INTER-LIGAND FREE ENERGY PREDICTED BY IDOCK:   -7.73 KCAL/MOL
REMARK 924 INTRA-LIGAND FREE ENERGY PREDICTED BY IDOCK:   -1.72 KCAL/MOL
REMARK 927      BINDING AFFINITY PREDICTED BY RF-SCORE:    0.00 PKD
ROOT
HETATM    1  C   UNL     1      -6.376  15.880  69.505  1.00  0.00    -0.173 C  
HETATM    2  S   UNL     1      -5.165  14.868  70.385  1.00  0.00    -0.122 SA 
ENDROOT
BRANCH   2   3
HETATM    3  C   UNL     1      -6.081  13.282  70.445  1.00  0.00    -0.064 C  
BRANCH   3   4
HETATM    4  C   UNL     1      -6.212  12.636  69.050  1.00  0.00    -0.091 C  
BRANCH   4   5
HETATM    5  N   UNL     1      -5.436  11.410  68.974  1.00  0.00    -0.040 NA 
HETATM    6  H   UNL     1      -4.424  11.448  69.095  1.00  0.00     0.000 HD 
BRANCH   5   7
HETATM    7  C   UNL     1      -6.051  10.192  68.740  1.00  0.00    -0.047 A  
HETATM    8  C   UNL     1      -6.709   9.518  69.780  1.00  0.00    -0.057 A  
HETATM    9  N   UNL     1      -6.931   9.853  71.101  1.00  0.00    -0.311 NA 
HETATM   10  C   UNL     1      -7.682   8.873  71.578  1.00  0.00    -0.053 A  
HETATM   11  N   UNL     1      -7.929   7.904  70.628  1.00  0.00    -0.095 NA 
HETATM   12  C   UNL     1      -7.315   8.307  69.477  1.00  0.00    -0.074 A  
HETATM   13  N   UNL     1      -6.036   9.603  67.509  1.00  0.00    -0.051 NA 
HETATM   14  C   UNL     1      -6.628   8.400  67.360  1.00  0.00    -0.059 A  
HETATM   15  N   UNL     1      -7.306   7.691  68.294  1.00  0.00    -0.096 NA 
BRANCH  11  16
HETATM   16  C   UNL     1      -8.853   6.806  70.814  1.00  0.00    -0.150 C  
HETATM   17  O   UNL     1      -9.672   6.725  69.641  1.00  0.00    -0.155 OA 
HETATM   18  C   UNL     1     -10.977   7.254  69.926  1.00  0.00    -0.243 C  
HETATM   19  H   UNL     1     -10.806   5.434  73.079  1.00  0.00     0.000 HD 
HETATM   20  O   UNL     1     -10.194   5.439  72.353  1.00  0.00    -0.183 OA 
HETATM   21  C   UNL     1     -11.083   7.466  71.432  1.00  0.00    -0.239 C  
HETATM   22  H   UNL     1     -12.352   6.988  72.858  1.00  0.00     0.000 HD 
HETATM   23  C   UNL     1      -9.843   6.798  71.989  1.00  0.00    -0.156 C  
HETATM   24  O   UNL     1     -12.286   6.856  71.919  1.00  0.00    -0.331 OA 
BRANCH  18  25
HETATM   25  C   UNL     1     -11.250   8.548  69.158  1.00  0.00     0.345 C  
BRANCH  25  26
HETATM   26  O   UNL     1     -11.150   9.608  70.110  1.00  0.00    -0.244 OA 
BRANCH  26  27
HETATM   27  P   UNL     1     -11.564  11.059  69.563  1.00  0.00    -0.370 P  
HETATM   28  O   UNL     1     -12.899  10.620  68.765  1.00  0.00     0.351 OA 
HETATM   29  O   UNL     1     -11.816  12.115  70.599  1.00  0.00    -0.241 OA 
BRANCH  27  30
HETATM   30  O   UNL     1     -10.377  11.439  68.507  1.00  0.00    -0.191 OA 
HETATM   31  P   UNL     1     -10.762  12.621  67.304  1.00  0.00    -0.247 P  
HETATM   32  C   UNL     1     -11.169  13.873  66.032  1.00  0.00    -0.300 C  
HETATM   33  O   UNL     1     -11.531  11.424  66.468  1.00  0.00    -0.384 OA 
HETATM   34  O   UNL     1     -11.811  13.295  68.228  1.00  0.00    -0.333 OA 
HETATM   35 CL   UNL     1     -12.947  13.894  65.605  1.00  0.00    -0.479 Cl 
HETATM   36  P   UNL     1     -10.890  15.549  66.713  1.00  0.00    -0.199 P  
HETATM   37 CL   UNL     1     -10.317  13.439  64.513  1.00  0.00    -0.426 Cl 
HETATM   38  O   UNL     1      -9.446  15.630  65.904  1.00  0.00    -0.330 OA 
HETATM   39  O   UNL     1     -10.081  14.924  68.023  1.00  0.00    -0.218 OA 
HETATM   40  O   UNL     1     -10.652  16.966  67.289  1.00  0.00    -0.320 OA 
ENDBRANCH  27  30
ENDBRANCH  26  27
ENDBRANCH  25  26
ENDBRANCH  18  25
ENDBRANCH  11  16
BRANCH  14  41
HETATM   41  S   UNL     1      -6.527   7.602  65.772  1.00  0.00    -0.042 SA 
BRANCH  41  42
HETATM   42  C   UNL     1      -8.299   7.462  65.362  1.00  0.00    -0.117 C  
BRANCH  42  43
HETATM   43  C   UNL     1      -8.983   8.774  65.725  1.00  0.00    -0.253 C  
HETATM   44  C   UNL     1      -9.110   9.698  64.534  1.00  0.00    -0.236 C  
HETATM   45  F   UNL     1     -10.403  10.055  64.346  1.00  0.00    -0.336 F  
HETATM   46  F   UNL     1      -8.670   9.146  63.387  1.00  0.00    -0.196 F  
HETATM   47  F   UNL     1      -8.410  10.837  64.735  1.00  0.00    -0.171 F  
ENDBRANCH  42  43
ENDBRANCH  41  42
ENDBRANCH  14  41
ENDBRANCH   5   7
ENDBRANCH   4   5
ENDBRANCH   3   4
ENDBRANCH   2   3
TORSDOF 12
ENDMDL
MODEL      101
REMARK 921   NORMALIZED FREE ENERGY PREDICTED BY IDOCK:   -4.94 KCAL/MOL
REMARK 922        TOTAL FREE ENERGY PREDICTED BY IDOCK:   -9.41 KCAL/MOL
REMARK 923 INTER-LIGAND FREE ENERGY PREDICTED BY IDOCK:   -8.84 KCAL/MOL
REMARK 924 INTRA-LIGAND FREE ENERGY PREDICTED BY IDOCK:   -0.58 KCAL/MOL
REMARK 927      BINDING AFFINITY PREDICTED BY RF-SCORE:    0.00 PKD
ROOT
HETATM    1  C   UNL     1      -8.287   4.549  72.977  1.00  0.00    -0.099 C  
HETATM    2  S   UNL     1      -8.360   6.246  72.362  1.00  0.00    -0.110 SA 
ENDROOT
BRANCH   2   3
HETATM    3  C   UNL     1      -6.826   6.273  71.360  1.00  0.00    -0.067 C  
BRANCH   3   4
HETATM    4  C   UNL     1      -7.031   5.633  69.970  1.00  0.00    -0.065 C  
BRANCH   4   5
HETATM    5  N   UNL     1      -6.909   6.630  68.921  1.00  0.00    -0.060 NA 
HETATM    6  H   UNL     1      -6.389   6.406  68.073  1.00  0.00     0.000 HD 
BRANCH   5   7
HETATM    7  C   UNL     1      -7.488   7.879  69.056  1.00  0.00    -0.097 A  
HETATM    8  C   UNL     1      -8.882   8.028  68.976  1.00  0.00    -0.145 A  
HETATM    9  N   UNL     1      -9.900   7.108  68.814  1.00  0.00    -0.156 NA 
HETATM   10  C   UNL     1     -11.014   7.817  68.900  1.00  0.00     0.115 A  
HETATM   11  N   UNL     1     -10.758   9.160  69.080  1.00  0.00    -0.194 NA 
HETATM   12  C   UNL     1      -9.401   9.305  69.132  1.00  0.00    -0.157 A  
HETATM   13  N   UNL     1      -6.740   9.002  69.263  1.00  0.00    -0.049 NA 
HETATM   14  C   UNL     1      -7.370  10.192  69.353  1.00  0.00    -0.106 A  
HETATM   15  N   UNL     1      -8.703  10.427  69.315  1.00  0.00    -0.164 NA 
BRANCH  11  16
HETATM   16  C   UNL     1     -11.776  10.146  69.370  1.00  0.00    -0.028 C  
HETATM   17  O   UNL     1     -12.259  10.652  68.119  1.00  0.00    -0.265 OA 
HETATM   18  C   UNL     1     -11.720  11.964  67.889  1.00  0.00    -0.298 C  
HETATM   19  H   UNL     1     -12.436  12.655  71.396  1.00  0.00     0.000 HD 
HETATM   20  O   UNL     1     -12.637  11.882  70.881  1.00  0.00    -0.339 OA 
HETATM   21  C   UNL     1     -11.045  12.430  69.174  1.00  0.00    -0.203 C  
HETATM   22  H   UNL     1     -11.097  14.032  70.316  1.00  0.00     0.000 HD 
HETATM   23  C   UNL     1     -11.451  11.395  70.203  1.00  0.00    -0.214 C  
HETATM   24  O   UNL     1     -11.517  13.741  69.516  1.00  0.00    -0.267 OA 
BRANCH  18  25
HETATM   25  C   UNL     1     -10.749  11.984  66.708  1.00  0.00    -0.243 C  
BRANCH  25  26
HETATM   26  O   UNL     1     -11.544  12.180  65.538  1.00  0.00    -0.359 OA 
BRANCH  26  27
HETATM   27  P   UNL     1     -11.757  13.711  65.105  1.00  0.00    -0.374 P  
HETATM   28  O   UNL     1     -12.503  13.440  63.697  1.00  0.00    -0.711 OA 
HETATM   29  O   UNL     1     -12.560  14.563  66.044  1.00  0.00    -0.293 OA 
BRANCH  27  30
HETATM   30  O   UNL     1     -10.243  14.265  64.842  1.00  0.00    -0.413 OA 
HETATM   31  P   UNL     1      -9.710  15.569  65.845  1.00  0.00    -0.341 P  
HETATM   32  C   UNL     1      -9.148  16.949  66.908  1.00  0.00    -0.230 C  
HETATM   33  O   UNL     1     -10.572  16.584  64.869  1.00  0.00    -0.689 OA 
HETATM   34  O   UNL     1     -10.645  15.128  67.003  1.00  0.00    -0.287 OA 
HETATM   35 CL   UNL     1     -10.524  18.006  67.482  1.00  0.00    -0.396 Cl 
HETATM   36  P   UNL     1      -8.465  16.278  68.468  1.00  0.00    -0.227 P  
HETATM   37 CL   UNL     1      -8.091  18.024  65.932  1.00  0.00    -0.101 Cl 
HETATM   38  O   UNL     1      -6.930  16.496  67.883  1.00  0.00    -0.133 OA 
HETATM   39  O   UNL     1      -8.448  14.739  67.845  1.00  0.00    -0.144 OA 
HETATM   40  O   UNL     1      -7.887  15.711  69.787  1.00  0.00    -0.164 OA 
ENDBRANCH  27  30
ENDBRANCH  26  27
ENDBRANCH  25  26
ENDBRANCH  18  25
ENDBRANCH  11  16
BRANCH  14  41
HETATM   41  S   UNL     1      -6.378  11.658  69.535  1.00  0.00    -0.129 SA 
BRANCH  41  42
HETATM   42  C   UNL     1      -6.394  12.282  67.821  1.00  0.00    -0.101 C  
BRANCH  42  43
HETATM   43  C   UNL     1      -5.294  11.574  67.040  1.00  0.00    -0.103 C  
HETATM   44  C   UNL     1      -5.852  10.645  65.985  1.00  0.00    -0.127 C  
HETATM   45  F   UNL     1      -5.350  10.955  64.766  1.00  0.00    -0.142 F  
HETATM   46  F   UNL     1      -7.196  10.694  65.895  1.00  0.00    -0.125 F  
HETATM   47  F   UNL     1      -5.506   9.364  66.241  1.00  0.00    -0.043 F  
ENDBRANCH  42  43
ENDBRANCH  41  42
ENDBRANCH  14  41
ENDBRANCH   5   7
ENDBRANCH   4   5
ENDBRANCH   3   4
ENDBRANCH   2   3
TORSDOF 12
ENDMDL
MODEL      102
REMARK 921   NORMALIZED FREE ENERGY PREDICTED BY IDOCK:   -4.93 KCAL/MOL
REMARK 922        TOTAL FREE ENERGY PREDICTED BY IDOCK:   -9.40 KCAL/MOL
REMARK 923 INTER-LIGAND FREE ENERGY PREDICTED BY IDOCK:   -8.50 KCAL/MOL
REMARK 924 INTRA-LIGAND FREE ENERGY PREDICTED BY IDOCK:   -0.89 KCAL/MOL
REMARK 927      BINDING AFFINITY PREDICTED BY RF-SCORE:    0.00 PKD
ROOT
HETATM    1  C   UNL     1      -7.697  16.646  67.479  1.00  0.00    -0.165 C  
HETATM    2  S   UNL     1      -6.639  15.757  68.643  1.00  0.00    -0.121 SA 
ENDROOT
BRANCH   2   3
HETATM    3  C   UNL     1      -6.644  14.102  67.855  1.00  0.00    -0.165 C  
BRANCH   3   4
HETATM    4  C   UNL     1      -8.074  13.612  67.547  1.00  0.00    -0.184 C  
BRANCH   4   5
HETATM    5  N   UNL     1      -8.237  12.221  67.932  1.00  0.00    -0.150 NA 
HETATM    6  H   UNL     1      -8.129  11.955  68.910  1.00  0.00     0.000 HD 
BRANCH   5   7
HETATM    7  C   UNL     1      -8.537  11.252  66.990  1.00  0.00    -0.148 A  
HETATM    8  C   UNL     1      -8.147   9.920  67.194  1.00  0.00    -0.117 A  
HETATM    9  N   UNL     1      -7.502   9.298  68.246  1.00  0.00    -0.079 NA 
HETATM   10  C   UNL     1      -7.481   8.015  67.920  1.00  0.00    -0.094 A  
HETATM   11  N   UNL     1      -8.058   7.787  66.688  1.00  0.00    -0.109 NA 
HETATM   12  C   UNL     1      -8.488   8.995  66.218  1.00  0.00    -0.125 A  
HETATM   13  N   UNL     1      -9.206  11.550  65.839  1.00  0.00    -0.221 NA 
HETATM   14  C   UNL     1      -9.436  10.561  64.950  1.00  0.00    -0.252 A  
HETATM   15  N   UNL     1      -9.123   9.249  65.073  1.00  0.00    -0.212 NA 
BRANCH  11  16
HETATM   16  C   UNL     1      -8.324   6.470  66.152  1.00  0.00    -0.129 C  
HETATM   17  O   UNL     1      -9.732   6.379  65.904  1.00  0.00     0.056 OA 
HETATM   18  C   UNL     1     -10.350   5.574  66.922  1.00  0.00    -0.265 C  
HETATM   19  H   UNL     1      -7.520   3.305  66.564  1.00  0.00     0.000 HD 
HETATM   20  O   UNL     1      -7.732   4.087  66.067  1.00  0.00    -0.088 OA 
HETATM   21  C   UNL     1      -9.245   4.909  67.735  1.00  0.00    -0.121 C  
HETATM   22  H   UNL     1      -8.811   3.087  68.336  1.00  0.00     0.000 HD 
HETATM   23  C   UNL     1      -7.981   5.206  66.955  1.00  0.00    -0.104 C  
HETATM   24  O   UNL     1      -9.500   3.501  67.830  1.00  0.00    -0.195 OA 
BRANCH  18  25
HETATM   25  C   UNL     1     -11.283   6.396  67.813  1.00  0.00    -0.152 C  
BRANCH  25  26
HETATM   26  O   UNL     1     -10.443   7.223  68.618  1.00  0.00    -0.193 OA 
BRANCH  26  27
HETATM   27  P   UNL     1     -10.953   7.455  70.122  1.00  0.00    -0.205 P  
HETATM   28  O   UNL     1     -11.288   9.032  70.000  1.00  0.00    -0.184 OA 
HETATM   29  O   UNL     1     -12.129   6.635  70.562  1.00  0.00    -0.390 OA 
BRANCH  27  30
HETATM   30  O   UNL     1      -9.615   7.234  71.034  1.00  0.00    -0.159 OA 
HETATM   31  P   UNL     1      -9.555   5.789  71.982  1.00  0.00    -0.149 P  
HETATM   32  C   UNL     1      -9.492   4.260  72.985  1.00  0.00    -0.121 C  
HETATM   33  O   UNL     1     -10.537   6.544  73.074  1.00  0.00    -0.221 OA 
HETATM   34  O   UNL     1     -10.466   5.032  70.979  1.00  0.00    -0.213 OA 
HETATM   35 CL   UNL     1     -11.152   3.659  73.464  1.00  0.00    -0.327 Cl 
HETATM   36  P   UNL     1      -8.837   2.888  71.965  1.00  0.00    -0.088 P  
HETATM   37 CL   UNL     1      -8.651   4.624  74.528  1.00  0.00    -0.105 Cl 
HETATM   38  O   UNL     1      -7.356   3.067  72.687  1.00  0.00    -0.045 OA 
HETATM   39  O   UNL     1      -8.351   3.948  70.782  1.00  0.00    -0.068 OA 
HETATM   40  O   UNL     1      -8.281   1.728  71.103  1.00  0.00    -0.046 OA 
ENDBRANCH  27  30
ENDBRANCH  26  27
ENDBRANCH  25  26
ENDBRANCH  18  25
ENDBRANCH  11  16
BRANCH  14  41
HETATM   41  S   UNL     1     -10.233  10.978  63.414  1.00  0.00    -0.293 SA 
BRANCH  41  42
HETATM   42  C   UNL     1     -10.886  12.633  63.821  1.00  0.00    -0.426 C  
BRANCH  42  43
HETATM   43  C   UNL     1     -12.194  12.461  64.582  1.00  0.00    -0.499 C  
HETATM   44  C   UNL     1     -12.256  13.339  65.812  1.00  0.00    -0.456 C  
HETATM   45  F   UNL     1     -13.359  14.124  65.780  1.00  0.00    -0.522 F  
HETATM   46  F   UNL     1     -11.186  14.148  65.938  1.00  0.00    -0.301 F  
HETATM   47  F   UNL     1     -12.337  12.589  66.934  1.00  0.00    -0.354 F  
ENDBRANCH  42  43
ENDBRANCH  41  42
ENDBRANCH  14  41
ENDBRANCH   5   7
ENDBRANCH   4   5
ENDBRANCH   3   4
ENDBRANCH   2   3
TORSDOF 12
ENDMDL
MODEL      103
REMARK 921   NORMALIZED FREE ENERGY PREDICTED BY IDOCK:   -4.92 KCAL/MOL
REMARK 922        TOTAL FREE ENERGY PREDICTED BY IDOCK:   -9.39 KCAL/MOL
REMARK 923 INTER-LIGAND FREE ENERGY PREDICTED BY IDOCK:   -9.46 KCAL/MOL
REMARK 924 INTRA-LIGAND FREE ENERGY PREDICTED BY IDOCK:    0.08 KCAL/MOL
REMARK 927      BINDING AFFINITY PREDICTED BY RF-SCORE:    0.00 PKD
ROOT
HETATM    1  C   UNL     1     -10.201   6.447  74.268  1.00  0.00    -0.344 C  
HETATM    2  S   UNL     1      -8.546   7.160  74.139  1.00  0.00    -0.207 SA 
ENDROOT
BRANCH   2   3
HETATM    3  C   UNL     1      -7.829   6.038  72.879  1.00  0.00    -0.106 C  
BRANCH   3   4
HETATM    4  C   UNL     1      -8.919   5.286  72.086  1.00  0.00    -0.129 C  
BRANCH   4   5
HETATM    5  N   UNL     1      -9.060   5.840  70.751  1.00  0.00    -0.147 NA 
HETATM    6  H   UNL     1      -8.928   5.237  69.940  1.00  0.00     0.000 HD 
BRANCH   5   7
HETATM    7  C   UNL     1      -9.370   7.176  70.565  1.00  0.00    -0.158 A  
HETATM    8  C   UNL     1     -10.693   7.624  70.705  1.00  0.00    -0.226 A  
HETATM    9  N   UNL     1     -11.856   6.968  71.059  1.00  0.00    -0.334 NA 
HETATM   10  C   UNL     1     -12.778   7.917  71.111  1.00  0.00    -0.151 A  
HETATM   11  N   UNL     1     -12.264   9.152  70.775  1.00  0.00    -0.171 NA 
HETATM   12  C   UNL     1     -10.935   8.977  70.518  1.00  0.00    -0.252 A  
HETATM   13  N   UNL     1      -8.418   8.097  70.235  1.00  0.00    -0.124 NA 
HETATM   14  C   UNL     1      -8.797   9.377  70.037  1.00  0.00    -0.211 A  
HETATM   15  N   UNL     1     -10.037   9.903  70.176  1.00  0.00    -0.262 NA 
BRANCH  11  16
HETATM   16  C   UNL     1     -12.996  10.394  70.905  1.00  0.00    -0.387 C  
HETATM   17  O   UNL     1     -13.269  10.875  69.583  1.00  0.00     0.075 OA 
HETATM   18  C   UNL     1     -12.391  11.971  69.277  1.00  0.00     0.080 C  
HETATM   19  H   UNL     1     -13.057  13.184  72.649  1.00  0.00     0.000 HD 
HETATM   20  O   UNL     1     -13.433  12.441  72.191  1.00  0.00    -0.525 OA 
HETATM   21  C   UNL     1     -11.676  12.376  70.561  1.00  0.00     0.116 C  
HETATM   22  H   UNL     1     -11.352  14.045  71.551  1.00  0.00     0.000 HD 
HETATM   23  C   UNL     1     -12.389  11.595  71.646  1.00  0.00     0.128 C  
HETATM   24  O   UNL     1     -11.797  13.793  70.752  1.00  0.00    -0.272 OA 
BRANCH  18  25
HETATM   25  C   UNL     1     -11.396  11.615  68.171  1.00  0.00    -0.292 C  
BRANCH  25  26
HETATM   26  O   UNL     1     -12.030  11.954  66.937  1.00  0.00    -0.614 OA 
BRANCH  26  27
HETATM   27  P   UNL     1     -11.971  13.508  66.542  1.00  0.00    -0.392 P  
HETATM   28  O   UNL     1     -13.067  13.475  65.355  1.00  0.00    -0.663 OA 
HETATM   29  O   UNL     1     -12.307  14.485  67.629  1.00  0.00    -0.218 OA 
BRANCH  27  30
HETATM   30  O   UNL     1     -10.473  13.703  65.919  1.00  0.00    -0.284 OA 
HETATM   31  P   UNL     1      -9.518  14.981  66.586  1.00  0.00    -0.300 P  
HETATM   32  C   UNL     1      -8.507  16.333  67.293  1.00  0.00    -0.177 C  
HETATM   33  O   UNL     1     -10.372  16.027  65.637  1.00  0.00    -0.352 OA 
HETATM   34  O   UNL     1     -10.248  14.884  67.951  1.00  0.00    -0.226 OA 
HETATM   35 CL   UNL     1      -9.521  17.712  67.936  1.00  0.00    -0.269 Cl 
HETATM   36  P   UNL     1      -7.639  15.729  68.787  1.00  0.00    -0.204 P  
HETATM   37 CL   UNL     1      -7.508  17.043  65.981  1.00  0.00    -0.250 Cl 
HETATM   38  O   UNL     1      -6.249  15.554  67.902  1.00  0.00    -0.125 OA 
HETATM   39  O   UNL     1      -8.027  14.155  68.424  1.00  0.00    -0.129 OA 
HETATM   40  O   UNL     1      -6.904  15.218  70.050  1.00  0.00    -0.162 OA 
ENDBRANCH  27  30
ENDBRANCH  26  27
ENDBRANCH  25  26
ENDBRANCH  18  25
ENDBRANCH  11  16
BRANCH  14  41
HETATM   41  S   UNL     1      -7.563  10.551  69.523  1.00  0.00    -0.118 SA 
BRANCH  41  42
HETATM   42  C   UNL     1      -7.312  10.028  67.793  1.00  0.00    -0.089 C  
BRANCH  42  43
HETATM   43  C   UNL     1      -8.613  10.244  67.031  1.00  0.00    -0.129 C  
HETATM   44  C   UNL     1      -9.227   8.939  66.573  1.00  0.00    -0.183 C  
HETATM   45  F   UNL     1     -10.498   8.829  67.028  1.00  0.00    -0.306 F  
HETATM   46  F   UNL     1      -8.547   7.857  67.000  1.00  0.00    -0.120 F  
HETATM   47  F   UNL     1      -9.283   8.883  65.224  1.00  0.00    -0.251 F  
ENDBRANCH  42  43
ENDBRANCH  41  42
ENDBRANCH  14  41
ENDBRANCH   5   7
ENDBRANCH   4   5
ENDBRANCH   3   4
ENDBRANCH   2   3
TORSDOF 12
ENDMDL
MODEL      104
REMARK 921   NORMALIZED FREE ENERGY PREDICTED BY IDOCK:   -4.92 KCAL/MOL
REMARK 922        TOTAL FREE ENERGY PREDICTED BY IDOCK:   -9.38 KCAL/MOL
REMARK 923 INTER-LIGAND FREE ENERGY PREDICTED BY IDOCK:   -8.98 KCAL/MOL
REMARK 924 INTRA-LIGAND FREE ENERGY PREDICTED BY IDOCK:   -0.40 KCAL/MOL
REMARK 927      BINDING AFFINITY PREDICTED BY RF-SCORE:    0.00 PKD
ROOT
HETATM    1  C   UNL     1     -11.045  16.331  66.107  1.00  0.00     0.142 C  
HETATM    2  S   UNL     1      -9.995  14.902  65.759  1.00  0.00    -0.359 SA 
ENDROOT
BRANCH   2   3
HETATM    3  C   UNL     1     -11.098  13.985  64.618  1.00  0.00    -0.382 C  
BRANCH   3   4
HETATM    4  C   UNL     1     -12.277  13.323  65.361  1.00  0.00    -0.456 C  
BRANCH   4   5
HETATM    5  N   UNL     1     -11.928  11.979  65.788  1.00  0.00    -0.498 NA 
HETATM    6  H   UNL     1     -11.944  11.216  65.111  1.00  0.00     0.000 HD 
BRANCH   5   7
HETATM    7  C   UNL     1     -11.575  11.719  67.101  1.00  0.00    -0.266 A  
HETATM    8  C   UNL     1     -10.526  10.833  67.391  1.00  0.00    -0.225 A  
HETATM    9  N   UNL     1      -9.664  10.125  66.577  1.00  0.00    -0.190 NA 
HETATM   10  C   UNL     1      -8.828   9.524  67.409  1.00  0.00    -0.128 A  
HETATM   11  N   UNL     1      -9.134   9.789  68.727  1.00  0.00    -0.132 NA 
HETATM   12  C   UNL     1     -10.214  10.625  68.727  1.00  0.00    -0.190 A  
HETATM   13  N   UNL     1     -12.227  12.300  68.150  1.00  0.00    -0.265 NA 
HETATM   14  C   UNL     1     -11.850  11.976  69.404  1.00  0.00    -0.324 A  
HETATM   15  N   UNL     1     -10.839  11.157  69.779  1.00  0.00    -0.157 NA 
BRANCH  11  16
HETATM   16  C   UNL     1      -8.299   9.403  69.844  1.00  0.00    -0.167 C  
HETATM   17  O   UNL     1      -7.191   8.662  69.320  1.00  0.00    -0.061 OA 
HETATM   18  C   UNL     1      -7.378   7.262  69.584  1.00  0.00    -0.088 C  
HETATM   19  H   UNL     1      -8.477   8.242  72.918  1.00  0.00     0.000 HD 
HETATM   20  O   UNL     1      -8.133   8.780  72.215  1.00  0.00    -0.356 OA 
HETATM   21  C   UNL     1      -8.555   7.115  70.543  1.00  0.00    -0.144 C  
HETATM   22  H   UNL     1      -8.906   6.188  72.243  1.00  0.00     0.000 HD 
HETATM   23  C   UNL     1      -8.855   8.533  70.982  1.00  0.00    -0.175 C  
HETATM   24  O   UNL     1      -8.174   6.280  71.645  1.00  0.00    -0.116 OA 
BRANCH  18  25
HETATM   25  C   UNL     1      -7.601   6.462  68.298  1.00  0.00    -0.103 C  
BRANCH  25  26
HETATM   26  O   UNL     1      -8.690   5.576  68.561  1.00  0.00    -0.105 OA 
BRANCH  26  27
HETATM   27  P   UNL     1      -9.882   5.622  67.488  1.00  0.00    -0.167 P  
HETATM   28  O   UNL     1     -11.094   5.910  68.518  1.00  0.00    -0.274 OA 
HETATM   29  O   UNL     1      -9.768   6.657  66.408  1.00  0.00    -0.153 OA 
BRANCH  27  30
HETATM   30  O   UNL     1      -9.973   4.090  66.928  1.00  0.00    -0.187 OA 
HETATM   31  P   UNL     1      -9.466   3.831  65.295  1.00  0.00    -0.163 P  
HETATM   32  C   UNL     1      -8.928   3.559  63.567  1.00  0.00    -0.095 C  
HETATM   33  O   UNL     1     -10.936   4.410  64.816  1.00  0.00    -0.205 OA 
HETATM   34  O   UNL     1      -8.487   5.034  65.355  1.00  0.00    -0.126 OA 
HETATM   35 CL   UNL     1      -9.160   5.035  62.513  1.00  0.00    -0.077 Cl 
HETATM   36  P   UNL     1      -7.116   3.303  63.525  1.00  0.00    -0.051 P  
HETATM   37 CL   UNL     1      -9.965   2.285  62.842  1.00  0.00    -0.093 Cl 
HETATM   38  O   UNL     1      -7.356   1.668  63.394  1.00  0.00    -0.045 OA 
HETATM   39  O   UNL     1      -7.063   3.129  65.176  1.00  0.00    -0.058 OA 
HETATM   40  O   UNL     1      -5.584   3.085  63.489  1.00  0.00    -0.009 OA 
ENDBRANCH  27  30
ENDBRANCH  26  27
ENDBRANCH  25  26
ENDBRANCH  18  25
ENDBRANCH  11  16
BRANCH  14  41
HETATM   41  S   UNL     1     -12.763  12.672  70.764  1.00  0.00    -0.047 SA 
BRANCH  41  42
HETATM   42  C   UNL     1     -12.594  14.451  70.397  1.00  0.00    -0.345 C  
BRANCH  42  43
HETATM   43  C   UNL     1     -12.914  15.237  71.663  1.00  0.00    -0.486 C  
HETATM   44  C   UNL     1     -11.663  15.716  72.366  1.00  0.00    -0.475 C  
HETATM   45  F   UNL     1     -11.701  17.059  72.538  1.00  0.00    -0.522 F  
HETATM   46  F   UNL     1     -10.533  15.424  71.693  1.00  0.00    -0.154 F  
HETATM   47  F   UNL     1     -11.562  15.162  73.595  1.00  0.00    -0.503 F  
ENDBRANCH  42  43
ENDBRANCH  41  42
ENDBRANCH  14  41
ENDBRANCH   5   7
ENDBRANCH   4   5
ENDBRANCH   3   4
ENDBRANCH   2   3
TORSDOF 12
ENDMDL
MODEL      105
REMARK 921   NORMALIZED FREE ENERGY PREDICTED BY IDOCK:   -4.91 KCAL/MOL
REMARK 922        TOTAL FREE ENERGY PREDICTED BY IDOCK:   -9.37 KCAL/MOL
REMARK 923 INTER-LIGAND FREE ENERGY PREDICTED BY IDOCK:   -8.90 KCAL/MOL
REMARK 924 INTRA-LIGAND FREE ENERGY PREDICTED BY IDOCK:   -0.47 KCAL/MOL
REMARK 927      BINDING AFFINITY PREDICTED BY RF-SCORE:    0.00 PKD
ROOT
HETATM    1  C   UNL     1     -12.385  15.515  74.173  1.00  0.00    -0.669 C  
HETATM    2  S   UNL     1     -13.032  14.320  72.983  1.00  0.00    -0.266 SA 
ENDROOT
BRANCH   2   3
HETATM    3  C   UNL     1     -13.806  15.472  71.786  1.00  0.00    -0.474 C  
BRANCH   3   4
HETATM    4  C   UNL     1     -12.992  15.580  70.478  1.00  0.00    -0.290 C  
BRANCH   4   5
HETATM    5  N   UNL     1     -11.967  14.552  70.422  1.00  0.00    -0.298 NA 
HETATM    6  H   UNL     1     -11.732  14.030  71.266  1.00  0.00     0.000 HD 
BRANCH   5   7
HETATM    7  C   UNL     1     -11.306  14.271  69.239  1.00  0.00    -0.283 A  
HETATM    8  C   UNL     1     -11.252  12.956  68.751  1.00  0.00    -0.279 A  
HETATM    9  N   UNL     1     -11.798  11.776  69.217  1.00  0.00    -0.318 NA 
HETATM   10  C   UNL     1     -11.487  10.873  68.300  1.00  0.00    -0.305 A  
HETATM   11  N   UNL     1     -10.737  11.415  67.277  1.00  0.00    -0.227 NA 
HETATM   12  C   UNL     1     -10.584  12.744  67.554  1.00  0.00    -0.229 A  
HETATM   13  N   UNL     1     -10.682  15.245  68.514  1.00  0.00    -0.240 NA 
HETATM   14  C   UNL     1     -10.028  14.894  67.387  1.00  0.00    -0.223 A  
HETATM   15  N   UNL     1      -9.946  13.664  66.828  1.00  0.00    -0.263 NA 
BRANCH  11  16
HETATM   16  C   UNL     1     -10.397  10.708  66.062  1.00  0.00    -0.225 C  
HETATM   17  O   UNL     1     -10.575   9.308  66.312  1.00  0.00    -0.105 OA 
HETATM   18  C   UNL     1      -9.294   8.680  66.479  1.00  0.00    -0.200 C  
HETATM   19  H   UNL     1      -8.172  10.667  63.637  1.00  0.00     0.000 HD 
HETATM   20  O   UNL     1      -9.040  10.595  64.017  1.00  0.00    -0.201 OA 
HETATM   21  C   UNL     1      -8.219   9.683  66.076  1.00  0.00    -0.119 C  
HETATM   22  H   UNL     1      -6.645   9.695  64.895  1.00  0.00     0.000 HD 
HETATM   23  C   UNL     1      -8.993  10.824  65.448  1.00  0.00    -0.194 C  
HETATM   24  O   UNL     1      -7.315   9.071  65.146  1.00  0.00    -0.093 OA 
BRANCH  18  25
HETATM   25  C   UNL     1      -9.085   8.180  67.910  1.00  0.00    -0.132 C  
BRANCH  25  26
HETATM   26  O   UNL     1     -10.038   7.136  68.114  1.00  0.00    -0.157 OA 
BRANCH  26  27
HETATM   27  P   UNL     1     -10.415   6.846  69.646  1.00  0.00    -0.240 P  
HETATM   28  O   UNL     1     -10.800   8.358  70.068  1.00  0.00    -0.240 OA 
HETATM   29  O   UNL     1     -11.526   5.866  69.885  1.00  0.00    -0.309 OA 
BRANCH  27  30
HETATM   30  O   UNL     1      -8.996   6.415  70.330  1.00  0.00    -0.152 OA 
HETATM   31  P   UNL     1      -8.475   4.786  70.073  1.00  0.00    -0.075 P  
HETATM   32  C   UNL     1      -7.925   3.062  69.799  1.00  0.00    -0.042 C  
HETATM   33  O   UNL     1      -9.527   4.332  71.261  1.00  0.00    -0.138 OA 
HETATM   34  O   UNL     1      -9.232   4.703  68.721  1.00  0.00    -0.113 OA 
HETATM   35 CL   UNL     1      -9.319   1.905  69.553  1.00  0.00    -0.174 Cl 
HETATM   36  P   UNL     1      -7.016   2.956  68.214  1.00  0.00    -0.049 P  
HETATM   37 CL   UNL     1      -7.084   2.491  71.280  1.00  0.00    -0.032 Cl 
HETATM   38  O   UNL     1      -5.581   2.968  69.042  1.00  0.00    -0.019 OA 
HETATM   39  O   UNL     1      -6.929   4.611  68.108  1.00  0.00    -0.054 OA 
HETATM   40  O   UNL     1      -6.246   2.866  66.873  1.00  0.00    -0.024 OA 
ENDBRANCH  27  30
ENDBRANCH  26  27
ENDBRANCH  25  26
ENDBRANCH  18  25
ENDBRANCH  11  16
BRANCH  14  41
HETATM   41  S   UNL     1      -9.147  16.158  66.497  1.00  0.00    -0.307 SA 
BRANCH  41  42
HETATM   42  C   UNL     1      -8.958  17.414  67.808  1.00  0.00    -0.236 C  
BRANCH  42  43
HETATM   43  C   UNL     1      -7.472  17.659  68.030  1.00  0.00    -0.223 C  
HETATM   44  C   UNL     1      -6.845  16.601  68.911  1.00  0.00    -0.191 C  
HETATM   45  F   UNL     1      -5.793  16.024  68.283  1.00  0.00    -0.095 F  
HETATM   46  F   UNL     1      -7.704  15.619  69.249  1.00  0.00    -0.161 F  
HETATM   47  F   UNL     1      -6.374  17.146  70.054  1.00  0.00    -0.238 F  
ENDBRANCH  42  43
ENDBRANCH  41  42
ENDBRANCH  14  41
ENDBRANCH   5   7
ENDBRANCH   4   5
ENDBRANCH   3   4
ENDBRANCH   2   3
TORSDOF 12
ENDMDL
MODEL      106
REMARK 921   NORMALIZED FREE ENERGY PREDICTED BY IDOCK:   -4.89 KCAL/MOL
REMARK 922        TOTAL FREE ENERGY PREDICTED BY IDOCK:   -9.33 KCAL/MOL
REMARK 923 INTER-LIGAND FREE ENERGY PREDICTED BY IDOCK:   -9.00 KCAL/MOL
REMARK 924 INTRA-LIGAND FREE ENERGY PREDICTED BY IDOCK:   -0.33 KCAL/MOL
REMARK 927      BINDING AFFINITY PREDICTED BY RF-SCORE:    0.00 PKD
ROOT
HETATM    1  C   UNL     1     -11.661  15.774  68.809  1.00  0.00    -0.378 C  
HETATM    2  S   UNL     1     -10.763  15.362  67.296  1.00  0.00    -0.309 SA 
ENDROOT
BRANCH   2   3
HETATM    3  C   UNL     1     -12.054  14.388  66.432  1.00  0.00    -0.369 C  
BRANCH   3   4
HETATM    4  C   UNL     1     -11.536  13.003  65.991  1.00  0.00    -0.365 C  
BRANCH   4   5
HETATM    5  N   UNL     1     -11.980  11.970  66.910  1.00  0.00    -0.609 NA 
HETATM    6  H   UNL     1     -12.978  11.837  67.074  1.00  0.00     0.000 HD 
BRANCH   5   7
HETATM    7  C   UNL     1     -11.068  11.163  67.568  1.00  0.00    -0.291 A  
HETATM    8  C   UNL     1     -11.319  10.731  68.880  1.00  0.00    -0.284 A  
HETATM    9  N   UNL     1     -12.396  10.922  69.724  1.00  0.00    -0.310 NA 
HETATM   10  C   UNL     1     -12.113  10.208  70.802  1.00  0.00    -0.343 A  
HETATM   11  N   UNL     1     -10.884   9.589  70.701  1.00  0.00    -0.280 NA 
HETATM   12  C   UNL     1     -10.371   9.914  69.478  1.00  0.00    -0.229 A  
HETATM   13  N   UNL     1      -9.902  10.766  66.980  1.00  0.00    -0.183 NA 
HETATM   14  C   UNL     1      -9.044  10.006  67.692  1.00  0.00    -0.134 A  
HETATM   15  N   UNL     1      -9.213   9.522  68.945  1.00  0.00    -0.142 NA 
BRANCH  11  16
HETATM   16  C   UNL     1     -10.389   8.618  71.652  1.00  0.00    -0.296 C  
HETATM   17  O   UNL     1      -9.725   7.586  70.911  1.00  0.00    -0.173 OA 
HETATM   18  C   UNL     1     -10.558   6.415  70.862  1.00  0.00    -0.236 C  
HETATM   19  H   UNL     1     -11.258   7.010  74.389  1.00  0.00     0.000 HD 
HETATM   20  O   UNL     1     -10.665   7.470  73.807  1.00  0.00    -0.315 OA 
HETATM   21  C   UNL     1     -11.719   6.620  71.829  1.00  0.00    -0.318 C  
HETATM   22  H   UNL     1     -12.555   5.606  73.293  1.00  0.00     0.000 HD 
HETATM   23  C   UNL     1     -11.348   7.874  72.594  1.00  0.00    -0.408 C  
HETATM   24  O   UNL     1     -11.832   5.479  72.691  1.00  0.00    -0.274 OA 
BRANCH  18  25
HETATM   25  C   UNL     1     -11.055   6.126  69.444  1.00  0.00    -0.409 C  
BRANCH  25  26
HETATM   26  O   UNL     1     -10.294   5.014  68.971  1.00  0.00    -0.179 OA 
BRANCH  26  27
HETATM   27  P   UNL     1      -9.598   5.222  67.540  1.00  0.00    -0.152 P  
HETATM   28  O   UNL     1     -10.781   6.074  66.842  1.00  0.00    -0.286 OA 
HETATM   29  O   UNL     1      -8.278   5.934  67.538  1.00  0.00    -0.105 OA 
BRANCH  27  30
HETATM   30  O   UNL     1      -9.539   3.718  66.905  1.00  0.00    -0.205 OA 
HETATM   31  P   UNL     1      -9.099   3.600  65.237  1.00  0.00    -0.159 P  
HETATM   32  C   UNL     1      -8.632   3.475  63.471  1.00  0.00    -0.090 C  
HETATM   33  O   UNL     1     -10.652   4.017  64.865  1.00  0.00    -0.223 OA 
HETATM   34  O   UNL     1      -8.267   4.907  65.310  1.00  0.00    -0.114 OA 
HETATM   35 CL   UNL     1      -9.097   4.960  62.510  1.00  0.00    -0.106 Cl 
HETATM   36  P   UNL     1      -6.808   3.443  63.323  1.00  0.00    -0.037 P  
HETATM   37 CL   UNL     1      -9.551   2.120  62.734  1.00  0.00    -0.090 Cl 
HETATM   38  O   UNL     1      -6.859   1.800  63.117  1.00  0.00    -0.021 OA 
HETATM   39  O   UNL     1      -6.640   3.200  64.957  1.00  0.00    -0.037 OA 
HETATM   40  O   UNL     1      -5.265   3.415  63.197  1.00  0.00    -0.007 OA 
ENDBRANCH  27  30
ENDBRANCH  26  27
ENDBRANCH  25  26
ENDBRANCH  18  25
ENDBRANCH  11  16
BRANCH  14  41
HETATM   41  S   UNL     1      -7.489   9.568  66.946  1.00  0.00    -0.094 SA 
BRANCH  41  42
HETATM   42  C   UNL     1      -6.741   8.592  68.294  1.00  0.00    -0.065 C  
BRANCH  42  43
HETATM   43  C   UNL     1      -5.701   9.457  68.995  1.00  0.00    -0.036 C  
HETATM   44  C   UNL     1      -6.137   9.853  70.389  1.00  0.00    -0.082 C  
HETATM   45  F   UNL     1      -5.206   9.481  71.300  1.00  0.00    -0.035 F  
HETATM   46  F   UNL     1      -7.308   9.297  70.754  1.00  0.00    -0.081 F  
HETATM   47  F   UNL     1      -6.272  11.195  70.486  1.00  0.00    -0.140 F  
ENDBRANCH  42  43
ENDBRANCH  41  42
ENDBRANCH  14  41
ENDBRANCH   5   7
ENDBRANCH   4   5
ENDBRANCH   3   4
ENDBRANCH   2   3
TORSDOF 12
ENDMDL
MODEL      107
REMARK 921   NORMALIZED FREE ENERGY PREDICTED BY IDOCK:   -4.89 KCAL/MOL
REMARK 922        TOTAL FREE ENERGY PREDICTED BY IDOCK:   -9.32 KCAL/MOL
REMARK 923 INTER-LIGAND FREE ENERGY PREDICTED BY IDOCK:   -8.74 KCAL/MOL
REMARK 924 INTRA-LIGAND FREE ENERGY PREDICTED BY IDOCK:   -0.58 KCAL/MOL
REMARK 927      BINDING AFFINITY PREDICTED BY RF-SCORE:    0.00 PKD
ROOT
HETATM    1  C   UNL     1     -11.631   5.466  72.690  1.00  0.00    -0.203 C  
HETATM    2  S   UNL     1     -10.328   5.311  73.933  1.00  0.00    -0.277 SA 
ENDROOT
BRANCH   2   3
HETATM    3  C   UNL     1      -8.859   5.561  72.866  1.00  0.00    -0.117 C  
BRANCH   3   4
HETATM    4  C   UNL     1      -9.098   5.061  71.425  1.00  0.00    -0.143 C  
BRANCH   4   5
HETATM    5  N   UNL     1      -8.333   5.848  70.473  1.00  0.00    -0.121 NA 
HETATM    6  H   UNL     1      -7.378   5.571  70.244  1.00  0.00     0.000 HD 
BRANCH   5   7
HETATM    7  C   UNL     1      -8.882   6.967  69.872  1.00  0.00    -0.142 A  
HETATM    8  C   UNL     1      -8.414   7.403  68.622  1.00  0.00    -0.129 A  
HETATM    9  N   UNL     1      -7.462   6.888  67.763  1.00  0.00    -0.096 NA 
HETATM   10  C   UNL     1      -7.509   7.672  66.697  1.00  0.00    -0.093 A  
HETATM   11  N   UNL     1      -8.430   8.688  66.845  1.00  0.00    -0.111 NA 
HETATM   12  C   UNL     1      -9.014   8.524  68.068  1.00  0.00    -0.141 A  
HETATM   13  N   UNL     1      -9.880   7.686  70.463  1.00  0.00    -0.183 NA 
HETATM   14  C   UNL     1     -10.345   8.785  69.834  1.00  0.00    -0.206 A  
HETATM   15  N   UNL     1      -9.976   9.263  68.622  1.00  0.00    -0.173 NA 
BRANCH  11  16
HETATM   16  C   UNL     1      -8.813   9.592  65.782  1.00  0.00    -0.157 C  
HETATM   17  O   UNL     1      -7.776  10.573  65.654  1.00  0.00    -0.148 OA 
HETATM   18  C   UNL     1      -8.213  11.815  66.230  1.00  0.00     0.070 C  
HETATM   19  H   UNL     1     -11.414  11.219  64.591  1.00  0.00     0.000 HD 
HETATM   20  O   UNL     1     -10.608  10.719  64.539  1.00  0.00    -0.336 OA 
HETATM   21  C   UNL     1      -9.703  11.699  66.531  1.00  0.00    -0.206 C  
HETATM   22  H   UNL     1     -11.322  12.756  66.168  1.00  0.00     0.000 HD 
HETATM   23  C   UNL     1     -10.116  10.402  65.866  1.00  0.00    -0.261 C  
HETATM   24  O   UNL     1     -10.394  12.829  65.980  1.00  0.00    -0.265 OA 
BRANCH  18  25
HETATM   25  C   UNL     1      -7.415  12.175  67.484  1.00  0.00    -0.148 C  
BRANCH  25  26
HETATM   26  O   UNL     1      -8.131  13.232  68.126  1.00  0.00    -0.140 OA 
BRANCH  26  27
HETATM   27  P   UNL     1      -7.388  14.654  68.134  1.00  0.00    -0.162 P  
HETATM   28  O   UNL     1      -8.150  15.293  69.408  1.00  0.00    -0.218 OA 
HETATM   29  O   UNL     1      -5.897  14.626  68.291  1.00  0.00    -0.098 OA 
BRANCH  27  30
HETATM   30  O   UNL     1      -7.894  15.374  66.757  1.00  0.00    -0.201 OA 
HETATM   31  P   UNL     1      -8.485  16.993  66.904  1.00  0.00    -0.254 P  
HETATM   32  C   UNL     1      -9.110  18.707  67.060  1.00  0.00    -0.291 C  
HETATM   33  O   UNL     1      -9.908  16.355  67.445  1.00  0.00    -0.237 OA 
HETATM   34  O   UNL     1      -7.591  17.262  68.143  1.00  0.00    -0.197 OA 
HETATM   35 CL   UNL     1      -9.832  19.050  68.704  1.00  0.00    -0.451 Cl 
HETATM   36  P   UNL     1      -7.706  19.878  66.974  1.00  0.00    -0.304 P  
HETATM   37 CL   UNL     1     -10.453  18.932  65.890  1.00  0.00    -0.506 Cl 
HETATM   38  O   UNL     1      -8.080  20.203  65.393  1.00  0.00    -0.162 OA 
HETATM   39  O   UNL     1      -6.685  18.677  66.451  1.00  0.00    -0.189 OA 
HETATM   40  O   UNL     1      -6.519  20.869  66.901  1.00  0.00    -0.253 OA 
ENDBRANCH  27  30
ENDBRANCH  26  27
ENDBRANCH  25  26
ENDBRANCH  18  25
ENDBRANCH  11  16
BRANCH  14  41
HETATM   41  S   UNL     1     -11.586   9.763  70.655  1.00  0.00    -0.329 SA 
BRANCH  41  42
HETATM   42  C   UNL     1     -11.077  11.438  70.140  1.00  0.00     0.146 C  
BRANCH  42  43
HETATM   43  C   UNL     1     -12.303  12.173  69.614  1.00  0.00    -0.065 C  
HETATM   44  C   UNL     1     -12.052  13.656  69.454  1.00  0.00    -0.314 C  
HETATM   45  F   UNL     1     -12.320  14.048  68.185  1.00  0.00    -0.385 F  
HETATM   46  F   UNL     1     -10.782  14.010  69.729  1.00  0.00    -0.159 F  
HETATM   47  F   UNL     1     -12.862  14.370  70.267  1.00  0.00    -0.385 F  
ENDBRANCH  42  43
ENDBRANCH  41  42
ENDBRANCH  14  41
ENDBRANCH   5   7
ENDBRANCH   4   5
ENDBRANCH   3   4
ENDBRANCH   2   3
TORSDOF 12
ENDMDL
MODEL      108
REMARK 921   NORMALIZED FREE ENERGY PREDICTED BY IDOCK:   -4.88 KCAL/MOL
REMARK 922        TOTAL FREE ENERGY PREDICTED BY IDOCK:   -9.31 KCAL/MOL
REMARK 923 INTER-LIGAND FREE ENERGY PREDICTED BY IDOCK:   -8.10 KCAL/MOL
REMARK 924 INTRA-LIGAND FREE ENERGY PREDICTED BY IDOCK:   -1.21 KCAL/MOL
REMARK 927      BINDING AFFINITY PREDICTED BY RF-SCORE:    0.00 PKD
ROOT
HETATM    1  C   UNL     1     -10.440  19.074  66.576  1.00  0.00    -0.443 C  
HETATM    2  S   UNL     1      -8.773  19.739  66.367  1.00  0.00    -0.360 SA 
ENDROOT
BRANCH   2   3
HETATM    3  C   UNL     1      -8.136  19.503  68.070  1.00  0.00    -0.312 C  
BRANCH   3   4
HETATM    4  C   UNL     1      -7.178  18.297  68.167  1.00  0.00    -0.249 C  
BRANCH   4   5
HETATM    5  N   UNL     1      -7.648  17.197  67.342  1.00  0.00    -0.163 NA 
HETATM    6  H   UNL     1      -7.600  17.274  66.327  1.00  0.00     0.000 HD 
BRANCH   5   7
HETATM    7  C   UNL     1      -8.159  16.046  67.916  1.00  0.00    -0.141 A  
HETATM    8  C   UNL     1      -7.434  14.845  67.866  1.00  0.00    -0.141 A  
HETATM    9  N   UNL     1      -6.187  14.542  67.356  1.00  0.00    -0.313 NA 
HETATM   10  C   UNL     1      -5.991  13.271  67.673  1.00  0.00    -0.120 A  
HETATM   11  N   UNL     1      -7.072  12.734  68.340  1.00  0.00    -0.094 NA 
HETATM   12  C   UNL     1      -7.996  13.731  68.471  1.00  0.00    -0.131 A  
HETATM   13  N   UNL     1      -9.375  16.030  68.537  1.00  0.00    -0.206 NA 
HETATM   14  C   UNL     1      -9.825  14.864  69.046  1.00  0.00    -0.220 A  
HETATM   15  N   UNL     1      -9.187  13.670  69.069  1.00  0.00     0.195 NA 
BRANCH  11  16
HETATM   16  C   UNL     1      -7.074  11.423  68.952  1.00  0.00    -0.109 C  
HETATM   17  O   UNL     1      -6.141  10.608  68.232  1.00  0.00    -0.047 OA 
HETATM   18  C   UNL     1      -6.853   9.695  67.381  1.00  0.00    -0.083 C  
HETATM   19  H   UNL     1      -9.115   9.156  70.187  1.00  0.00     0.000 HD 
HETATM   20  O   UNL     1      -8.319   9.674  70.146  1.00  0.00    -0.173 OA 
HETATM   21  C   UNL     1      -8.331   9.759  67.750  1.00  0.00    -0.114 C  
HETATM   22  H   UNL     1      -9.751   8.471  68.192  1.00  0.00     0.000 HD 
HETATM   23  C   UNL     1      -8.361  10.586  69.019  1.00  0.00    -0.154 C  
HETATM   24  O   UNL     1      -8.830   8.432  67.962  1.00  0.00    -0.140 OA 
BRANCH  18  25
HETATM   25  C   UNL     1      -6.633  10.005  65.899  1.00  0.00    -0.098 C  
BRANCH  25  26
HETATM   26  O   UNL     1      -7.492   9.126  65.173  1.00  0.00    -0.094 OA 
BRANCH  26  27
HETATM   27  P   UNL     1      -7.919   9.638  63.713  1.00  0.00    -0.167 P  
HETATM   28  O   UNL     1      -6.534   9.307  62.949  1.00  0.00    -0.094 OA 
HETATM   29  O   UNL     1      -9.109   8.968  63.094  1.00  0.00    -0.021 OA 
BRANCH  27  30
HETATM   30  O   UNL     1      -8.088  11.253  63.893  1.00  0.00     0.470 OA 
HETATM   31  P   UNL     1      -9.697  11.839  64.141  1.00  0.00    -0.041 P  
HETATM   32  C   UNL     1     -11.399  12.459  64.404  1.00  0.00    -0.340 C  
HETATM   33  O   UNL     1      -9.929  11.696  62.513  1.00  0.00     0.029 OA 
HETATM   34  O   UNL     1     -10.138  10.504  64.796  1.00  0.00    -0.318 OA 
HETATM   35 CL   UNL     1     -12.667  11.389  63.636  1.00  0.00     0.022 Cl 
HETATM   36  P   UNL     1     -11.811  12.372  66.185  1.00  0.00    -0.188 P  
HETATM   37 CL   UNL     1     -11.557  14.051  63.590  1.00  0.00     0.057 Cl 
HETATM   38  O   UNL     1     -11.518  13.997  66.326  1.00  0.00    -0.330 OA 
HETATM   39  O   UNL     1     -10.224  12.085  66.579  1.00  0.00    -0.202 OA 
HETATM   40  O   UNL     1     -12.160  12.300  67.692  1.00  0.00    -0.502 OA 
ENDBRANCH  27  30
ENDBRANCH  26  27
ENDBRANCH  25  26
ENDBRANCH  18  25
ENDBRANCH  11  16
BRANCH  14  41
HETATM   41  S   UNL     1     -11.448  14.836  69.776  1.00  0.00    -0.306 SA 
BRANCH  41  42
HETATM   42  C   UNL     1     -11.072  15.486  71.439  1.00  0.00    -0.254 C  
BRANCH  42  43
HETATM   43  C   UNL     1     -12.319  16.173  71.981  1.00  0.00    -0.475 C  
HETATM   44  C   UNL     1     -12.749  15.601  73.314  1.00  0.00    -0.510 C  
HETATM   45  F   UNL     1     -12.834  16.581  74.245  1.00  0.00    -0.481 F  
HETATM   46  F   UNL     1     -11.902  14.666  73.786  1.00  0.00    -0.369 F  
HETATM   47  F   UNL     1     -13.973  15.036  73.221  1.00  0.00    -0.366 F  
ENDBRANCH  42  43
ENDBRANCH  41  42
ENDBRANCH  14  41
ENDBRANCH   5   7
ENDBRANCH   4   5
ENDBRANCH   3   4
ENDBRANCH   2   3
TORSDOF 12
ENDMDL
MODEL      109
REMARK 921   NORMALIZED FREE ENERGY PREDICTED BY IDOCK:   -4.85 KCAL/MOL
REMARK 922        TOTAL FREE ENERGY PREDICTED BY IDOCK:   -9.26 KCAL/MOL
REMARK 923 INTER-LIGAND FREE ENERGY PREDICTED BY IDOCK:   -8.98 KCAL/MOL
REMARK 924 INTRA-LIGAND FREE ENERGY PREDICTED BY IDOCK:   -0.28 KCAL/MOL
REMARK 927      BINDING AFFINITY PREDICTED BY RF-SCORE:    0.00 PKD
ROOT
HETATM    1  C   UNL     1      -9.619  20.079  69.813  1.00  0.00     0.445 C  
HETATM    2  S   UNL     1      -9.388  20.283  68.033  1.00  0.00    -0.107 SA 
ENDROOT
BRANCH   2   3
HETATM    3  C   UNL     1     -10.909  19.457  67.432  1.00  0.00    -0.440 C  
BRANCH   3   4
HETATM    4  C   UNL     1     -10.660  18.656  66.136  1.00  0.00    -0.363 C  
BRANCH   4   5
HETATM    5  N   UNL     1      -9.331  18.068  66.141  1.00  0.00    -0.503 NA 
HETATM    6  H   UNL     1      -8.542  18.607  65.787  1.00  0.00     0.000 HD 
BRANCH   5   7
HETATM    7  C   UNL     1      -9.123  16.786  66.617  1.00  0.00    -0.249 A  
HETATM    8  C   UNL     1      -7.821  16.324  66.867  1.00  0.00    -0.243 A  
HETATM    9  N   UNL     1      -6.589  16.941  66.767  1.00  0.00    -0.211 NA 
HETATM   10  C   UNL     1      -5.724  16.044  67.216  1.00  0.00    -0.018 A  
HETATM   11  N   UNL     1      -6.343  14.865  67.572  1.00  0.00    -0.314 NA 
HETATM   12  C   UNL     1      -7.681  15.034  67.356  1.00  0.00    -0.200 A  
HETATM   13  N   UNL     1     -10.158  15.928  66.854  1.00  0.00    -0.259 NA 
HETATM   14  C   UNL     1      -9.879  14.681  67.288  1.00  0.00    -0.231 A  
HETATM   15  N   UNL     1      -8.664  14.160  67.581  1.00  0.00    -0.175 NA 
BRANCH  11  16
HETATM   16  C   UNL     1      -5.675  13.773  68.246  1.00  0.00    -0.109 C  
HETATM   17  O   UNL     1      -5.451  12.739  67.279  1.00  0.00    -0.299 OA 
HETATM   18  C   UNL     1      -6.391  11.672  67.487  1.00  0.00    -0.087 C  
HETATM   19  H   UNL     1      -5.727  12.053  71.051  1.00  0.00     0.000 HD 
HETATM   20  O   UNL     1      -5.322  12.492  70.313  1.00  0.00    -0.097 OA 
HETATM   21  C   UNL     1      -7.103  11.921  68.813  1.00  0.00    -0.111 C  
HETATM   22  H   UNL     1      -7.495  10.887  70.441  1.00  0.00     0.000 HD 
HETATM   23  C   UNL     1      -6.330  13.062  69.440  1.00  0.00    -0.111 C  
HETATM   24  O   UNL     1      -7.052  10.733  69.615  1.00  0.00    -0.129 OA 
BRANCH  18  25
HETATM   25  C   UNL     1      -7.386  11.552  66.332  1.00  0.00     0.059 C  
BRANCH  25  26
HETATM   26  O   UNL     1      -8.666  11.332  66.926  1.00  0.00    -0.147 OA 
BRANCH  26  27
HETATM   27  P   UNL     1      -9.554  10.191  66.231  1.00  0.00    -0.220 P  
HETATM   28  O   UNL     1     -10.159  11.084  65.028  1.00  0.00    -0.257 OA 
HETATM   29  O   UNL     1      -8.820   8.974  65.751  1.00  0.00    -0.156 OA 
BRANCH  27  30
HETATM   30  O   UNL     1     -10.719   9.868  67.331  1.00  0.00    -0.266 OA 
HETATM   31  P   UNL     1     -10.423   8.546  68.406  1.00  0.00    -0.067 P  
HETATM   32  C   UNL     1     -10.108   7.147  69.544  1.00  0.00    -0.179 C  
HETATM   33  O   UNL     1     -10.882   7.536  67.184  1.00  0.00    -0.324 OA 
HETATM   34  O   UNL     1      -8.886   8.739  68.302  1.00  0.00    -0.140 OA 
HETATM   35 CL   UNL     1      -9.031   5.866  68.808  1.00  0.00    -0.117 Cl 
HETATM   36  P   UNL     1      -9.132   7.734  70.977  1.00  0.00    -0.149 P  
HETATM   37 CL   UNL     1     -11.669   6.326  69.881  1.00  0.00    -0.384 Cl 
HETATM   38  O   UNL     1     -10.513   7.779  71.892  1.00  0.00    -0.209 OA 
HETATM   39  O   UNL     1      -9.397   9.319  70.559  1.00  0.00    -0.225 OA 
HETATM   40  O   UNL     1      -8.307   8.230  72.189  1.00  0.00    -0.145 OA 
ENDBRANCH  27  30
ENDBRANCH  26  27
ENDBRANCH  25  26
ENDBRANCH  18  25
ENDBRANCH  11  16
BRANCH  14  41
HETATM   41  S   UNL     1     -11.230  13.545  67.511  1.00  0.00    -0.296 SA 
BRANCH  41  42
HETATM   42  C   UNL     1     -11.060  13.175  69.289  1.00  0.00    -0.145 C  
BRANCH  42  43
HETATM   43  C   UNL     1     -12.276  13.733  70.016  1.00  0.00    -0.407 C  
HETATM   44  C   UNL     1     -11.950  14.994  70.785  1.00  0.00    -0.318 C  
HETATM   45  F   UNL     1     -12.768  16.005  70.407  1.00  0.00    -0.398 F  
HETATM   46  F   UNL     1     -10.681  15.409  70.606  1.00  0.00    -0.310 F  
HETATM   47  F   UNL     1     -12.137  14.810  72.111  1.00  0.00    -0.372 F  
ENDBRANCH  42  43
ENDBRANCH  41  42
ENDBRANCH  14  41
ENDBRANCH   5   7
ENDBRANCH   4   5
ENDBRANCH   3   4
ENDBRANCH   2   3
TORSDOF 12
ENDMDL
MODEL      110
REMARK 921   NORMALIZED FREE ENERGY PREDICTED BY IDOCK:   -4.85 KCAL/MOL
REMARK 922        TOTAL FREE ENERGY PREDICTED BY IDOCK:   -9.26 KCAL/MOL
REMARK 923 INTER-LIGAND FREE ENERGY PREDICTED BY IDOCK:   -8.68 KCAL/MOL
REMARK 924 INTRA-LIGAND FREE ENERGY PREDICTED BY IDOCK:   -0.58 KCAL/MOL
REMARK 927      BINDING AFFINITY PREDICTED BY RF-SCORE:    0.00 PKD
ROOT
HETATM    1  C   UNL     1      -8.124   7.052  65.164  1.00  0.00    -0.124 C  
HETATM    2  S   UNL     1      -6.866   5.952  64.477  1.00  0.00    -0.052 SA 
ENDROOT
BRANCH   2   3
HETATM    3  C   UNL     1      -7.520   4.342  65.059  1.00  0.00    -0.073 C  
BRANCH   3   4
HETATM    4  C   UNL     1      -8.899   4.021  64.445  1.00  0.00    -0.129 C  
BRANCH   4   5
HETATM    5  N   UNL     1      -9.737   3.314  65.398  1.00  0.00    -0.363 NA 
HETATM    6  H   UNL     1     -10.418   2.634  65.061  1.00  0.00     0.000 HD 
BRANCH   5   7
HETATM    7  C   UNL     1      -9.624   3.551  66.757  1.00  0.00    -0.112 A  
HETATM    8  C   UNL     1     -10.158   4.720  67.320  1.00  0.00    -0.146 A  
HETATM    9  N   UNL     1     -10.872   5.767  66.769  1.00  0.00    -0.293 NA 
HETATM   10  C   UNL     1     -11.184   6.542  67.796  1.00  0.00    -0.161 A  
HETATM   11  N   UNL     1     -10.676   6.055  68.982  1.00  0.00    -0.292 NA 
HETATM   12  C   UNL     1     -10.022   4.892  68.690  1.00  0.00    -0.125 A  
HETATM   13  N   UNL     1      -8.991   2.674  67.591  1.00  0.00    -0.145 NA 
HETATM   14  C   UNL     1      -8.890   2.985  68.899  1.00  0.00    -0.105 A  
HETATM   15  N   UNL     1      -9.395   4.070  69.533  1.00  0.00    -0.156 NA 
BRANCH  11  16
HETATM   16  C   UNL     1     -10.996   6.601  70.283  1.00  0.00    -0.303 C  
HETATM   17  O   UNL     1     -11.459   7.943  70.088  1.00  0.00    -0.168 OA 
HETATM   18  C   UNL     1     -10.430   8.869  70.473  1.00  0.00    -0.215 C  
HETATM   19  H   UNL     1      -9.872   6.733  73.373  1.00  0.00     0.000 HD 
HETATM   20  O   UNL     1     -10.534   6.667  72.695  1.00  0.00    -0.198 OA 
HETATM   21  C   UNL     1      -9.331   8.087  71.184  1.00  0.00    -0.149 C  
HETATM   22  H   UNL     1      -8.337   8.233  72.875  1.00  0.00     0.000 HD 
HETATM   23  C   UNL     1      -9.925   6.707  71.380  1.00  0.00    -0.183 C  
HETATM   24  O   UNL     1      -9.021   8.721  72.432  1.00  0.00    -0.379 OA 
BRANCH  18  25
HETATM   25  C   UNL     1      -9.879   9.644  69.274  1.00  0.00    -0.189 C  
BRANCH  25  26
HETATM   26  O   UNL     1     -10.054  11.028  69.577  1.00  0.00    -0.110 OA 
BRANCH  26  27
HETATM   27  P   UNL     1      -9.931  12.022  68.323  1.00  0.00    -0.185 P  
HETATM   28  O   UNL     1      -8.325  11.961  68.151  1.00  0.00    -0.146 OA 
HETATM   29  O   UNL     1     -10.673  11.624  67.081  1.00  0.00    -0.225 OA 
BRANCH  27  30
HETATM   30  O   UNL     1     -10.377  13.475  68.922  1.00  0.00    -0.198 OA 
HETATM   31  P   UNL     1      -9.680  14.869  68.171  1.00  0.00    -0.224 P  
HETATM   32  C   UNL     1      -8.943  16.343  67.375  1.00  0.00    -0.191 C  
HETATM   33  O   UNL     1      -8.319  14.586  69.061  1.00  0.00    -0.140 OA 
HETATM   34  O   UNL     1      -9.519  14.123  66.819  1.00  0.00    -0.258 OA 
HETATM   35 CL   UNL     1      -7.294  16.009  66.657  1.00  0.00    -0.188 Cl 
HETATM   36  P   UNL     1      -9.941  16.811  65.914  1.00  0.00    -0.166 P  
HETATM   37 CL   UNL     1      -8.672  17.594  68.634  1.00  0.00    -0.289 Cl 
HETATM   38  O   UNL     1     -10.658  18.016  66.798  1.00  0.00    -0.344 OA 
HETATM   39  O   UNL     1     -11.167  15.790  66.375  1.00  0.00    -0.148 OA 
HETATM   40  O   UNL     1     -10.786  17.208  64.679  1.00  0.00    -0.852 OA 
ENDBRANCH  27  30
ENDBRANCH  26  27
ENDBRANCH  25  26
ENDBRANCH  18  25
ENDBRANCH  11  16
BRANCH  14  41
HETATM   41  S   UNL     1      -7.989   1.877  69.961  1.00  0.00    -0.041 SA 
BRANCH  41  42
HETATM   42  C   UNL     1      -8.178   2.729  71.563  1.00  0.00    -0.063 C  
BRANCH  42  43
HETATM   43  C   UNL     1      -8.971   1.825  72.499  1.00  0.00    -0.085 C  
HETATM   44  C   UNL     1     -10.302   2.432  72.884  1.00  0.00    -0.154 C  
HETATM   45  F   UNL     1     -11.315   1.585  72.580  1.00  0.00    -0.245 F  
HETATM   46  F   UNL     1     -10.550   3.601  72.261  1.00  0.00    -0.224 F  
HETATM   47  F   UNL     1     -10.360   2.657  74.215  1.00  0.00    -0.148 F  
ENDBRANCH  42  43
ENDBRANCH  41  42
ENDBRANCH  14  41
ENDBRANCH   5   7
ENDBRANCH   4   5
ENDBRANCH   3   4
ENDBRANCH   2   3
TORSDOF 12
ENDMDL
MODEL      111
REMARK 921   NORMALIZED FREE ENERGY PREDICTED BY IDOCK:   -4.84 KCAL/MOL
REMARK 922        TOTAL FREE ENERGY PREDICTED BY IDOCK:   -9.25 KCAL/MOL
REMARK 923 INTER-LIGAND FREE ENERGY PREDICTED BY IDOCK:   -9.38 KCAL/MOL
REMARK 924 INTRA-LIGAND FREE ENERGY PREDICTED BY IDOCK:    0.13 KCAL/MOL
REMARK 927      BINDING AFFINITY PREDICTED BY RF-SCORE:    0.00 PKD
ROOT
HETATM    1  C   UNL     1     -14.245   9.045  71.200  1.00  0.00     0.044 C  
HETATM    2  S   UNL     1     -12.558   9.538  71.621  1.00  0.00    -0.416 SA 
ENDROOT
BRANCH   2   3
HETATM    3  C   UNL     1     -11.760   7.888  71.658  1.00  0.00    -0.281 C  
BRANCH   3   4
HETATM    4  C   UNL     1     -12.025   7.088  70.365  1.00  0.00    -0.207 C  
BRANCH   4   5
HETATM    5  N   UNL     1     -10.995   6.085  70.160  1.00  0.00    -0.341 NA 
HETATM    6  H   UNL     1     -11.056   5.193  70.651  1.00  0.00     0.000 HD 
BRANCH   5   7
HETATM    7  C   UNL     1      -9.931   6.322  69.307  1.00  0.00    -0.155 A  
HETATM    8  C   UNL     1     -10.021   7.316  68.320  1.00  0.00    -0.160 A  
HETATM    9  N   UNL     1     -11.018   8.220  68.009  1.00  0.00     0.084 NA 
HETATM   10  C   UNL     1     -10.510   8.966  67.041  1.00  0.00    -0.256 A  
HETATM   11  N   UNL     1      -9.238   8.563  66.694  1.00  0.00    -0.165 NA 
HETATM   12  C   UNL     1      -8.915   7.513  67.505  1.00  0.00    -0.126 A  
HETATM   13  N   UNL     1      -8.772   5.606  69.384  1.00  0.00    -0.108 NA 
HETATM   14  C   UNL     1      -7.788   5.870  68.500  1.00  0.00    -0.102 A  
HETATM   15  N   UNL     1      -7.775   6.822  67.537  1.00  0.00    -0.108 NA 
BRANCH  11  16
HETATM   16  C   UNL     1      -8.378   9.293  65.788  1.00  0.00    -0.123 C  
HETATM   17  O   UNL     1      -8.546  10.689  66.061  1.00  0.00    -0.160 OA 
HETATM   18  C   UNL     1      -9.350  11.289  65.033  1.00  0.00    -0.178 C  
HETATM   19  H   UNL     1      -7.393   9.349  62.648  1.00  0.00     0.000 HD 
HETATM   20  O   UNL     1      -7.290   9.428  63.589  1.00  0.00    -0.102 OA 
HETATM   21  C   UNL     1      -9.510  10.276  63.905  1.00  0.00    -0.302 C  
HETATM   22  H   UNL     1      -9.274  10.262  61.952  1.00  0.00     0.000 HD 
HETATM   23  C   UNL     1      -8.545   9.165  64.265  1.00  0.00    -0.175 C  
HETATM   24  O   UNL     1      -9.175  10.893  62.654  1.00  0.00    -0.284 OA 
BRANCH  18  25
HETATM   25  C   UNL     1     -10.708  11.751  65.566  1.00  0.00    -0.279 C  
BRANCH  25  26
HETATM   26  O   UNL     1     -10.545  13.118  65.948  1.00  0.00    -0.273 OA 
BRANCH  26  27
HETATM   27  P   UNL     1     -11.020  13.471  67.439  1.00  0.00    -0.284 P  
HETATM   28  O   UNL     1     -12.280  12.462  67.514  1.00  0.00    -0.442 OA 
HETATM   29  O   UNL     1     -10.016  13.244  68.530  1.00  0.00    -0.234 OA 
BRANCH  27  30
HETATM   30  O   UNL     1     -11.544  15.015  67.334  1.00  0.00    -0.348 OA 
HETATM   31  P   UNL     1     -10.392  16.250  67.712  1.00  0.00    -0.300 P  
HETATM   32  C   UNL     1      -9.173  17.555  68.111  1.00  0.00    -0.277 C  
HETATM   33  O   UNL     1     -10.687  15.945  69.307  1.00  0.00    -0.222 OA 
HETATM   34  O   UNL     1      -9.207  15.350  67.274  1.00  0.00    -0.199 OA 
HETATM   35 CL   UNL     1      -7.905  16.998  69.304  1.00  0.00    -0.084 Cl 
HETATM   36  P   UNL     1      -8.190  17.949  66.618  1.00  0.00    -0.264 P  
HETATM   37 CL   UNL     1     -10.032  18.908  68.922  1.00  0.00    -0.459 Cl 
HETATM   38  O   UNL     1      -9.114  19.303  66.374  1.00  0.00    -0.332 OA 
HETATM   39  O   UNL     1      -9.241  17.099  65.653  1.00  0.00    -0.509 OA 
HETATM   40  O   UNL     1      -7.359  18.283  65.355  1.00  0.00    -0.531 OA 
ENDBRANCH  27  30
ENDBRANCH  26  27
ENDBRANCH  25  26
ENDBRANCH  18  25
ENDBRANCH  11  16
BRANCH  14  41
HETATM   41  S   UNL     1      -6.316   4.871  68.555  1.00  0.00    -0.037 SA 
BRANCH  41  42
HETATM   42  C   UNL     1      -6.569   3.829  67.079  1.00  0.00    -0.045 C  
BRANCH  42  43
HETATM   43  C   UNL     1      -7.637   2.791  67.400  1.00  0.00    -0.065 C  
HETATM   44  C   UNL     1      -8.917   3.036  66.633  1.00  0.00    -0.157 C  
HETATM   45  F   UNL     1      -9.263   1.935  65.924  1.00  0.00    -0.127 F  
HETATM   46  F   UNL     1      -8.827   4.064  65.768  1.00  0.00    -0.114 F  
HETATM   47  F   UNL     1      -9.939   3.299  67.478  1.00  0.00    -0.177 F  
ENDBRANCH  42  43
ENDBRANCH  41  42
ENDBRANCH  14  41
ENDBRANCH   5   7
ENDBRANCH   4   5
ENDBRANCH   3   4
ENDBRANCH   2   3
TORSDOF 12
ENDMDL
MODEL      112
REMARK 921   NORMALIZED FREE ENERGY PREDICTED BY IDOCK:   -4.84 KCAL/MOL
REMARK 922        TOTAL FREE ENERGY PREDICTED BY IDOCK:   -9.24 KCAL/MOL
REMARK 923 INTER-LIGAND FREE ENERGY PREDICTED BY IDOCK:   -9.09 KCAL/MOL
REMARK 924 INTRA-LIGAND FREE ENERGY PREDICTED BY IDOCK:   -0.15 KCAL/MOL
REMARK 927      BINDING AFFINITY PREDICTED BY RF-SCORE:    0.00 PKD
ROOT
HETATM    1  C   UNL     1     -13.034  14.082  65.708  1.00  0.00    -0.254 C  
HETATM    2  S   UNL     1     -11.527  14.341  64.746  1.00  0.00    -0.402 SA 
ENDROOT
BRANCH   2   3
HETATM    3  C   UNL     1     -11.622  12.887  63.635  1.00  0.00    -0.485 C  
BRANCH   3   4
HETATM    4  C   UNL     1     -10.336  12.035  63.685  1.00  0.00    -0.450 C  
BRANCH   4   5
HETATM    5  N   UNL     1     -10.607  10.725  64.251  1.00  0.00    -0.392 NA 
HETATM    6  H   UNL     1     -10.859   9.953  63.635  1.00  0.00     0.000 HD 
BRANCH   5   7
HETATM    7  C   UNL     1     -10.529  10.511  65.616  1.00  0.00    -0.143 A  
HETATM    8  C   UNL     1      -9.823   9.408  66.122  1.00  0.00    -0.285 A  
HETATM    9  N   UNL     1      -9.089   8.418  65.499  1.00  0.00    -0.109 NA 
HETATM   10  C   UNL     1      -8.582   7.698  66.488  1.00  0.00    -0.138 A  
HETATM   11  N   UNL     1      -8.982   8.165  67.722  1.00  0.00    -0.133 NA 
HETATM   12  C   UNL     1      -9.772   9.257  67.500  1.00  0.00    -0.158 A  
HETATM   13  N   UNL     1     -11.131  11.346  66.512  1.00  0.00    -0.281 NA 
HETATM   14  C   UNL     1     -11.040  11.058  67.827  1.00  0.00    -0.295 A  
HETATM   15  N   UNL     1     -10.363  10.038  68.406  1.00  0.00    -0.181 NA 
BRANCH  11  16
HETATM   16  C   UNL     1      -8.454   7.681  68.979  1.00  0.00    -0.132 C  
HETATM   17  O   UNL     1      -8.620   8.723  69.949  1.00  0.00    -0.124 OA 
HETATM   18  C   UNL     1      -7.355   9.355  70.200  1.00  0.00    -0.110 C  
HETATM   19  H   UNL     1      -5.916   6.006  70.238  1.00  0.00     0.000 HD 
HETATM   20  O   UNL     1      -6.825   6.271  70.160  1.00  0.00    -0.051 OA 
HETATM   21  C   UNL     1      -6.267   8.517  69.536  1.00  0.00    -0.036 C  
HETATM   22  H   UNL     1      -4.547   7.725  70.070  1.00  0.00     0.000 HD 
HETATM   23  C   UNL     1      -6.984   7.254  69.106  1.00  0.00    -0.074 C  
HETATM   24  O   UNL     1      -5.224   8.247  70.483  1.00  0.00    -0.023 OA 
BRANCH  18  25
HETATM   25  C   UNL     1      -7.329  10.801  69.701  1.00  0.00    -0.103 C  
BRANCH  25  26
HETATM   26  O   UNL     1      -6.639  10.782  68.451  1.00  0.00    -0.054 OA 
BRANCH  26  27
HETATM   27  P   UNL     1      -6.784  12.116  67.571  1.00  0.00    -0.150 P  
HETATM   28  O   UNL     1      -5.339  12.062  66.849  1.00  0.00    -0.217 OA 
HETATM   29  O   UNL     1      -7.927  12.153  66.600  1.00  0.00    -0.079 OA 
BRANCH  27  30
HETATM   30  O   UNL     1      -6.816  13.320  68.675  1.00  0.00    -0.087 OA 
HETATM   31  P   UNL     1      -7.678  14.753  68.233  1.00  0.00    -0.144 P  
HETATM   32  C   UNL     1      -8.590  16.268  67.765  1.00  0.00    -0.171 C  
HETATM   33  O   UNL     1      -6.356  15.196  67.349  1.00  0.00    -0.297 OA 
HETATM   34  O   UNL     1      -8.623  13.957  67.295  1.00  0.00    -0.193 OA 
HETATM   35 CL   UNL     1      -8.609  16.554  65.959  1.00  0.00    -0.321 Cl 
HETATM   36  P   UNL     1     -10.364  16.061  68.167  1.00  0.00    -0.279 P  
HETATM   37 CL   UNL     1      -7.739  17.685  68.466  1.00  0.00    -0.272 Cl 
HETATM   38  O   UNL     1     -10.154  16.970  69.537  1.00  0.00    -0.180 OA 
HETATM   39  O   UNL     1     -10.043  14.699  69.062  1.00  0.00    -0.229 OA 
HETATM   40  O   UNL     1     -11.864  15.886  68.508  1.00  0.00    -0.366 OA 
ENDBRANCH  27  30
ENDBRANCH  26  27
ENDBRANCH  25  26
ENDBRANCH  18  25
ENDBRANCH  11  16
BRANCH  14  41
HETATM   41  S   UNL     1     -11.901  12.106  68.980  1.00  0.00    -0.278 SA 
BRANCH  41  42
HETATM   42  C   UNL     1     -12.601  10.851  70.106  1.00  0.00    -0.234 C  
BRANCH  42  43
HETATM   43  C   UNL     1     -12.536  11.391  71.529  1.00  0.00    -0.393 C  
HETATM   44  C   UNL     1     -13.192  12.748  71.652  1.00  0.00    -0.317 C  
HETATM   45  F   UNL     1     -14.153  12.725  72.607  1.00  0.00    -0.575 F  
HETATM   46  F   UNL     1     -13.768  13.163  70.507  1.00  0.00     0.398 F  
HETATM   47  F   UNL     1     -12.290  13.685  72.021  1.00  0.00    -0.293 F  
ENDBRANCH  42  43
ENDBRANCH  41  42
ENDBRANCH  14  41
ENDBRANCH   5   7
ENDBRANCH   4   5
ENDBRANCH   3   4
ENDBRANCH   2   3
TORSDOF 12
ENDMDL
MODEL      113
REMARK 921   NORMALIZED FREE ENERGY PREDICTED BY IDOCK:   -4.84 KCAL/MOL
REMARK 922        TOTAL FREE ENERGY PREDICTED BY IDOCK:   -9.24 KCAL/MOL
REMARK 923 INTER-LIGAND FREE ENERGY PREDICTED BY IDOCK:   -8.94 KCAL/MOL
REMARK 924 INTRA-LIGAND FREE ENERGY PREDICTED BY IDOCK:   -0.29 KCAL/MOL
REMARK 927      BINDING AFFINITY PREDICTED BY RF-SCORE:    0.00 PKD
ROOT
HETATM    1  C   UNL     1      -7.037  19.461  69.182  1.00  0.00    -0.349 C  
HETATM    2  S   UNL     1      -5.813  18.143  69.356  1.00  0.00    -0.244 SA 
ENDROOT
BRANCH   2   3
HETATM    3  C   UNL     1      -6.744  16.761  68.592  1.00  0.00    -0.174 C  
BRANCH   3   4
HETATM    4  C   UNL     1      -7.018  15.622  69.597  1.00  0.00    -0.167 C  
BRANCH   4   5
HETATM    5  N   UNL     1      -6.714  14.330  69.007  1.00  0.00    -0.100 NA 
HETATM    6  H   UNL     1      -5.770  13.952  69.081  1.00  0.00     0.000 HD 
BRANCH   5   7
HETATM    7  C   UNL     1      -7.688  13.603  68.344  1.00  0.00    -0.138 A  
HETATM    8  C   UNL     1      -7.328  12.591  67.441  1.00  0.00    -0.147 A  
HETATM    9  N   UNL     1      -6.099  12.089  67.062  1.00  0.00    -0.154 NA 
HETATM   10  C   UNL     1      -6.380  11.085  66.246  1.00  0.00    -0.119 A  
HETATM   11  N   UNL     1      -7.739  10.938  66.060  1.00  0.00    -0.139 NA 
HETATM   12  C   UNL     1      -8.352  11.892  66.820  1.00  0.00    -0.153 A  
HETATM   13  N   UNL     1      -9.019  13.843  68.534  1.00  0.00    -0.173 NA 
HETATM   14  C   UNL     1      -9.913  13.118  67.831  1.00  0.00    -0.233 A  
HETATM   15  N   UNL     1      -9.661  12.109  66.963  1.00  0.00    -0.201 NA 
BRANCH  11  16
HETATM   16  C   UNL     1      -8.342   9.827  65.356  1.00  0.00    -0.139 C  
HETATM   17  O   UNL     1      -9.378   9.296  66.192  1.00  0.00    -0.176 OA 
HETATM   18  C   UNL     1      -8.934   8.066  66.787  1.00  0.00    -0.144 C  
HETATM   19  H   UNL     1      -7.567   7.208  63.519  1.00  0.00     0.000 HD 
HETATM   20  O   UNL     1      -8.085   7.962  63.776  1.00  0.00    -0.144 OA 
HETATM   21  C   UNL     1      -7.631   7.656  66.110  1.00  0.00    -0.088 C  
HETATM   22  H   UNL     1      -6.909   6.033  65.263  1.00  0.00     0.000 HD 
HETATM   23  C   UNL     1      -7.506   8.608  64.939  1.00  0.00    -0.093 C  
HETATM   24  O   UNL     1      -7.721   6.289  65.685  1.00  0.00    -0.085 OA 
BRANCH  18  25
HETATM   25  C   UNL     1      -8.761   8.194  68.302  1.00  0.00    -0.133 C  
BRANCH  25  26
HETATM   26  O   UNL     1     -10.067   8.075  68.867  1.00  0.00    -0.190 OA 
BRANCH  26  27
HETATM   27  P   UNL     1     -10.580   6.571  69.091  1.00  0.00    -0.301 P  
HETATM   28  O   UNL     1     -11.730   6.891  70.181  1.00  0.00    -0.312 OA 
HETATM   29  O   UNL     1     -11.099   5.856  67.879  1.00  0.00    -0.250 OA 
BRANCH  27  30
HETATM   30  O   UNL     1      -9.317   5.823  69.809  1.00  0.00    -0.142 OA 
HETATM   31  P   UNL     1      -9.408   5.630  71.526  1.00  0.00    -0.147 P  
HETATM   32  C   UNL     1      -9.504   5.424  73.342  1.00  0.00    -0.134 C  
HETATM   33  O   UNL     1      -8.936   7.206  71.663  1.00  0.00    -0.133 OA 
HETATM   34  O   UNL     1     -10.959   5.606  71.493  1.00  0.00    -0.252 OA 
HETATM   35 CL   UNL     1     -10.498   6.730  74.149  1.00  0.00    -0.338 Cl 
HETATM   36  P   UNL     1     -10.434   3.897  73.734  1.00  0.00    -0.241 P  
HETATM   37 CL   UNL     1      -7.851   5.590  74.023  1.00  0.00    -0.100 Cl 
HETATM   38  O   UNL     1      -9.005   3.108  74.021  1.00  0.00    -0.079 OA 
HETATM   39  O   UNL     1     -10.355   3.395  72.153  1.00  0.00    -0.124 OA 
HETATM   40  O   UNL     1     -11.219   2.604  74.067  1.00  0.00    -0.168 OA 
ENDBRANCH  27  30
ENDBRANCH  26  27
ENDBRANCH  25  26
ENDBRANCH  18  25
ENDBRANCH  11  16
BRANCH  14  41
HETATM   41  S   UNL     1     -11.641  13.497  68.022  1.00  0.00    -0.358 SA 
BRANCH  41  42
HETATM   42  C   UNL     1     -11.951  12.798  69.678  1.00  0.00    -0.288 C  
BRANCH  42  43
HETATM   43  C   UNL     1     -12.135  11.293  69.539  1.00  0.00    -0.386 C  
HETATM   44  C   UNL     1     -12.380  10.623  70.874  1.00  0.00    -0.401 C  
HETATM   45  F   UNL     1     -13.534   9.915  70.844  1.00  0.00    -0.427 F  
HETATM   46  F   UNL     1     -12.467  11.498  71.895  1.00  0.00    -0.325 F  
HETATM   47  F   UNL     1     -11.388   9.752  71.163  1.00  0.00    -0.355 F  
ENDBRANCH  42  43
ENDBRANCH  41  42
ENDBRANCH  14  41
ENDBRANCH   5   7
ENDBRANCH   4   5
ENDBRANCH   3   4
ENDBRANCH   2   3
TORSDOF 12
ENDMDL
MODEL      114
REMARK 921   NORMALIZED FREE ENERGY PREDICTED BY IDOCK:   -4.83 KCAL/MOL
REMARK 922        TOTAL FREE ENERGY PREDICTED BY IDOCK:   -9.22 KCAL/MOL
REMARK 923 INTER-LIGAND FREE ENERGY PREDICTED BY IDOCK:   -8.36 KCAL/MOL
REMARK 924 INTRA-LIGAND FREE ENERGY PREDICTED BY IDOCK:   -0.87 KCAL/MOL
REMARK 927      BINDING AFFINITY PREDICTED BY RF-SCORE:    0.00 PKD
ROOT
HETATM    1  C   UNL     1      -6.409  12.682  67.349  1.00  0.00    -0.150 C  
HETATM    2  S   UNL     1      -5.335  12.768  68.799  1.00  0.00    -0.064 SA 
ENDROOT
BRANCH   2   3
HETATM    3  C   UNL     1      -5.179  10.979  69.168  1.00  0.00    -0.041 C  
BRANCH   3   4
HETATM    4  C   UNL     1      -5.575  10.651  70.623  1.00  0.00    -0.105 C  
BRANCH   4   5
HETATM    5  N   UNL     1      -5.996   9.266  70.743  1.00  0.00    -0.048 NA 
HETATM    6  H   UNL     1      -5.374   8.522  70.429  1.00  0.00     0.000 HD 
BRANCH   5   7
HETATM    7  C   UNL     1      -7.231   8.942  71.278  1.00  0.00    -0.097 A  
HETATM    8  C   UNL     1      -8.411   9.310  70.613  1.00  0.00    -0.207 A  
HETATM    9  N   UNL     1      -8.630   9.951  69.410  1.00  0.00    -0.160 NA 
HETATM   10  C   UNL     1      -9.945   9.947  69.257  1.00  0.00    -0.207 A  
HETATM   11  N   UNL     1     -10.585   9.357  70.327  1.00  0.00    -0.230 NA 
HETATM   12  C   UNL     1      -9.616   8.945  71.196  1.00  0.00    -0.272 A  
HETATM   13  N   UNL     1      -7.350   8.269  72.460  1.00  0.00    -0.114 NA 
HETATM   14  C   UNL     1      -8.585   8.015  72.938  1.00  0.00    -0.196 A  
HETATM   15  N   UNL     1      -9.773   8.306  72.356  1.00  0.00    -0.275 NA 
BRANCH  11  16
HETATM   16  C   UNL     1     -12.001   9.064  70.359  1.00  0.00     0.083 C  
HETATM   17  O   UNL     1     -12.703  10.297  70.158  1.00  0.00    -0.197 OA 
HETATM   18  C   UNL     1     -13.248  10.752  71.408  1.00  0.00    -0.287 C  
HETATM   19  H   UNL     1     -14.233   7.295  72.009  1.00  0.00     0.000 HD 
HETATM   20  O   UNL     1     -13.833   7.682  71.240  1.00  0.00    -0.326 OA 
HETATM   21  C   UNL     1     -13.095   9.629  72.428  1.00  0.00    -0.306 C  
HETATM   22  H   UNL     1     -14.258   8.695  73.711  1.00  0.00     0.000 HD 
HETATM   23  C   UNL     1     -12.650   8.438  71.604  1.00  0.00    -0.332 C  
HETATM   24  O   UNL     1     -14.352   9.395  73.076  1.00  0.00    -0.299 OA 
BRANCH  18  25
HETATM   25  C   UNL     1     -12.576  12.040  71.889  1.00  0.00     0.057 C  
BRANCH  25  26
HETATM   26  O   UNL     1     -13.155  13.102  71.130  1.00  0.00    -0.239 OA 
BRANCH  26  27
HETATM   27  P   UNL     1     -12.182  14.345  70.842  1.00  0.00    -0.368 P  
HETATM   28  O   UNL     1     -13.306  15.393  70.341  1.00  0.00    -0.237 OA 
HETATM   29  O   UNL     1     -11.382  14.849  72.006  1.00  0.00    -0.286 OA 
BRANCH  27  30
HETATM   30  O   UNL     1     -11.271  13.852  69.578  1.00  0.00    -0.243 OA 
HETATM   31  P   UNL     1     -10.495  15.091  68.654  1.00  0.00    -0.253 P  
HETATM   32  C   UNL     1      -9.674  16.403  67.677  1.00  0.00    -0.238 C  
HETATM   33  O   UNL     1     -11.941  15.341  67.898  1.00  0.00    -0.234 OA 
HETATM   34  O   UNL     1     -10.438  16.041  69.880  1.00  0.00    -0.290 OA 
HETATM   35 CL   UNL     1     -10.591  17.985  67.705  1.00  0.00    -0.424 Cl 
HETATM   36  P   UNL     1      -8.078  16.838  68.460  1.00  0.00    -0.257 P  
HETATM   37 CL   UNL     1      -9.645  15.896  65.955  1.00  0.00    -0.372 Cl 
HETATM   38  O   UNL     1      -7.282  15.917  67.335  1.00  0.00    -0.157 OA 
HETATM   39  O   UNL     1      -8.154  15.506  69.448  1.00  0.00    -0.232 OA 
HETATM   40  O   UNL     1      -6.727  17.206  69.121  1.00  0.00    -0.219 OA 
ENDBRANCH  27  30
ENDBRANCH  26  27
ENDBRANCH  25  26
ENDBRANCH  18  25
ENDBRANCH  11  16
BRANCH  14  41
HETATM   41  S   UNL     1      -8.727   7.214  74.521  1.00  0.00    -0.167 SA 
BRANCH  41  42
HETATM   42  C   UNL     1      -8.730   5.464  74.004  1.00  0.00    -0.117 C  
BRANCH  42  43
HETATM   43  C   UNL     1      -7.298   4.946  74.047  1.00  0.00    -0.082 C  
HETATM   44  C   UNL     1      -6.732   4.724  72.662  1.00  0.00    -0.053 C  
HETATM   45  F   UNL     1      -5.580   5.418  72.504  1.00  0.00    -0.015 F  
HETATM   46  F   UNL     1      -7.573   5.103  71.680  1.00  0.00    -0.087 F  
HETATM   47  F   UNL     1      -6.438   3.419  72.468  1.00  0.00    -0.012 F  
ENDBRANCH  42  43
ENDBRANCH  41  42
ENDBRANCH  14  41
ENDBRANCH   5   7
ENDBRANCH   4   5
ENDBRANCH   3   4
ENDBRANCH   2   3
TORSDOF 12
ENDMDL
MODEL      115
REMARK 921   NORMALIZED FREE ENERGY PREDICTED BY IDOCK:   -4.82 KCAL/MOL
REMARK 922        TOTAL FREE ENERGY PREDICTED BY IDOCK:   -9.22 KCAL/MOL
REMARK 923 INTER-LIGAND FREE ENERGY PREDICTED BY IDOCK:   -7.89 KCAL/MOL
REMARK 924 INTRA-LIGAND FREE ENERGY PREDICTED BY IDOCK:   -1.33 KCAL/MOL
REMARK 927      BINDING AFFINITY PREDICTED BY RF-SCORE:    0.00 PKD
ROOT
HETATM    1  C   UNL     1      -6.557  21.008  68.050  1.00  0.00    -0.215 C  
HETATM    2  S   UNL     1      -6.492  19.446  68.957  1.00  0.00    -0.313 SA 
ENDROOT
BRANCH   2   3
HETATM    3  C   UNL     1      -7.418  18.379  67.789  1.00  0.00    -0.229 C  
BRANCH   3   4
HETATM    4  C   UNL     1      -6.579  17.173  67.317  1.00  0.00    -0.162 C  
BRANCH   4   5
HETATM    5  N   UNL     1      -6.803  16.021  68.174  1.00  0.00    -0.118 NA 
HETATM    6  H   UNL     1      -6.376  15.992  69.099  1.00  0.00     0.000 HD 
BRANCH   5   7
HETATM    7  C   UNL     1      -7.589  14.963  67.751  1.00  0.00    -0.156 A  
HETATM    8  C   UNL     1      -6.997  13.749  67.367  1.00  0.00    -0.047 A  
HETATM    9  N   UNL     1      -5.681  13.328  67.353  1.00  0.00    -0.355 NA 
HETATM   10  C   UNL     1      -5.735  12.060  66.975  1.00  0.00    -0.123 A  
HETATM   11  N   UNL     1      -7.028  11.655  66.716  1.00  0.00    -0.116 NA 
HETATM   12  C   UNL     1      -7.840  12.724  66.965  1.00  0.00    -0.014 A  
HETATM   13  N   UNL     1      -8.949  15.056  67.684  1.00  0.00    -0.174 NA 
HETATM   14  C   UNL     1      -9.649  13.996  67.232  1.00  0.00    -0.238 A  
HETATM   15  N   UNL     1      -9.169  12.783  66.867  1.00  0.00    -0.224 NA 
BRANCH  11  16
HETATM   16  C   UNL     1      -7.406  10.284  66.447  1.00  0.00    -0.114 C  
HETATM   17  O   UNL     1      -7.853   9.709  67.680  1.00  0.00    -0.095 OA 
HETATM   18  C   UNL     1      -6.840   8.832  68.200  1.00  0.00    -0.069 C  
HETATM   19  H   UNL     1      -6.427   7.615  64.789  1.00  0.00     0.000 HD 
HETATM   20  O   UNL     1      -7.057   8.237  65.134  1.00  0.00    -0.072 OA 
HETATM   21  C   UNL     1      -5.779   8.645  67.121  1.00  0.00    -0.042 C  
HETATM   22  H   UNL     1      -4.864   7.128  66.264  1.00  0.00     0.000 HD 
HETATM   23  C   UNL     1      -6.387   9.279  65.887  1.00  0.00    -0.060 C  
HETATM   24  O   UNL     1      -5.525   7.245  66.936  1.00  0.00    -0.021 OA 
BRANCH  18  25
HETATM   25  C   UNL     1      -6.231   9.368  69.497  1.00  0.00    -0.040 C  
BRANCH  25  26
HETATM   26  O   UNL     1      -7.328   9.698  70.349  1.00  0.00    -0.124 OA 
BRANCH  26  27
HETATM   27  P   UNL     1      -7.421   8.844  71.705  1.00  0.00     0.147 P  
HETATM   28  O   UNL     1      -6.077   9.402  72.409  1.00  0.00    -0.287 OA 
HETATM   29  O   UNL     1      -8.652   9.048  72.538  1.00  0.00    -0.328 OA 
BRANCH  27  30
HETATM   30  O   UNL     1      -7.200   7.300  71.218  1.00  0.00    -0.070 OA 
HETATM   31  P   UNL     1      -8.627   6.394  70.848  1.00  0.00    -0.136 P  
HETATM   32  C   UNL     1     -10.136   5.437  70.457  1.00  0.00    -0.236 C  
HETATM   33  O   UNL     1      -8.824   6.168  72.472  1.00  0.00    -0.126 OA 
HETATM   34  O   UNL     1      -9.404   7.679  70.457  1.00  0.00    -0.163 OA 
HETATM   35 CL   UNL     1     -11.596   5.998  71.405  1.00  0.00    -0.282 Cl 
HETATM   36  P   UNL     1     -10.626   5.751  68.722  1.00  0.00    -0.195 P  
HETATM   37 CL   UNL     1      -9.872   3.730  70.950  1.00  0.00    -0.240 Cl 
HETATM   38  O   UNL     1      -9.952   4.305  68.275  1.00  0.00    -0.085 OA 
HETATM   39  O   UNL     1      -9.172   6.488  68.404  1.00  0.00    -0.124 OA 
HETATM   40  O   UNL     1     -11.040   6.017  67.254  1.00  0.00    -0.303 OA 
ENDBRANCH  27  30
ENDBRANCH  26  27
ENDBRANCH  25  26
ENDBRANCH  18  25
ENDBRANCH  11  16
BRANCH  14  41
HETATM   41  S   UNL     1     -11.413  14.159  67.068  1.00  0.00    -0.371 SA 
BRANCH  41  42
HETATM   42  C   UNL     1     -11.964  12.622  67.883  1.00  0.00    -0.249 C  
BRANCH  42  43
HETATM   43  C   UNL     1     -11.438  12.621  69.313  1.00  0.00    -0.354 C  
HETATM   44  C   UNL     1     -11.924  11.421  70.096  1.00  0.00    -0.377 C  
HETATM   45  F   UNL     1     -10.875  10.733  70.608  1.00  0.00    -0.271 F  
HETATM   46  F   UNL     1     -12.648  10.562  69.352  1.00  0.00    -0.287 F  
HETATM   47  F   UNL     1     -12.691  11.807  71.140  1.00  0.00    -0.434 F  
ENDBRANCH  42  43
ENDBRANCH  41  42
ENDBRANCH  14  41
ENDBRANCH   5   7
ENDBRANCH   4   5
ENDBRANCH   3   4
ENDBRANCH   2   3
TORSDOF 12
ENDMDL
MODEL      116
REMARK 921   NORMALIZED FREE ENERGY PREDICTED BY IDOCK:   -4.82 KCAL/MOL
REMARK 922        TOTAL FREE ENERGY PREDICTED BY IDOCK:   -9.21 KCAL/MOL
REMARK 923 INTER-LIGAND FREE ENERGY PREDICTED BY IDOCK:   -8.08 KCAL/MOL
REMARK 924 INTRA-LIGAND FREE ENERGY PREDICTED BY IDOCK:   -1.13 KCAL/MOL
REMARK 927      BINDING AFFINITY PREDICTED BY RF-SCORE:    0.00 PKD
ROOT
HETATM    1  C   UNL     1      -9.003   3.935  64.059  1.00  0.00    -0.125 C  
HETATM    2  S   UNL     1      -7.872   4.206  65.442  1.00  0.00    -0.086 SA 
ENDROOT
BRANCH   2   3
HETATM    3  C   UNL     1      -7.081   5.764  64.886  1.00  0.00    -0.060 C  
BRANCH   3   4
HETATM    4  C   UNL     1      -8.122   6.824  64.467  1.00  0.00    -0.070 C  
BRANCH   4   5
HETATM    5  N   UNL     1      -8.078   7.970  65.358  1.00  0.00    -0.127 NA 
HETATM    6  H   UNL     1      -7.998   8.908  64.966  1.00  0.00     0.000 HD 
BRANCH   5   7
HETATM    7  C   UNL     1      -8.142   7.807  66.731  1.00  0.00    -0.115 A  
HETATM    8  C   UNL     1      -9.325   7.356  67.337  1.00  0.00    -0.132 A  
HETATM    9  N   UNL     1     -10.541   6.966  66.810  1.00  0.00    -0.266 NA 
HETATM   10  C   UNL     1     -11.247   6.557  67.852  1.00  0.00    -0.153 A  
HETATM   11  N   UNL     1     -10.549   6.695  69.033  1.00  0.00    -0.219 NA 
HETATM   12  C   UNL     1      -9.321   7.201  68.715  1.00  0.00    -0.135 A  
HETATM   13  N   UNL     1      -7.078   8.081  67.540  1.00  0.00    -0.078 NA 
HETATM   14  C   UNL     1      -7.222   7.930  68.872  1.00  0.00    -0.076 A  
HETATM   15  N   UNL     1      -8.309   7.477  69.540  1.00  0.00    -0.130 NA 
BRANCH  11  16
HETATM   16  C   UNL     1     -11.003   6.180  70.306  1.00  0.00    -0.349 C  
HETATM   17  O   UNL     1     -12.228   6.849  70.632  1.00  0.00    -0.365 OA 
HETATM   18  C   UNL     1     -11.983   7.833  71.651  1.00  0.00    -0.297 C  
HETATM   19  H   UNL     1      -9.901   5.330  73.289  1.00  0.00     0.000 HD 
HETATM   20  O   UNL     1     -10.438   5.250  72.509  1.00  0.00    -0.200 OA 
HETATM   21  C   UNL     1     -10.571   7.621  72.184  1.00  0.00    -0.232 C  
HETATM   22  H   UNL     1      -9.723   7.425  73.949  1.00  0.00     0.000 HD 
HETATM   23  C   UNL     1     -10.134   6.309  71.567  1.00  0.00    -0.190 C  
HETATM   24  O   UNL     1     -10.603   7.557  73.617  1.00  0.00    -0.348 OA 
BRANCH  18  25
HETATM   25  C   UNL     1     -12.176   9.258  71.128  1.00  0.00    -0.301 C  
BRANCH  25  26
HETATM   26  O   UNL     1     -11.267   9.411  70.038  1.00  0.00    -0.240 OA 
BRANCH  26  27
HETATM   27  P   UNL     1     -11.136  10.903  69.462  1.00  0.00    -0.262 P  
HETATM   28  O   UNL     1     -11.867  11.674  70.680  1.00  0.00    -0.321 OA 
HETATM   29  O   UNL     1      -9.745  11.398  69.200  1.00  0.00    -0.074 OA 
BRANCH  27  30
HETATM   30  O   UNL     1     -12.097  10.905  68.140  1.00  0.00    -0.563 OA 
HETATM   31  P   UNL     1     -11.481  11.705  66.736  1.00  0.00     0.008 P  
HETATM   32  C   UNL     1     -10.828  12.552  65.251  1.00  0.00    -0.286 C  
HETATM   33  O   UNL     1     -11.933  13.132  67.433  1.00  0.00    -0.365 OA 
HETATM   34  O   UNL     1     -10.014  11.423  67.156  1.00  0.00    -0.189 OA 
HETATM   35 CL   UNL     1      -9.672  13.909  65.661  1.00  0.00    -0.214 Cl 
HETATM   36  P   UNL     1      -9.781  11.392  64.299  1.00  0.00    -0.181 P  
HETATM   37 CL   UNL     1     -12.198  13.333  64.392  1.00  0.00    -0.445 Cl 
HETATM   38  O   UNL     1     -11.031  11.142  63.240  1.00  0.00    -0.242 OA 
HETATM   39  O   UNL     1     -10.325  10.104  65.194  1.00  0.00    -0.257 OA 
HETATM   40  O   UNL     1      -8.895  10.411  63.492  1.00  0.00    -0.179 OA 
ENDBRANCH  27  30
ENDBRANCH  26  27
ENDBRANCH  25  26
ENDBRANCH  18  25
ENDBRANCH  11  16
BRANCH  14  41
HETATM   41  S   UNL     1      -5.856   8.373  69.923  1.00  0.00    -0.025 SA 
BRANCH  41  42
HETATM   42  C   UNL     1      -5.734   6.873  70.954  1.00  0.00    -0.027 C  
BRANCH  42  43
HETATM   43  C   UNL     1      -5.447   5.685  70.044  1.00  0.00    -0.005 C  
HETATM   44  C   UNL     1      -6.442   4.563  70.244  1.00  0.00    -0.034 C  
HETATM   45  F   UNL     1      -7.033   4.239  69.069  1.00  0.00    -0.046 F  
HETATM   46  F   UNL     1      -7.419   4.872  71.118  1.00  0.00    -0.063 F  
HETATM   47  F   UNL     1      -5.824   3.449  70.696  1.00  0.00    -0.014 F  
ENDBRANCH  42  43
ENDBRANCH  41  42
ENDBRANCH  14  41
ENDBRANCH   5   7
ENDBRANCH   4   5
ENDBRANCH   3   4
ENDBRANCH   2   3
TORSDOF 12
ENDMDL
MODEL      117
REMARK 921   NORMALIZED FREE ENERGY PREDICTED BY IDOCK:   -4.81 KCAL/MOL
REMARK 922        TOTAL FREE ENERGY PREDICTED BY IDOCK:   -9.20 KCAL/MOL
REMARK 923 INTER-LIGAND FREE ENERGY PREDICTED BY IDOCK:  -10.15 KCAL/MOL
REMARK 924 INTRA-LIGAND FREE ENERGY PREDICTED BY IDOCK:    0.95 KCAL/MOL
REMARK 927      BINDING AFFINITY PREDICTED BY RF-SCORE:    0.00 PKD
ROOT
HETATM    1  C   UNL     1      -8.286   7.840  73.156  1.00  0.00    -0.149 C  
HETATM    2  S   UNL     1      -9.207   7.344  71.683  1.00  0.00    -0.141 SA 
ENDROOT
BRANCH   2   3
HETATM    3  C   UNL     1      -7.810   6.866  70.598  1.00  0.00    -0.101 C  
BRANCH   3   4
HETATM    4  C   UNL     1      -8.279   6.036  69.383  1.00  0.00    -0.115 C  
BRANCH   4   5
HETATM    5  N   UNL     1      -9.413   6.670  68.733  1.00  0.00    -0.130 NA 
HETATM    6  H   UNL     1     -10.335   6.615  69.165  1.00  0.00     0.000 HD 
BRANCH   5   7
HETATM    7  C   UNL     1      -9.260   7.346  67.535  1.00  0.00    -0.130 A  
HETATM    8  C   UNL     1      -9.908   8.574  67.326  1.00  0.00    -0.199 A  
HETATM    9  N   UNL     1     -10.709   9.345  68.144  1.00  0.00    -0.209 NA 
HETATM   10  C   UNL     1     -10.960  10.438  67.440  1.00  0.00    -0.270 A  
HETATM   11  N   UNL     1     -10.379  10.391  66.190  1.00  0.00    -0.228 NA 
HETATM   12  C   UNL     1      -9.703   9.207  66.108  1.00  0.00    -0.287 A  
HETATM   13  N   UNL     1      -8.491   6.851  66.522  1.00  0.00    -0.120 NA 
HETATM   14  C   UNL     1      -8.413   7.548  65.370  1.00  0.00    -0.094 A  
HETATM   15  N   UNL     1      -8.977   8.747  65.088  1.00  0.00    -0.151 NA 
BRANCH  11  16
HETATM   16  C   UNL     1     -10.345  11.508  65.272  1.00  0.00    -0.272 C  
HETATM   17  O   UNL     1      -9.954  12.668  66.015  1.00  0.00    -0.252 OA 
HETATM   18  C   UNL     1     -11.101  13.502  66.248  1.00  0.00    -0.300 C  
HETATM   19  H   UNL     1     -12.027  12.853  62.783  1.00  0.00     0.000 HD 
HETATM   20  O   UNL     1     -11.248  12.589  63.258  1.00  0.00    -0.452 OA 
HETATM   21  C   UNL     1     -12.252  12.970  65.401  1.00  0.00    -0.471 C  
HETATM   22  H   UNL     1     -13.549  13.714  64.123  1.00  0.00     0.000 HD 
HETATM   23  C   UNL     1     -11.604  11.936  64.503  1.00  0.00    -0.271 C  
HETATM   24  O   UNL     1     -12.833  14.045  64.651  1.00  0.00    -0.661 OA 
BRANCH  18  25
HETATM   25  C   UNL     1     -11.476  13.556  67.730  1.00  0.00    -0.315 C  
BRANCH  25  26
HETATM   26  O   UNL     1     -10.442  14.296  68.379  1.00  0.00    -0.235 OA 
BRANCH  26  27
HETATM   27  P   UNL     1     -10.838  15.790  68.812  1.00  0.00    -0.317 P  
HETATM   28  O   UNL     1     -10.839  16.453  67.338  1.00  0.00    -0.302 OA 
HETATM   29  O   UNL     1     -12.144  15.951  69.532  1.00  0.00    -0.329 OA 
BRANCH  27  30
HETATM   30  O   UNL     1      -9.545  16.313  69.663  1.00  0.00    -0.171 OA 
HETATM   31  P   UNL     1      -8.299  17.108  68.765  1.00  0.00    -0.135 P  
HETATM   32  C   UNL     1      -6.981  17.950  67.815  1.00  0.00    -0.199 C  
HETATM   33  O   UNL     1      -7.767  15.614  68.307  1.00  0.00    -0.126 OA 
HETATM   34  O   UNL     1      -9.310  17.595  67.693  1.00  0.00    -0.242 OA 
HETATM   35 CL   UNL     1      -6.884  17.379  66.080  1.00  0.00    -0.296 Cl 
HETATM   36  P   UNL     1      -7.392  19.725  67.641  1.00  0.00    -0.287 P  
HETATM   37 CL   UNL     1      -5.395  17.531  68.546  1.00  0.00    -0.149 Cl 
HETATM   38  O   UNL     1      -6.329  20.085  68.861  1.00  0.00    -0.281 OA 
HETATM   39  O   UNL     1      -8.598  19.597  68.776  1.00  0.00    -0.331 OA 
HETATM   40  O   UNL     1      -7.739  21.227  67.496  1.00  0.00    -0.322 OA 
ENDBRANCH  27  30
ENDBRANCH  26  27
ENDBRANCH  25  26
ENDBRANCH  18  25
ENDBRANCH  11  16
BRANCH  14  41
HETATM   41  S   UNL     1      -7.478   6.851  64.025  1.00  0.00    -0.105 SA 
BRANCH  41  42
HETATM   42  C   UNL     1      -7.677   5.071  64.374  1.00  0.00    -0.085 C  
BRANCH  42  43
HETATM   43  C   UNL     1      -8.919   4.573  63.645  1.00  0.00    -0.130 C  
HETATM   44  C   UNL     1      -9.770   3.678  64.517  1.00  0.00    -0.178 C  
HETATM   45  F   UNL     1     -11.037   4.152  64.590  1.00  0.00    -0.340 F  
HETATM   46  F   UNL     1      -9.304   3.569  65.777  1.00  0.00    -0.142 F  
HETATM   47  F   UNL     1      -9.843   2.432  63.999  1.00  0.00    -0.131 F  
ENDBRANCH  42  43
ENDBRANCH  41  42
ENDBRANCH  14  41
ENDBRANCH   5   7
ENDBRANCH   4   5
ENDBRANCH   3   4
ENDBRANCH   2   3
TORSDOF 12
ENDMDL
MODEL      118
REMARK 921   NORMALIZED FREE ENERGY PREDICTED BY IDOCK:   -4.80 KCAL/MOL
REMARK 922        TOTAL FREE ENERGY PREDICTED BY IDOCK:   -9.18 KCAL/MOL
REMARK 923 INTER-LIGAND FREE ENERGY PREDICTED BY IDOCK:   -7.83 KCAL/MOL
REMARK 924 INTRA-LIGAND FREE ENERGY PREDICTED BY IDOCK:   -1.35 KCAL/MOL
REMARK 927      BINDING AFFINITY PREDICTED BY RF-SCORE:    0.00 PKD
ROOT
HETATM    1  C   UNL     1     -11.573   2.105  73.547  1.00  0.00    -0.169 C  
HETATM    2  S   UNL     1     -10.331   3.254  74.181  1.00  0.00    -0.185 SA 
ENDROOT
BRANCH   2   3
HETATM    3  C   UNL     1     -10.902   4.796  73.370  1.00  0.00    -0.291 C  
BRANCH   3   4
HETATM    4  C   UNL     1     -10.291   6.054  74.024  1.00  0.00    -0.291 C  
BRANCH   4   5
HETATM    5  N   UNL     1     -10.976   7.253  73.573  1.00  0.00    -0.555 NA 
HETATM    6  H   UNL     1     -11.870   7.509  73.992  1.00  0.00     0.000 HD 
BRANCH   5   7
HETATM    7  C   UNL     1     -10.432   8.052  72.583  1.00  0.00    -0.339 A  
HETATM    8  C   UNL     1     -11.262   8.847  71.777  1.00  0.00    -0.362 A  
HETATM    9  N   UNL     1     -12.628   9.053  71.781  1.00  0.00    -0.342 NA 
HETATM   10  C   UNL     1     -12.835   9.972  70.850  1.00  0.00    -0.324 A  
HETATM   11  N   UNL     1     -11.663  10.345  70.226  1.00  0.00    -0.296 NA 
HETATM   12  C   UNL     1     -10.654   9.635  70.811  1.00  0.00    -0.322 A  
HETATM   13  N   UNL     1      -9.088   8.095  72.349  1.00  0.00    -0.192 NA 
HETATM   14  C   UNL     1      -8.631   8.873  71.346  1.00  0.00    -0.172 A  
HETATM   15  N   UNL     1      -9.349   9.689  70.539  1.00  0.00    -0.228 NA 
BRANCH  11  16
HETATM   16  C   UNL     1     -11.560  11.443  69.289  1.00  0.00    -0.317 C  
HETATM   17  O   UNL     1     -12.126  11.007  68.047  1.00  0.00    -0.615 OA 
HETATM   18  C   UNL     1     -11.074  10.726  67.109  1.00  0.00    -0.227 C  
HETATM   19  H   UNL     1      -9.485  13.790  68.282  1.00  0.00     0.000 HD 
HETATM   20  O   UNL     1     -10.330  13.423  68.513  1.00  0.00    -0.240 OA 
HETATM   21  C   UNL     1      -9.765  11.240  67.699  1.00  0.00    -0.171 C  
HETATM   22  H   UNL     1      -8.275  12.377  67.100  1.00  0.00     0.000 HD 
HETATM   23  C   UNL     1     -10.193  12.037  68.915  1.00  0.00    -0.058 C  
HETATM   24  O   UNL     1      -9.091  12.057  66.732  1.00  0.00    -0.187 OA 
BRANCH  18  25
HETATM   25  C   UNL     1     -10.989   9.236  66.774  1.00  0.00     0.274 C  
BRANCH  25  26
HETATM   26  O   UNL     1      -9.856   8.730  67.479  1.00  0.00    -0.159 OA 
BRANCH  26  27
HETATM   27  P   UNL     1      -9.457   7.214  67.132  1.00  0.00    -0.164 P  
HETATM   28  O   UNL     1     -10.951   6.601  67.074  1.00  0.00    -0.376 OA 
HETATM   29  O   UNL     1      -8.682   7.002  65.866  1.00  0.00    -0.146 OA 
BRANCH  27  30
HETATM   30  O   UNL     1      -8.687   6.689  68.474  1.00  0.00    -0.124 OA 
HETATM   31  P   UNL     1      -8.504   4.978  68.641  1.00  0.00    -0.086 P  
HETATM   32  C   UNL     1      -8.310   3.166  68.817  1.00  0.00    -0.065 C  
HETATM   33  O   UNL     1     -10.070   4.927  69.159  1.00  0.00    -0.199 OA 
HETATM   34  O   UNL     1      -8.513   4.775  67.103  1.00  0.00    -0.106 OA 
HETATM   35 CL   UNL     1      -9.640   2.228  67.983  1.00  0.00    -0.195 Cl 
HETATM   36  P   UNL     1      -6.805   2.624  67.928  1.00  0.00    -0.049 P  
HETATM   37 CL   UNL     1      -8.445   2.745  70.557  1.00  0.00    -0.084 Cl 
HETATM   38  O   UNL     1      -5.987   2.551  69.368  1.00  0.00    -0.022 OA 
HETATM   39  O   UNL     1      -6.293   4.195  67.756  1.00  0.00    -0.035 OA 
HETATM   40  O   UNL     1      -5.531   2.166  67.177  1.00  0.00    -0.016 OA 
ENDBRANCH  27  30
ENDBRANCH  26  27
ENDBRANCH  25  26
ENDBRANCH  18  25
ENDBRANCH  11  16
BRANCH  14  41
HETATM   41  S   UNL     1      -6.886   8.854  70.995  1.00  0.00    -0.089 SA 
BRANCH  41  42
HETATM   42  C   UNL     1      -6.855   9.799  69.434  1.00  0.00    -0.057 C  
BRANCH  42  43
HETATM   43  C   UNL     1      -5.655   9.338  68.616  1.00  0.00    -0.040 C  
HETATM   44  C   UNL     1      -6.003   9.145  67.156  1.00  0.00    -0.050 C  
HETATM   45  F   UNL     1      -5.183   9.885  66.372  1.00  0.00    -0.040 F  
HETATM   46  F   UNL     1      -7.270   9.495  66.864  1.00  0.00    -0.083 F  
HETATM   47  F   UNL     1      -5.840   7.854  66.791  1.00  0.00    -0.038 F  
ENDBRANCH  42  43
ENDBRANCH  41  42
ENDBRANCH  14  41
ENDBRANCH   5   7
ENDBRANCH   4   5
ENDBRANCH   3   4
ENDBRANCH   2   3
TORSDOF 12
ENDMDL
MODEL      119
REMARK 921   NORMALIZED FREE ENERGY PREDICTED BY IDOCK:   -4.79 KCAL/MOL
REMARK 922        TOTAL FREE ENERGY PREDICTED BY IDOCK:   -9.16 KCAL/MOL
REMARK 923 INTER-LIGAND FREE ENERGY PREDICTED BY IDOCK:  -10.82 KCAL/MOL
REMARK 924 INTRA-LIGAND FREE ENERGY PREDICTED BY IDOCK:    1.66 KCAL/MOL
REMARK 927      BINDING AFFINITY PREDICTED BY RF-SCORE:    0.00 PKD
ROOT
HETATM    1  C   UNL     1     -10.305   5.589  73.949  1.00  0.00    -0.261 C  
HETATM    2  S   UNL     1      -9.696   5.920  72.281  1.00  0.00    -0.160 SA 
ENDROOT
BRANCH   2   3
HETATM    3  C   UNL     1     -11.287   5.915  71.370  1.00  0.00    -0.178 C  
BRANCH   3   4
HETATM    4  C   UNL     1     -11.373   7.071  70.350  1.00  0.00    -0.310 C  
BRANCH   4   5
HETATM    5  N   UNL     1     -12.046   8.221  70.929  1.00  0.00    -0.465 NA 
HETATM    6  H   UNL     1     -12.725   8.081  71.677  1.00  0.00     0.000 HD 
BRANCH   5   7
HETATM    7  C   UNL     1     -11.779   9.502  70.480  1.00  0.00    -0.222 A  
HETATM    8  C   UNL     1     -12.462  10.601  71.024  1.00  0.00    -0.413 A  
HETATM    9  N   UNL     1     -13.404  10.696  72.030  1.00  0.00    -0.400 NA 
HETATM   10  C   UNL     1     -13.623  11.995  72.167  1.00  0.00    -0.133 A  
HETATM   11  N   UNL     1     -12.885  12.739  71.271  1.00  0.00    -0.327 NA 
HETATM   12  C   UNL     1     -12.139  11.860  70.539  1.00  0.00    -0.331 A  
HETATM   13  N   UNL     1     -10.860   9.745  69.500  1.00  0.00    -0.234 NA 
HETATM   14  C   UNL     1     -10.674  11.016  69.089  1.00  0.00    -0.234 A  
HETATM   15  N   UNL     1     -11.264  12.136  69.571  1.00  0.00    -0.181 NA 
BRANCH  11  16
HETATM   16  C   UNL     1     -12.797  14.183  71.299  1.00  0.00    -0.359 C  
HETATM   17  O   UNL     1     -13.277  14.671  70.041  1.00  0.00     0.035 OA 
HETATM   18  C   UNL     1     -12.167  15.089  69.230  1.00  0.00    -0.179 C  
HETATM   19  H   UNL     1     -10.804  16.628  72.239  1.00  0.00     0.000 HD 
HETATM   20  O   UNL     1     -11.638  16.193  72.110  1.00  0.00    -0.450 OA 
HETATM   21  C   UNL     1     -10.918  15.096  70.104  1.00  0.00    -0.253 C  
HETATM   22  H   UNL     1      -9.464  16.358  70.511  1.00  0.00     0.000 HD 
HETATM   23  C   UNL     1     -11.447  14.888  71.508  1.00  0.00    -0.247 C  
HETATM   24  O   UNL     1     -10.242  16.354  69.966  1.00  0.00    -0.127 OA 
BRANCH  18  25
HETATM   25  C   UNL     1     -11.986  14.193  68.003  1.00  0.00    -0.337 C  
BRANCH  25  26
HETATM   26  O   UNL     1     -11.911  15.066  66.875  1.00  0.00    -0.259 OA 
BRANCH  26  27
HETATM   27  P   UNL     1     -10.571  14.939  66.001  1.00  0.00    -0.350 P  
HETATM   28  O   UNL     1      -9.517  14.864  67.223  1.00  0.00    -0.205 OA 
HETATM   29  O   UNL     1     -10.488  13.760  65.077  1.00  0.00    -0.356 OA 
BRANCH  27  30
HETATM   30  O   UNL     1     -10.452  16.382  65.244  1.00  0.00    -0.572 OA 
HETATM   31  P   UNL     1      -9.623  17.637  66.096  1.00  0.00    -0.052 P  
HETATM   32  C   UNL     1      -8.744  18.965  66.999  1.00  0.00    -0.294 C  
HETATM   33  O   UNL     1     -11.007  17.871  66.965  1.00  0.00    -0.173 OA 
HETATM   34  O   UNL     1      -8.754  16.609  66.869  1.00  0.00    -0.190 OA 
HETATM   35 CL   UNL     1      -8.863  18.784  68.815  1.00  0.00    -0.342 Cl 
HETATM   36  P   UNL     1      -6.946  18.827  66.689  1.00  0.00    -0.221 P  
HETATM   37 CL   UNL     1      -9.536  20.531  66.621  1.00  0.00    -0.425 Cl 
HETATM   38  O   UNL     1      -7.048  20.057  65.583  1.00  0.00    -0.297 OA 
HETATM   39  O   UNL     1      -7.201  17.743  65.457  1.00  0.00    -0.475 OA 
HETATM   40  O   UNL     1      -5.424  18.711  66.426  1.00  0.00    -0.143 OA 
ENDBRANCH  27  30
ENDBRANCH  26  27
ENDBRANCH  25  26
ENDBRANCH  18  25
ENDBRANCH  11  16
BRANCH  14  41
HETATM   41  S   UNL     1      -9.537  11.311  67.752  1.00  0.00    -0.178 SA 
BRANCH  41  42
HETATM   42  C   UNL     1      -7.951  10.968  68.587  1.00  0.00    -0.143 C  
BRANCH  42  43
HETATM   43  C   UNL     1      -7.507   9.559  68.219  1.00  0.00    -0.078 C  
HETATM   44  C   UNL     1      -7.392   8.663  69.432  1.00  0.00    -0.072 C  
HETATM   45  F   UNL     1      -8.152   7.553  69.276  1.00  0.00    -0.115 F  
HETATM   46  F   UNL     1      -7.781   9.265  70.572  1.00  0.00    -0.084 F  
HETATM   47  F   UNL     1      -6.117   8.248  69.603  1.00  0.00    -0.029 F  
ENDBRANCH  42  43
ENDBRANCH  41  42
ENDBRANCH  14  41
ENDBRANCH   5   7
ENDBRANCH   4   5
ENDBRANCH   3   4
ENDBRANCH   2   3
TORSDOF 12
ENDMDL
MODEL      120
REMARK 921   NORMALIZED FREE ENERGY PREDICTED BY IDOCK:   -4.78 KCAL/MOL
REMARK 922        TOTAL FREE ENERGY PREDICTED BY IDOCK:   -9.14 KCAL/MOL
REMARK 923 INTER-LIGAND FREE ENERGY PREDICTED BY IDOCK:   -9.82 KCAL/MOL
REMARK 924 INTRA-LIGAND FREE ENERGY PREDICTED BY IDOCK:    0.68 KCAL/MOL
REMARK 927      BINDING AFFINITY PREDICTED BY RF-SCORE:    0.00 PKD
ROOT
HETATM    1  C   UNL     1     -11.246   4.380  64.920  1.00  0.00     0.284 C  
HETATM    2  S   UNL     1      -9.711   4.744  65.802  1.00  0.00    -0.187 SA 
ENDROOT
BRANCH   2   3
HETATM    3  C   UNL     1     -10.294   6.114  66.872  1.00  0.00    -0.248 C  
BRANCH   3   4
HETATM    4  C   UNL     1      -9.267   6.468  67.969  1.00  0.00    -0.111 C  
BRANCH   4   5
HETATM    5  N   UNL     1      -8.269   7.393  67.461  1.00  0.00    -0.113 NA 
HETATM    6  H   UNL     1      -7.398   7.526  67.975  1.00  0.00     0.000 HD 
BRANCH   5   7
HETATM    7  C   UNL     1      -8.483   8.098  66.290  1.00  0.00    -0.131 A  
HETATM    8  C   UNL     1      -9.460   9.105  66.236  1.00  0.00    -0.237 A  
HETATM    9  N   UNL     1     -10.307   9.621  67.198  1.00  0.00    -0.245 NA 
HETATM   10  C   UNL     1     -10.944  10.612  66.593  1.00  0.00    -0.074 A  
HETATM   11  N   UNL     1     -10.565  10.737  65.273  1.00  0.00    -0.212 NA 
HETATM   12  C   UNL     1      -9.617   9.783  65.036  1.00  0.00    -0.264 A  
HETATM   13  N   UNL     1      -7.771   7.843  65.154  1.00  0.00    -0.096 NA 
HETATM   14  C   UNL     1      -8.055   8.547  64.039  1.00  0.00    -0.156 A  
HETATM   15  N   UNL     1      -8.955   9.550  63.902  1.00  0.00    -0.215 NA 
BRANCH  11  16
HETATM   16  C   UNL     1     -10.969  11.831  64.417  1.00  0.00    -0.339 C  
HETATM   17  O   UNL     1     -10.223  12.989  64.812  1.00  0.00    -0.321 OA 
HETATM   18  C   UNL     1     -11.071  13.879  65.557  1.00  0.00    -0.304 C  
HETATM   19  H   UNL     1     -13.641  13.197  63.065  1.00  0.00     0.000 HD 
HETATM   20  O   UNL     1     -12.737  12.907  63.092  1.00  0.00    -0.606 OA 
HETATM   21  C   UNL     1     -12.506  13.381  65.431  1.00  0.00    -0.494 C  
HETATM   22  H   UNL     1     -14.251  14.156  64.953  1.00  0.00     0.000 HD 
HETATM   23  C   UNL     1     -12.432  12.300  64.372  1.00  0.00    -0.392 C  
HETATM   24  O   UNL     1     -13.356  14.465  65.032  1.00  0.00    -0.448 OA 
BRANCH  18  25
HETATM   25  C   UNL     1     -10.642  13.983  67.022  1.00  0.00    -0.279 C  
BRANCH  25  26
HETATM   26  O   UNL     1     -10.797  15.355  67.389  1.00  0.00    -0.298 OA 
BRANCH  26  27
HETATM   27  P   UNL     1      -9.909  16.392  66.545  1.00  0.00    -0.311 P  
HETATM   28  O   UNL     1      -8.548  15.521  66.489  1.00  0.00    -0.269 OA 
HETATM   29  O   UNL     1     -10.428  16.764  65.188  1.00  0.00    -0.658 OA 
BRANCH  27  30
HETATM   30  O   UNL     1      -9.720  17.664  67.553  1.00  0.00    -0.269 OA 
HETATM   31  P   UNL     1      -8.110  18.266  67.745  1.00  0.00    -0.258 P  
HETATM   32  C   UNL     1      -6.406  18.903  67.948  1.00  0.00    -0.204 C  
HETATM   33  O   UNL     1      -7.839  17.018  68.791  1.00  0.00    -0.243 OA 
HETATM   34  O   UNL     1      -7.705  17.785  66.327  1.00  0.00    -0.257 OA 
HETATM   35 CL   UNL     1      -5.135  17.612  67.702  1.00  0.00    -0.122 Cl 
HETATM   36  P   UNL     1      -6.040  20.102  66.614  1.00  0.00    -0.185 P  
HETATM   37 CL   UNL     1      -6.204  19.458  69.643  1.00  0.00    -0.315 Cl 
HETATM   38  O   UNL     1      -6.313  21.350  67.669  1.00  0.00    -0.451 OA 
HETATM   39  O   UNL     1      -7.641  20.165  66.177  1.00  0.00    -0.296 OA 
HETATM   40  O   UNL     1      -5.731  21.116  65.486  1.00  0.00    -0.235 OA 
ENDBRANCH  27  30
ENDBRANCH  26  27
ENDBRANCH  25  26
ENDBRANCH  18  25
ENDBRANCH  11  16
BRANCH  14  41
HETATM   41  S   UNL     1      -7.180   8.145  62.543  1.00  0.00    -0.099 SA 
BRANCH  41  42
HETATM   42  C   UNL     1      -7.401   6.334  62.508  1.00  0.00    -0.057 C  
BRANCH  42  43
HETATM   43  C   UNL     1      -6.067   5.680  62.844  1.00  0.00    -0.018 C  
HETATM   44  C   UNL     1      -6.238   4.259  63.333  1.00  0.00    -0.018 C  
HETATM   45  F   UNL     1      -5.504   3.406  62.579  1.00  0.00    -0.004 F  
HETATM   46  F   UNL     1      -7.516   3.837  63.295  1.00  0.00    -0.050 F  
HETATM   47  F   UNL     1      -5.803   4.134  64.607  1.00  0.00    -0.013 F  
ENDBRANCH  42  43
ENDBRANCH  41  42
ENDBRANCH  14  41
ENDBRANCH   5   7
ENDBRANCH   4   5
ENDBRANCH   3   4
ENDBRANCH   2   3
TORSDOF 12
ENDMDL
MODEL      121
REMARK 921   NORMALIZED FREE ENERGY PREDICTED BY IDOCK:   -4.78 KCAL/MOL
REMARK 922        TOTAL FREE ENERGY PREDICTED BY IDOCK:   -9.14 KCAL/MOL
REMARK 923 INTER-LIGAND FREE ENERGY PREDICTED BY IDOCK:   -7.34 KCAL/MOL
REMARK 924 INTRA-LIGAND FREE ENERGY PREDICTED BY IDOCK:   -1.80 KCAL/MOL
REMARK 927      BINDING AFFINITY PREDICTED BY RF-SCORE:    0.00 PKD
ROOT
HETATM    1  C   UNL     1      -6.217  16.553  69.167  1.00  0.00    -0.174 C  
HETATM    2  S   UNL     1      -5.250  15.236  69.940  1.00  0.00    -0.104 SA 
ENDROOT
BRANCH   2   3
HETATM    3  C   UNL     1      -6.364  13.815  69.623  1.00  0.00    -0.116 C  
BRANCH   3   4
HETATM    4  C   UNL     1      -6.630  13.613  68.116  1.00  0.00    -0.124 C  
BRANCH   4   5
HETATM    5  N   UNL     1      -5.543  12.875  67.496  1.00  0.00    -0.264 NA 
HETATM    6  H   UNL     1      -4.609  13.285  67.468  1.00  0.00     0.000 HD 
BRANCH   5   7
HETATM    7  C   UNL     1      -5.756  11.625  66.943  1.00  0.00    -0.139 A  
HETATM    8  C   UNL     1      -6.285  10.585  67.723  1.00  0.00    -0.055 A  
HETATM    9  N   UNL     1      -6.715  10.542  69.035  1.00  0.00    -0.059 NA 
HETATM   10  C   UNL     1      -7.193   9.318  69.195  1.00  0.00    -0.067 A  
HETATM   11  N   UNL     1      -7.063   8.560  68.051  1.00  0.00    -0.084 NA 
HETATM   12  C   UNL     1      -6.487   9.359  67.105  1.00  0.00    -0.067 A  
HETATM   13  N   UNL     1      -5.459  11.354  65.638  1.00  0.00    -0.158 NA 
HETATM   14  C   UNL     1      -5.663  10.104  65.174  1.00  0.00    -0.107 A  
HETATM   15  N   UNL     1      -6.192   9.050  65.841  1.00  0.00    -0.055 NA 
BRANCH  11  16
HETATM   16  C   UNL     1      -7.644   7.246  67.881  1.00  0.00    -0.111 C  
HETATM   17  O   UNL     1      -8.759   7.377  66.991  1.00  0.00    -0.119 OA 
HETATM   18  C   UNL     1      -9.984   7.307  67.739  1.00  0.00    -0.166 C  
HETATM   19  H   UNL     1      -8.468   4.551  69.581  1.00  0.00     0.000 HD 
HETATM   20  O   UNL     1      -8.131   5.035  68.836  1.00  0.00    -0.083 OA 
HETATM   21  C   UNL     1      -9.647   6.864  69.159  1.00  0.00    -0.144 C  
HETATM   22  H   UNL     1     -10.280   5.488  70.415  1.00  0.00     0.000 HD 
HETATM   23  C   UNL     1      -8.188   6.462  69.086  1.00  0.00    -0.111 C  
HETATM   24  O   UNL     1     -10.489   5.764  69.531  1.00  0.00    -0.235 OA 
BRANCH  18  25
HETATM   25  C   UNL     1     -10.736   8.639  67.732  1.00  0.00    -0.110 C  
BRANCH  25  26
HETATM   26  O   UNL     1     -10.745   9.102  69.083  1.00  0.00    -0.225 OA 
BRANCH  26  27
HETATM   27  P   UNL     1     -11.118  10.651  69.272  1.00  0.00    -0.291 P  
HETATM   28  O   UNL     1     -12.481  10.656  68.404  1.00  0.00    -0.033 OA 
HETATM   29  O   UNL     1     -11.316  11.121  70.683  1.00  0.00    -0.126 OA 
BRANCH  27  30
HETATM   30  O   UNL     1      -9.938  11.445  68.470  1.00  0.00    -0.190 OA 
HETATM   31  P   UNL     1     -10.413  12.861  67.597  1.00  0.00    -0.231 P  
HETATM   32  C   UNL     1     -10.916  14.359  66.674  1.00  0.00    -0.318 C  
HETATM   33  O   UNL     1     -10.962  11.861  66.404  1.00  0.00    -0.267 OA 
HETATM   34  O   UNL     1     -11.595  13.125  68.567  1.00  0.00    -0.282 OA 
HETATM   35 CL   UNL     1     -12.653  14.290  66.107  1.00  0.00    -0.395 Cl 
HETATM   36  P   UNL     1     -10.908  15.801  67.801  1.00  0.00    -0.294 P  
HETATM   37 CL   UNL     1      -9.928  14.466  65.179  1.00  0.00    -0.345 Cl 
HETATM   38  O   UNL     1      -9.446  16.272  67.179  1.00  0.00    -0.219 OA 
HETATM   39  O   UNL     1     -10.096  14.937  68.965  1.00  0.00    -0.227 OA 
HETATM   40  O   UNL     1     -10.900  17.021  68.754  1.00  0.00    -0.322 OA 
ENDBRANCH  27  30
ENDBRANCH  26  27
ENDBRANCH  25  26
ENDBRANCH  18  25
ENDBRANCH  11  16
BRANCH  14  41
HETATM   41  S   UNL     1      -5.192   9.741  63.497  1.00  0.00    -0.080 SA 
BRANCH  41  42
HETATM   42  C   UNL     1      -6.835   9.608  62.714  1.00  0.00    -0.102 C  
BRANCH  42  43
HETATM   43  C   UNL     1      -7.655  10.831  63.104  1.00  0.00     0.145 C  
HETATM   44  C   UNL     1      -8.823  10.473  63.996  1.00  0.00    -0.195 C  
HETATM   45  F   UNL     1      -8.777  11.186  65.146  1.00  0.00    -0.184 F  
HETATM   46  F   UNL     1      -8.853   9.168  64.328  1.00  0.00    -0.206 F  
HETATM   47  F   UNL     1      -9.995  10.770  63.393  1.00  0.00    -0.304 F  
ENDBRANCH  42  43
ENDBRANCH  41  42
ENDBRANCH  14  41
ENDBRANCH   5   7
ENDBRANCH   4   5
ENDBRANCH   3   4
ENDBRANCH   2   3
TORSDOF 12
ENDMDL
MODEL      122
REMARK 921   NORMALIZED FREE ENERGY PREDICTED BY IDOCK:   -4.78 KCAL/MOL
REMARK 922        TOTAL FREE ENERGY PREDICTED BY IDOCK:   -9.14 KCAL/MOL
REMARK 923 INTER-LIGAND FREE ENERGY PREDICTED BY IDOCK:   -8.79 KCAL/MOL
REMARK 924 INTRA-LIGAND FREE ENERGY PREDICTED BY IDOCK:   -0.35 KCAL/MOL
REMARK 927      BINDING AFFINITY PREDICTED BY RF-SCORE:    0.00 PKD
ROOT
HETATM    1  C   UNL     1      -8.609   4.956  71.167  1.00  0.00    -0.122 C  
HETATM    2  S   UNL     1      -9.710   5.440  72.516  1.00  0.00    -0.154 SA 
ENDROOT
BRANCH   2   3
HETATM    3  C   UNL     1      -9.779   7.247  72.218  1.00  0.00    -0.149 C  
BRANCH   3   4
HETATM    4  C   UNL     1      -9.383   7.611  70.771  1.00  0.00    -0.162 C  
BRANCH   4   5
HETATM    5  N   UNL     1     -10.562   7.745  69.932  1.00  0.00    -0.236 NA 
HETATM    6  H   UNL     1     -11.279   7.020  69.953  1.00  0.00     0.000 HD 
BRANCH   5   7
HETATM    7  C   UNL     1     -10.725   8.843  69.105  1.00  0.00    -0.143 A  
HETATM    8  C   UNL     1     -11.358  10.002  69.581  1.00  0.00    -0.202 A  
HETATM    9  N   UNL     1     -11.868  10.331  70.822  1.00  0.00    -0.336 NA 
HETATM   10  C   UNL     1     -12.264  11.589  70.702  1.00  0.00    -0.378 A  
HETATM   11  N   UNL     1     -12.059  12.075  69.428  1.00  0.00    -0.246 NA 
HETATM   12  C   UNL     1     -11.479  11.071  68.706  1.00  0.00    -0.305 A  
HETATM   13  N   UNL     1     -10.290   8.841  67.811  1.00  0.00    -0.228 NA 
HETATM   14  C   UNL     1     -10.512   9.934  67.053  1.00  0.00    -0.230 A  
HETATM   15  N   UNL     1     -11.086  11.101  67.431  1.00  0.00    -0.292 NA 
BRANCH  11  16
HETATM   16  C   UNL     1     -12.241  13.460  69.052  1.00  0.00    -0.148 C  
HETATM   17  O   UNL     1     -11.319  13.747  67.994  1.00  0.00    -0.260 OA 
HETATM   18  C   UNL     1     -10.221  14.520  68.507  1.00  0.00    -0.240 C  
HETATM   19  H   UNL     1     -12.703  16.447  70.354  1.00  0.00     0.000 HD 
HETATM   20  O   UNL     1     -12.831  15.749  69.722  1.00  0.00    -0.081 OA 
HETATM   21  C   UNL     1     -10.575  14.962  69.922  1.00  0.00    -0.129 C  
HETATM   22  H   UNL     1     -10.586  16.652  70.931  1.00  0.00     0.000 HD 
HETATM   23  C   UNL     1     -12.035  14.589  70.074  1.00  0.00    -0.330 C  
HETATM   24  O   UNL     1     -10.366  16.376  70.050  1.00  0.00    -0.189 OA 
BRANCH  18  25
HETATM   25  C   UNL     1      -8.907  13.737  68.477  1.00  0.00    -0.116 C  
BRANCH  25  26
HETATM   26  O   UNL     1      -7.969  14.554  67.776  1.00  0.00    -0.132 OA 
BRANCH  26  27
HETATM   27  P   UNL     1      -6.449  14.433  68.276  1.00  0.00    -0.147 P  
HETATM   28  O   UNL     1      -6.697  14.815  69.827  1.00  0.00    -0.155 OA 
HETATM   29  O   UNL     1      -5.792  13.097  68.095  1.00  0.00    -0.076 OA 
BRANCH  27  30
HETATM   30  O   UNL     1      -5.681  15.656  67.512  1.00  0.00    -0.237 OA 
HETATM   31  P   UNL     1      -6.440  17.209  67.579  1.00  0.00    -0.158 P  
HETATM   32  C   UNL     1      -7.244  18.851  67.651  1.00  0.00    -0.219 C  
HETATM   33  O   UNL     1      -7.448  16.695  66.377  1.00  0.00    -0.272 OA 
HETATM   34  O   UNL     1      -7.120  16.875  68.934  1.00  0.00    -0.197 OA 
HETATM   35 CL   UNL     1      -9.063  18.743  67.808  1.00  0.00    -0.301 Cl 
HETATM   36  P   UNL     1      -6.748  19.706  69.192  1.00  0.00    -0.339 P  
HETATM   37 CL   UNL     1      -6.947  19.699  66.097  1.00  0.00    -0.239 Cl 
HETATM   38  O   UNL     1      -5.656  20.609  68.332  1.00  0.00    -0.250 OA 
HETATM   39  O   UNL     1      -5.552  18.589  69.473  1.00  0.00    -0.207 OA 
HETATM   40  O   UNL     1      -6.328  20.430  70.494  1.00  0.00    -0.482 OA 
ENDBRANCH  27  30
ENDBRANCH  26  27
ENDBRANCH  25  26
ENDBRANCH  18  25
ENDBRANCH  11  16
BRANCH  14  41
HETATM   41  S   UNL     1     -10.018   9.887  65.344  1.00  0.00    -0.186 SA 
BRANCH  41  42
HETATM   42  C   UNL     1      -8.321   9.238  65.509  1.00  0.00    -0.133 C  
BRANCH  42  43
HETATM   43  C   UNL     1      -7.451  10.317  66.140  1.00  0.00    -0.121 C  
HETATM   44  C   UNL     1      -6.767   9.832  67.399  1.00  0.00    -0.074 C  
HETATM   45  F   UNL     1      -5.426   9.997  67.304  1.00  0.00    -0.041 F  
HETATM   46  F   UNL     1      -6.999   8.530  67.659  1.00  0.00    -0.071 F  
HETATM   47  F   UNL     1      -7.178  10.543  68.473  1.00  0.00    -0.075 F  
ENDBRANCH  42  43
ENDBRANCH  41  42
ENDBRANCH  14  41
ENDBRANCH   5   7
ENDBRANCH   4   5
ENDBRANCH   3   4
ENDBRANCH   2   3
TORSDOF 12
ENDMDL
MODEL      123
REMARK 921   NORMALIZED FREE ENERGY PREDICTED BY IDOCK:   -4.78 KCAL/MOL
REMARK 922        TOTAL FREE ENERGY PREDICTED BY IDOCK:   -9.14 KCAL/MOL
REMARK 923 INTER-LIGAND FREE ENERGY PREDICTED BY IDOCK:   -8.71 KCAL/MOL
REMARK 924 INTRA-LIGAND FREE ENERGY PREDICTED BY IDOCK:   -0.42 KCAL/MOL
REMARK 927      BINDING AFFINITY PREDICTED BY RF-SCORE:    0.00 PKD
ROOT
HETATM    1  C   UNL     1     -14.411   8.129  71.768  1.00  0.00    -0.484 C  
HETATM    2  S   UNL     1     -12.716   8.736  71.919  1.00  0.00    -0.401 SA 
ENDROOT
BRANCH   2   3
HETATM    3  C   UNL     1     -11.807   7.165  71.665  1.00  0.00    -0.306 C  
BRANCH   3   4
HETATM    4  C   UNL     1     -11.887   6.679  70.202  1.00  0.00    -0.284 C  
BRANCH   4   5
HETATM    5  N   UNL     1     -10.836   5.718  69.919  1.00  0.00    -0.347 NA 
HETATM    6  H   UNL     1     -10.982   4.733  70.138  1.00  0.00     0.000 HD 
BRANCH   5   7
HETATM    7  C   UNL     1      -9.637   6.121  69.356  1.00  0.00    -0.137 A  
HETATM    8  C   UNL     1      -9.609   7.163  68.417  1.00  0.00    -0.137 A  
HETATM    9  N   UNL     1     -10.604   7.977  67.911  1.00  0.00    -0.185 NA 
HETATM   10  C   UNL     1      -9.974   8.835  67.124  1.00  0.00    -0.230 A  
HETATM   11  N   UNL     1      -8.618   8.589  67.077  1.00  0.00    -0.120 NA 
HETATM   12  C   UNL     1      -8.374   7.527  67.899  1.00  0.00    -0.123 A  
HETATM   13  N   UNL     1      -8.453   5.525  69.681  1.00  0.00    -0.101 NA 
HETATM   14  C   UNL     1      -7.327   5.948  69.070  1.00  0.00    -0.084 A  
HETATM   15  N   UNL     1      -7.200   6.958  68.176  1.00  0.00    -0.089 NA 
BRANCH  11  16
HETATM   16  C   UNL     1      -7.661   9.463  66.433  1.00  0.00    -0.097 C  
HETATM   17  O   UNL     1      -8.317  10.711  66.179  1.00  0.00    -0.146 OA 
HETATM   18  C   UNL     1      -8.640  10.812  64.783  1.00  0.00    -0.075 C  
HETATM   19  H   UNL     1      -5.318   9.466  64.122  1.00  0.00     0.000 HD 
HETATM   20  O   UNL     1      -5.717   9.705  64.950  1.00  0.00    -0.062 OA 
HETATM   21  C   UNL     1      -7.939   9.672  64.051  1.00  0.00    -0.140 C  
HETATM   22  H   UNL     1      -6.780   9.485  62.473  1.00  0.00     0.000 HD 
HETATM   23  C   UNL     1      -7.015   9.076  65.093  1.00  0.00    -0.080 C  
HETATM   24  O   UNL     1      -7.216  10.195  62.928  1.00  0.00    -0.133 OA 
BRANCH  18  25
HETATM   25  C   UNL     1     -10.150  10.786  64.542  1.00  0.00    -0.350 C  
BRANCH  25  26
HETATM   26  O   UNL     1     -10.484  12.043  63.950  1.00  0.00    -0.327 OA 
BRANCH  26  27
HETATM   27  P   UNL     1     -11.823  12.727  64.509  1.00  0.00    -0.440 P  
HETATM   28  O   UNL     1     -12.685  12.672  63.144  1.00  0.00    -0.605 OA 
HETATM   29  O   UNL     1     -12.494  12.037  65.659  1.00  0.00    -0.390 OA 
BRANCH  27  30
HETATM   30  O   UNL     1     -11.378  14.266  64.831  1.00  0.00    -0.339 OA 
HETATM   31  P   UNL     1     -10.928  14.617  66.463  1.00  0.00    -0.326 P  
HETATM   32  C   UNL     1     -10.451  14.986  68.191  1.00  0.00    -0.245 C  
HETATM   33  O   UNL     1     -12.538  14.693  66.821  1.00  0.00    -0.035 OA 
HETATM   34  O   UNL     1     -10.463  13.156  66.703  1.00  0.00    -0.271 OA 
HETATM   35 CL   UNL     1     -11.288  13.903  69.404  1.00  0.00    -0.308 Cl 
HETATM   36  P   UNL     1      -8.682  14.587  68.435  1.00  0.00    -0.176 P  
HETATM   37 CL   UNL     1     -10.990  16.653  68.586  1.00  0.00    -0.344 Cl 
HETATM   38  O   UNL     1      -8.306  16.195  68.302  1.00  0.00    -0.163 OA 
HETATM   39  O   UNL     1      -8.451  14.432  66.798  1.00  0.00    -0.172 OA 
HETATM   40  O   UNL     1      -7.185  14.250  68.641  1.00  0.00    -0.110 OA 
ENDBRANCH  27  30
ENDBRANCH  26  27
ENDBRANCH  25  26
ENDBRANCH  18  25
ENDBRANCH  11  16
BRANCH  14  41
HETATM   41  S   UNL     1      -5.802   5.106  69.437  1.00  0.00    -0.021 SA 
BRANCH  41  42
HETATM   42  C   UNL     1      -5.416   4.395  67.802  1.00  0.00    -0.016 C  
BRANCH  42  43
HETATM   43  C   UNL     1      -6.560   3.476  67.393  1.00  0.00    -0.042 C  
HETATM   44  C   UNL     1      -7.201   3.908  66.092  1.00  0.00    -0.068 C  
HETATM   45  F   UNL     1      -7.187   2.892  65.197  1.00  0.00    -0.059 F  
HETATM   46  F   UNL     1      -6.581   4.960  65.522  1.00  0.00    -0.036 F  
HETATM   47  F   UNL     1      -8.494   4.249  66.284  1.00  0.00    -0.110 F  
ENDBRANCH  42  43
ENDBRANCH  41  42
ENDBRANCH  14  41
ENDBRANCH   5   7
ENDBRANCH   4   5
ENDBRANCH   3   4
ENDBRANCH   2   3
TORSDOF 12
ENDMDL
MODEL      124
REMARK 921   NORMALIZED FREE ENERGY PREDICTED BY IDOCK:   -4.72 KCAL/MOL
REMARK 922        TOTAL FREE ENERGY PREDICTED BY IDOCK:   -9.04 KCAL/MOL
REMARK 923 INTER-LIGAND FREE ENERGY PREDICTED BY IDOCK:   -7.24 KCAL/MOL
REMARK 924 INTRA-LIGAND FREE ENERGY PREDICTED BY IDOCK:   -1.80 KCAL/MOL
REMARK 927      BINDING AFFINITY PREDICTED BY RF-SCORE:    0.00 PKD
ROOT
HETATM    1  C   UNL     1     -12.302  13.302  70.592  1.00  0.00    -0.339 C  
HETATM    2  S   UNL     1     -13.022  12.196  71.825  1.00  0.00    -0.230 SA 
ENDROOT
BRANCH   2   3
HETATM    3  C   UNL     1     -12.998  10.627  70.878  1.00  0.00    -0.340 C  
BRANCH   3   4
HETATM    4  C   UNL     1     -11.607   9.957  70.905  1.00  0.00    -0.373 C  
BRANCH   4   5
HETATM    5  N   UNL     1     -11.496   8.959  69.855  1.00  0.00    -0.443 NA 
HETATM    6  H   UNL     1     -12.095   9.025  69.033  1.00  0.00     0.000 HD 
BRANCH   5   7
HETATM    7  C   UNL     1     -10.589   7.919  69.957  1.00  0.00    -0.242 A  
HETATM    8  C   UNL     1     -10.549   6.914  68.977  1.00  0.00    -0.217 A  
HETATM    9  N   UNL     1     -11.257   6.741  67.804  1.00  0.00    -0.187 NA 
HETATM   10  C   UNL     1     -10.732   5.661  67.247  1.00  0.00    -0.215 A  
HETATM   11  N   UNL     1      -9.734   5.113  68.026  1.00  0.00    -0.140 NA 
HETATM   12  C   UNL     1      -9.608   5.906  69.130  1.00  0.00    -0.136 A  
HETATM   13  N   UNL     1      -9.714   7.824  71.001  1.00  0.00    -0.163 NA 
HETATM   14  C   UNL     1      -8.880   6.766  71.052  1.00  0.00    -0.141 A  
HETATM   15  N   UNL     1      -8.751   5.769  70.144  1.00  0.00    -0.137 NA 
BRANCH  11  16
HETATM   16  C   UNL     1      -8.875   4.032  67.596  1.00  0.00    -0.115 C  
HETATM   17  O   UNL     1      -7.533   4.533  67.560  1.00  0.00    -0.072 OA 
HETATM   18  C   UNL     1      -7.138   4.762  66.198  1.00  0.00    -0.075 C  
HETATM   19  H   UNL     1      -8.718   1.572  65.415  1.00  0.00     0.000 HD 
HETATM   20  O   UNL     1      -8.591   1.990  66.258  1.00  0.00    -0.101 OA 
HETATM   21  C   UNL     1      -8.197   4.148  65.289  1.00  0.00    -0.102 C  
HETATM   22  H   UNL     1      -8.224   2.925  63.747  1.00  0.00     0.000 HD 
HETATM   23  C   UNL     1      -9.080   3.355  66.231  1.00  0.00    -0.155 C  
HETATM   24  O   UNL     1      -7.564   3.309  64.313  1.00  0.00    -0.073 OA 
BRANCH  18  25
HETATM   25  C   UNL     1      -6.943   6.250  65.901  1.00  0.00    -0.061 C  
BRANCH  25  26
HETATM   26  O   UNL     1      -8.245   6.789  65.673  1.00  0.00    -0.122 OA 
BRANCH  26  27
HETATM   27  P   UNL     1      -8.274   8.291  65.109  1.00  0.00    -0.132 P  
HETATM   28  O   UNL     1      -8.196   7.936  63.534  1.00  0.00    -0.114 OA 
HETATM   29  O   UNL     1      -9.475   9.115  65.469  1.00  0.00    -0.250 OA 
BRANCH  27  30
HETATM   30  O   UNL     1      -6.858   8.931  65.611  1.00  0.00    -0.074 OA 
HETATM   31  P   UNL     1      -6.947  10.119  66.865  1.00  0.00    -0.095 P  
HETATM   32  C   UNL     1      -7.043  11.376  68.192  1.00  0.00    -0.075 C  
HETATM   33  O   UNL     1      -7.374  11.215  65.706  1.00  0.00     0.007 OA 
HETATM   34  O   UNL     1      -8.254   9.501  67.428  1.00  0.00    -0.113 OA 
HETATM   35 CL   UNL     1      -8.621  12.300  68.180  1.00  0.00    -0.176 Cl 
HETATM   36  P   UNL     1      -7.066  10.542  69.821  1.00  0.00    -0.098 P  
HETATM   37 CL   UNL     1      -5.766  12.605  67.906  1.00  0.00    -0.096 Cl 
HETATM   38  O   UNL     1      -5.458  10.891  70.017  1.00  0.00    -0.051 OA 
HETATM   39  O   UNL     1      -6.634   9.095  69.131  1.00  0.00    -0.049 OA 
HETATM   40  O   UNL     1      -7.085   9.837  71.200  1.00  0.00    -0.332 OA 
ENDBRANCH  27  30
ENDBRANCH  26  27
ENDBRANCH  25  26
ENDBRANCH  18  25
ENDBRANCH  11  16
BRANCH  14  41
HETATM   41  S   UNL     1      -7.805   6.609  72.461  1.00  0.00    -0.102 SA 
BRANCH  41  42
HETATM   42  C   UNL     1      -8.581   5.192  73.310  1.00  0.00    -0.113 C  
BRANCH  42  43
HETATM   43  C   UNL     1     -10.000   5.583  73.701  1.00  0.00    -0.189 C  
HETATM   44  C   UNL     1     -11.039   4.817  72.912  1.00  0.00    -0.224 C  
HETATM   45  F   UNL     1     -11.890   4.175  73.747  1.00  0.00    -0.218 F  
HETATM   46  F   UNL     1     -10.503   3.893  72.090  1.00  0.00    -0.244 F  
HETATM   47  F   UNL     1     -11.782   5.655  72.156  1.00  0.00    -0.324 F  
ENDBRANCH  42  43
ENDBRANCH  41  42
ENDBRANCH  14  41
ENDBRANCH   5   7
ENDBRANCH   4   5
ENDBRANCH   3   4
ENDBRANCH   2   3
TORSDOF 12
ENDMDL
MODEL      125
REMARK 921   NORMALIZED FREE ENERGY PREDICTED BY IDOCK:   -4.66 KCAL/MOL
REMARK 922        TOTAL FREE ENERGY PREDICTED BY IDOCK:   -8.94 KCAL/MOL
REMARK 923 INTER-LIGAND FREE ENERGY PREDICTED BY IDOCK:   -8.03 KCAL/MOL
REMARK 924 INTRA-LIGAND FREE ENERGY PREDICTED BY IDOCK:   -0.90 KCAL/MOL
REMARK 927      BINDING AFFINITY PREDICTED BY RF-SCORE:    0.00 PKD
ROOT
HETATM    1  C   UNL     1     -10.578   3.528  62.991  1.00  0.00    -0.223 C  
HETATM    2  S   UNL     1     -10.139   1.780  63.127  1.00  0.00    -0.122 SA 
ENDROOT
BRANCH   2   3
HETATM    3  C   UNL     1      -8.657   1.922  64.197  1.00  0.00    -0.083 C  
BRANCH   3   4
HETATM    4  C   UNL     1      -8.978   1.605  65.673  1.00  0.00    -0.110 C  
BRANCH   4   5
HETATM    5  N   UNL     1      -9.671   2.718  66.300  1.00  0.00    -0.364 NA 
HETATM    6  H   UNL     1     -10.655   2.880  66.089  1.00  0.00     0.000 HD 
BRANCH   5   7
HETATM    7  C   UNL     1      -9.013   3.561  67.179  1.00  0.00    -0.149 A  
HETATM    8  C   UNL     1      -8.379   4.721  66.709  1.00  0.00    -0.106 A  
HETATM    9  N   UNL     1      -8.292   5.279  65.448  1.00  0.00    -0.130 NA 
HETATM   10  C   UNL     1      -7.643   6.419  65.625  1.00  0.00    -0.086 A  
HETATM   11  N   UNL     1      -7.282   6.606  66.943  1.00  0.00    -0.076 NA 
HETATM   12  C   UNL     1      -7.749   5.531  67.643  1.00  0.00    -0.093 A  
HETATM   13  N   UNL     1      -8.949   3.298  68.517  1.00  0.00    -0.119 NA 
HETATM   14  C   UNL     1      -8.264   4.147  69.311  1.00  0.00    -0.065 A  
HETATM   15  N   UNL     1      -7.648   5.299  68.953  1.00  0.00    -0.080 NA 
BRANCH  11  16
HETATM   16  C   UNL     1      -6.712   7.832  67.458  1.00  0.00    -0.068 C  
HETATM   17  O   UNL     1      -7.645   8.383  68.396  1.00  0.00    -0.093 OA 
HETATM   18  C   UNL     1      -8.323   9.502  67.801  1.00  0.00    -0.118 C  
HETATM   19  H   UNL     1      -5.076  10.521  66.496  1.00  0.00     0.000 HD 
HETATM   20  O   UNL     1      -5.293   9.802  67.077  1.00  0.00    -0.041 OA 
HETATM   21  C   UNL     1      -7.618   9.842  66.493  1.00  0.00    -0.098 C  
HETATM   22  H   UNL     1      -6.881  11.457  65.644  1.00  0.00     0.000 HD 
HETATM   23  C   UNL     1      -6.361   8.996  66.518  1.00  0.00    -0.066 C  
HETATM   24  O   UNL     1      -7.320  11.245  66.459  1.00  0.00    -0.143 OA 
BRANCH  18  25
HETATM   25  C   UNL     1      -9.809   9.216  67.577  1.00  0.00    -0.177 C  
BRANCH  25  26
HETATM   26  O   UNL     1     -10.450   9.408  68.839  1.00  0.00    -0.208 OA 
BRANCH  26  27
HETATM   27  P   UNL     1     -10.929  10.910  69.140  1.00  0.00    -0.276 P  
HETATM   28  O   UNL     1     -12.041  11.025  67.972  1.00  0.00    -0.615 OA 
HETATM   29  O   UNL     1     -11.483  11.171  70.509  1.00  0.00    -0.269 OA 
BRANCH  27  30
HETATM   30  O   UNL     1      -9.627  11.825  68.768  1.00  0.00    -0.152 OA 
HETATM   31  P   UNL     1      -9.945  13.368  68.054  1.00  0.00    -0.247 P  
HETATM   32  C   UNL     1     -10.281  15.001  67.300  1.00  0.00    -0.242 C  
HETATM   33  O   UNL     1     -10.176  12.584  66.620  1.00  0.00    -0.225 OA 
HETATM   34  O   UNL     1     -11.323  13.469  68.760  1.00  0.00    -0.254 OA 
HETATM   35 CL   UNL     1     -11.843  15.033  66.349  1.00  0.00    -0.129 Cl 
HETATM   36  P   UNL     1     -10.577  16.234  68.620  1.00  0.00    -0.340 P  
HETATM   37 CL   UNL     1      -8.987  15.355  66.107  1.00  0.00    -0.345 Cl 
HETATM   38  O   UNL     1      -9.031  16.798  68.433  1.00  0.00    -0.217 OA 
HETATM   39  O   UNL     1     -10.018  15.185  69.780  1.00  0.00    -0.216 OA 
HETATM   40  O   UNL     1     -10.827  17.277  69.737  1.00  0.00    -0.035 OA 
ENDBRANCH  27  30
ENDBRANCH  26  27
ENDBRANCH  25  26
ENDBRANCH  18  25
ENDBRANCH  11  16
BRANCH  14  41
HETATM   41  S   UNL     1      -8.114   3.749  71.039  1.00  0.00    -0.067 SA 
BRANCH  41  42
HETATM   42  C   UNL     1      -9.868   3.798  71.541  1.00  0.00    -0.165 C  
BRANCH  42  43
HETATM   43  C   UNL     1     -10.159   5.168  72.140  1.00  0.00    -0.247 C  
HETATM   44  C   UNL     1     -10.865   6.079  71.160  1.00  0.00    -0.277 C  
HETATM   45  F   UNL     1     -12.024   6.538  71.690  1.00  0.00    -0.330 F  
HETATM   46  F   UNL     1     -11.164   5.472  69.995  1.00  0.00    -0.376 F  
HETATM   47  F   UNL     1     -10.104   7.160  70.876  1.00  0.00    -0.191 F  
ENDBRANCH  42  43
ENDBRANCH  41  42
ENDBRANCH  14  41
ENDBRANCH   5   7
ENDBRANCH   4   5
ENDBRANCH   3   4
ENDBRANCH   2   3
TORSDOF 12
ENDMDL
MODEL      126
REMARK 921   NORMALIZED FREE ENERGY PREDICTED BY IDOCK:   -4.60 KCAL/MOL
REMARK 922        TOTAL FREE ENERGY PREDICTED BY IDOCK:   -8.83 KCAL/MOL
REMARK 923 INTER-LIGAND FREE ENERGY PREDICTED BY IDOCK:   -7.61 KCAL/MOL
REMARK 924 INTRA-LIGAND FREE ENERGY PREDICTED BY IDOCK:   -1.22 KCAL/MOL
REMARK 927      BINDING AFFINITY PREDICTED BY RF-SCORE:    0.00 PKD
ROOT
HETATM    1  C   UNL     1     -11.521   2.647  73.943  1.00  0.00     0.032 C  
HETATM    2  S   UNL     1     -10.118   3.586  73.300  1.00  0.00    -0.145 SA 
ENDROOT
BRANCH   2   3
HETATM    3  C   UNL     1     -10.970   5.150  72.870  1.00  0.00    -0.284 C  
BRANCH   3   4
HETATM    4  C   UNL     1     -10.606   6.294  73.840  1.00  0.00    -0.215 C  
BRANCH   4   5
HETATM    5  N   UNL     1     -11.186   7.550  73.398  1.00  0.00    -0.610 NA 
HETATM    6  H   UNL     1     -12.061   7.872  73.811  1.00  0.00     0.000 HD 
BRANCH   5   7
HETATM    7  C   UNL     1     -10.569   8.315  72.423  1.00  0.00    -0.337 A  
HETATM    8  C   UNL     1     -11.322   9.190  71.625  1.00  0.00    -0.376 A  
HETATM    9  N   UNL     1     -12.665   9.513  71.625  1.00  0.00    -0.360 NA 
HETATM   10  C   UNL     1     -12.785  10.461  70.708  1.00  0.00    -0.371 A  
HETATM   11  N   UNL     1     -11.581  10.741  70.096  1.00  0.00    -0.311 NA 
HETATM   12  C   UNL     1     -10.641   9.937  70.675  1.00  0.00    -0.271 A  
HETATM   13  N   UNL     1      -9.224   8.245  72.197  1.00  0.00    -0.198 NA 
HETATM   14  C   UNL     1      -8.695   8.996  71.209  1.00  0.00    -0.171 A  
HETATM   15  N   UNL     1      -9.335   9.883  70.411  1.00  0.00    -0.117 NA 
BRANCH  11  16
HETATM   16  C   UNL     1     -11.378  11.840  69.177  1.00  0.00    -0.279 C  
HETATM   17  O   UNL     1     -12.028  11.501  67.946  1.00  0.00    -0.618 OA 
HETATM   18  C   UNL     1     -11.044  11.120  66.970  1.00  0.00    -0.273 C  
HETATM   19  H   UNL     1      -9.072  13.950  68.148  1.00  0.00     0.000 HD 
HETATM   20  O   UNL     1      -9.947  13.679  68.400  1.00  0.00    -0.231 OA 
HETATM   21  C   UNL     1      -9.667  11.464  67.527  1.00  0.00    -0.178 C  
HETATM   22  H   UNL     1      -8.073  12.432  66.901  1.00  0.00     0.000 HD 
HETATM   23  C   UNL     1      -9.963  12.278  68.770  1.00  0.00    -0.034 C  
HETATM   24  O   UNL     1      -8.930  12.218  66.554  1.00  0.00    -0.208 OA 
BRANCH  18  25
HETATM   25  C   UNL     1     -11.146   9.639  66.603  1.00  0.00     0.449 C  
BRANCH  25  26
HETATM   26  O   UNL     1     -10.134   8.969  67.357  1.00  0.00    -0.196 OA 
BRANCH  26  27
HETATM   27  P   UNL     1     -10.090   7.375  67.176  1.00  0.00    -0.295 P  
HETATM   28  O   UNL     1      -9.481   7.006  68.626  1.00  0.00    -0.137 OA 
HETATM   29  O   UNL     1     -11.400   6.699  66.897  1.00  0.00    -0.333 OA 
BRANCH  27  30
HETATM   30  O   UNL     1      -8.964   7.138  66.016  1.00  0.00    -0.161 OA 
HETATM   31  P   UNL     1      -8.449   5.506  65.760  1.00  0.00    -0.142 P  
HETATM   32  C   UNL     1      -7.905   3.780  65.490  1.00  0.00    -0.093 C  
HETATM   33  O   UNL     1      -7.479   5.674  67.086  1.00  0.00    -0.082 OA 
HETATM   34  O   UNL     1      -9.812   4.946  66.245  1.00  0.00    -0.167 OA 
HETATM   35 CL   UNL     1      -8.035   2.753  66.997  1.00  0.00    -0.075 Cl 
HETATM   36  P   UNL     1      -9.053   2.954  64.328  1.00  0.00    -0.126 P  
HETATM   37 CL   UNL     1      -6.160   3.792  65.068  1.00  0.00    -0.023 Cl 
HETATM   38  O   UNL     1      -7.961   3.175  63.101  1.00  0.00    -0.070 OA 
HETATM   39  O   UNL     1      -9.751   4.405  63.923  1.00  0.00    -0.112 OA 
HETATM   40  O   UNL     1     -10.023   2.255  63.344  1.00  0.00    -0.112 OA 
ENDBRANCH  27  30
ENDBRANCH  26  27
ENDBRANCH  25  26
ENDBRANCH  18  25
ENDBRANCH  11  16
BRANCH  14  41
HETATM   41  S   UNL     1      -6.956   8.832  70.867  1.00  0.00    -0.081 SA 
BRANCH  41  42
HETATM   42  C   UNL     1      -6.726  10.194  69.675  1.00  0.00    -0.076 C  
BRANCH  42  43
HETATM   43  C   UNL     1      -5.463   9.920  68.868  1.00  0.00    -0.035 C  
HETATM   44  C   UNL     1      -5.776   9.391  67.485  1.00  0.00    -0.041 C  
HETATM   45  F   UNL     1      -5.196  10.167  66.539  1.00  0.00    -0.037 F  
HETATM   46  F   UNL     1      -7.097   9.349  67.222  1.00  0.00    -0.081 F  
HETATM   47  F   UNL     1      -5.287   8.141  67.328  1.00  0.00    -0.032 F  
ENDBRANCH  42  43
ENDBRANCH  41  42
ENDBRANCH  14  41
ENDBRANCH   5   7
ENDBRANCH   4   5
ENDBRANCH   3   4
ENDBRANCH   2   3
TORSDOF 12
ENDMDL
MODEL      127
REMARK 921   NORMALIZED FREE ENERGY PREDICTED BY IDOCK:   -4.58 KCAL/MOL
REMARK 922        TOTAL FREE ENERGY PREDICTED BY IDOCK:   -8.80 KCAL/MOL
REMARK 923 INTER-LIGAND FREE ENERGY PREDICTED BY IDOCK:   -7.61 KCAL/MOL
REMARK 924 INTRA-LIGAND FREE ENERGY PREDICTED BY IDOCK:   -1.20 KCAL/MOL
REMARK 927      BINDING AFFINITY PREDICTED BY RF-SCORE:    0.00 PKD
ROOT
HETATM    1  C   UNL     1     -10.517  18.013  67.478  1.00  0.00    -0.396 C  
HETATM    2  S   UNL     1     -10.317  17.135  69.044  1.00  0.00    -0.297 SA 
ENDROOT
BRANCH   2   3
HETATM    3  C   UNL     1     -11.702  15.943  68.904  1.00  0.00    -0.370 C  
BRANCH   3   4
HETATM    4  C   UNL     1     -11.660  15.160  67.575  1.00  0.00    -0.257 C  
BRANCH   4   5
HETATM    5  N   UNL     1     -11.429  13.746  67.817  1.00  0.00    -0.303 NA 
HETATM    6  H   UNL     1     -12.216  13.142  68.055  1.00  0.00     0.000 HD 
BRANCH   5   7
HETATM    7  C   UNL     1     -10.158  13.207  67.730  1.00  0.00    -0.226 A  
HETATM    8  C   UNL     1      -9.906  12.113  66.888  1.00  0.00    -0.203 A  
HETATM    9  N   UNL     1     -10.719  11.414  66.017  1.00  0.00    -0.271 NA 
HETATM   10  C   UNL     1      -9.915  10.540  65.430  1.00  0.00    -0.289 A  
HETATM   11  N   UNL     1      -8.624  10.627  65.909  1.00  0.00    -0.167 NA 
HETATM   12  C   UNL     1      -8.608  11.628  66.837  1.00  0.00    -0.174 A  
HETATM   13  N   UNL     1      -9.113  13.706  68.454  1.00  0.00    -0.189 NA 
HETATM   14  C   UNL     1      -7.907  13.111  68.344  1.00  0.00    -0.135 A  
HETATM   15  N   UNL     1      -7.567  12.074  67.542  1.00  0.00    -0.137 NA 
BRANCH  11  16
HETATM   16  C   UNL     1      -7.502   9.914  65.338  1.00  0.00    -0.132 C  
HETATM   17  O   UNL     1      -8.026   8.819  64.576  1.00  0.00    -0.125 OA 
HETATM   18  C   UNL     1      -7.833   7.592  65.299  1.00  0.00    -0.122 C  
HETATM   19  H   UNL     1      -4.492   8.815  66.089  1.00  0.00     0.000 HD 
HETATM   20  O   UNL     1      -5.159   9.201  65.533  1.00  0.00    -0.035 OA 
HETATM   21  C   UNL     1      -6.919   7.880  66.484  1.00  0.00    -0.071 C  
HETATM   22  H   UNL     1      -5.275   7.108  67.242  1.00  0.00     0.000 HD 
HETATM   23  C   UNL     1      -6.423   9.290  66.237  1.00  0.00    -0.066 C  
HETATM   24  O   UNL     1      -5.845   6.929  66.504  1.00  0.00    -0.027 OA 
BRANCH  18  25
HETATM   25  C   UNL     1      -9.161   6.981  65.752  1.00  0.00     0.058 C  
BRANCH  25  26
HETATM   26  O   UNL     1      -9.090   6.877  67.175  1.00  0.00    -0.126 OA 
BRANCH  26  27
HETATM   27  P   UNL     1      -9.874   5.629  67.808  1.00  0.00    -0.154 P  
HETATM   28  O   UNL     1     -10.907   5.377  66.591  1.00  0.00    -0.277 OA 
HETATM   29  O   UNL     1      -9.049   4.422  68.141  1.00  0.00    -0.114 OA 
BRANCH  27  30
HETATM   30  O   UNL     1     -10.662   6.265  69.091  1.00  0.00    -0.234 OA 
HETATM   31  P   UNL     1      -9.782   6.343  70.578  1.00  0.00    -0.169 P  
HETATM   32  C   UNL     1      -8.850   6.426  72.151  1.00  0.00    -0.136 C  
HETATM   33  O   UNL     1     -10.121   4.741  70.787  1.00  0.00    -0.225 OA 
HETATM   34  O   UNL     1      -8.426   6.442  69.830  1.00  0.00    -0.128 OA 
HETATM   35 CL   UNL     1      -7.582   5.117  72.292  1.00  0.00    -0.094 Cl 
HETATM   36  P   UNL     1      -7.860   7.965  72.193  1.00  0.00    -0.125 P  
HETATM   37 CL   UNL     1      -9.992   6.136  73.506  1.00  0.00    -0.179 Cl 
HETATM   38  O   UNL     1      -8.997   8.664  73.175  1.00  0.00    -0.310 OA 
HETATM   39  O   UNL     1      -8.673   8.571  70.877  1.00  0.00    -0.139 OA 
HETATM   40  O   UNL     1      -7.022   9.267  72.228  1.00  0.00    -0.302 OA 
ENDBRANCH  27  30
ENDBRANCH  26  27
ENDBRANCH  25  26
ENDBRANCH  18  25
ENDBRANCH  11  16
BRANCH  14  41
HETATM   41  S   UNL     1      -6.575  13.715  69.357  1.00  0.00    -0.056 SA 
BRANCH  41  42
HETATM   42  C   UNL     1      -5.437  14.333  68.070  1.00  0.00    -0.117 C  
BRANCH  42  43
HETATM   43  C   UNL     1      -5.146  15.802  68.350  1.00  0.00    -0.095 C  
HETATM   44  C   UNL     1      -6.024  16.722  67.531  1.00  0.00    -0.152 C  
HETATM   45  F   UNL     1      -6.697  17.576  68.338  1.00  0.00    -0.170 F  
HETATM   46  F   UNL     1      -6.934  16.062  66.789  1.00  0.00    -0.236 F  
HETATM   47  F   UNL     1      -5.278  17.475  66.692  1.00  0.00    -0.139 F  
ENDBRANCH  42  43
ENDBRANCH  41  42
ENDBRANCH  14  41
ENDBRANCH   5   7
ENDBRANCH   4   5
ENDBRANCH   3   4
ENDBRANCH   2   3
TORSDOF 12
ENDMDL
MODEL      128
REMARK 921   NORMALIZED FREE ENERGY PREDICTED BY IDOCK:   -4.57 KCAL/MOL
REMARK 922        TOTAL FREE ENERGY PREDICTED BY IDOCK:   -8.78 KCAL/MOL
REMARK 923 INTER-LIGAND FREE ENERGY PREDICTED BY IDOCK:   -8.18 KCAL/MOL
REMARK 924 INTRA-LIGAND FREE ENERGY PREDICTED BY IDOCK:   -0.60 KCAL/MOL
REMARK 927      BINDING AFFINITY PREDICTED BY RF-SCORE:    0.00 PKD
ROOT
HETATM    1  C   UNL     1      -5.150   6.675  70.105  1.00  0.00    -0.014 C  
HETATM    2  S   UNL     1      -5.168   8.403  70.632  1.00  0.00    -0.021 SA 
ENDROOT
BRANCH   2   3
HETATM    3  C   UNL     1      -5.640   9.199  69.050  1.00  0.00    -0.036 C  
BRANCH   3   4
HETATM    4  C   UNL     1      -5.866  10.718  69.211  1.00  0.00    -0.042 C  
BRANCH   4   5
HETATM    5  N   UNL     1      -5.803  11.388  67.924  1.00  0.00    -0.043 NA 
HETATM    6  H   UNL     1      -4.895  11.598  67.510  1.00  0.00     0.000 HD 
BRANCH   5   7
HETATM    7  C   UNL     1      -6.959  11.744  67.250  1.00  0.00    -0.138 A  
HETATM    8  C   UNL     1      -7.545  13.002  67.464  1.00  0.00    -0.165 A  
HETATM    9  N   UNL     1      -7.164  14.077  68.243  1.00  0.00    -0.101 NA 
HETATM   10  C   UNL     1      -8.056  15.019  67.980  1.00  0.00    -0.130 A  
HETATM   11  N   UNL     1      -9.013  14.587  67.086  1.00  0.00    -0.219 NA 
HETATM   12  C   UNL     1      -8.695  13.302  66.749  1.00  0.00    -0.080 A  
HETATM   13  N   UNL     1      -7.570  10.898  66.371  1.00  0.00    -0.144 NA 
HETATM   14  C   UNL     1      -8.711  11.300  65.774  1.00  0.00    -0.109 A  
HETATM   15  N   UNL     1      -9.332  12.497  65.897  1.00  0.00    -0.106 NA 
BRANCH  11  16
HETATM   16  C   UNL     1     -10.011  15.449  66.491  1.00  0.00    -0.268 C  
HETATM   17  O   UNL     1     -11.229  15.274  67.226  1.00  0.00    -0.335 OA 
HETATM   18  C   UNL     1     -12.144  14.473  66.461  1.00  0.00    -0.309 C  
HETATM   19  H   UNL     1     -11.144  16.451  63.568  1.00  0.00     0.000 HD 
HETATM   20  O   UNL     1     -10.895  16.549  64.479  1.00  0.00    -0.802 OA 
HETATM   21  C   UNL     1     -11.579  14.324  65.053  1.00  0.00    -0.367 C  
HETATM   22  H   UNL     1     -12.237  14.570  63.215  1.00  0.00     0.000 HD 
HETATM   23  C   UNL     1     -10.413  15.291  65.016  1.00  0.00    -0.382 C  
HETATM   24  O   UNL     1     -12.589  14.663  64.092  1.00  0.00    -0.766 OA 
BRANCH  18  25
HETATM   25  C   UNL     1     -12.393  13.111  67.111  1.00  0.00    -0.031 C  
BRANCH  25  26
HETATM   26  O   UNL     1     -11.517  13.037  68.237  1.00  0.00    -0.270 OA 
BRANCH  26  27
HETATM   27  P   UNL     1     -11.784  11.806  69.231  1.00  0.00    -0.340 P  
HETATM   28  O   UNL     1     -12.287  12.659  70.508  1.00  0.00    -0.337 OA 
HETATM   29  O   UNL     1     -12.783  10.784  68.773  1.00  0.00    -0.054 OA 
BRANCH  27  30
HETATM   30  O   UNL     1     -10.296  11.194  69.514  1.00  0.00    -0.129 OA 
HETATM   31  P   UNL     1     -10.191   9.481  69.726  1.00  0.00    -0.265 P  
HETATM   32  C   UNL     1     -10.081   7.668  69.949  1.00  0.00    -0.198 C  
HETATM   33  O   UNL     1     -10.719   9.705  71.274  1.00  0.00    -0.335 OA 
HETATM   34  O   UNL     1     -11.439   9.243  68.835  1.00  0.00     0.222 OA 
HETATM   35 CL   UNL     1     -11.617   6.943  70.627  1.00  0.00    -0.380 Cl 
HETATM   36  P   UNL     1      -9.932   6.860  68.313  1.00  0.00    -0.167 P  
HETATM   37 CL   UNL     1      -8.808   7.320  71.166  1.00  0.00    -0.139 Cl 
HETATM   38  O   UNL     1      -8.302   6.688  68.552  1.00  0.00    -0.121 OA 
HETATM   39  O   UNL     1      -9.637   8.318  67.575  1.00  0.00    -0.145 OA 
HETATM   40  O   UNL     1      -9.806   6.176  66.929  1.00  0.00    -0.143 OA 
ENDBRANCH  27  30
ENDBRANCH  26  27
ENDBRANCH  25  26
ENDBRANCH  18  25
ENDBRANCH  11  16
BRANCH  14  41
HETATM   41  S   UNL     1      -9.545  10.156  64.696  1.00  0.00    -0.303 SA 
BRANCH  41  42
HETATM   42  C   UNL     1      -8.118   9.424  63.825  1.00  0.00    -0.155 C  
BRANCH  42  43
HETATM   43  C   UNL     1      -8.028   7.951  64.202  1.00  0.00    -0.125 C  
HETATM   44  C   UNL     1      -6.678   7.594  64.784  1.00  0.00    -0.050 C  
HETATM   45  F   UNL     1      -6.824   7.026  66.005  1.00  0.00    -0.051 F  
HETATM   46  F   UNL     1      -5.866   8.659  64.927  1.00  0.00    -0.054 F  
HETATM   47  F   UNL     1      -6.041   6.694  64.003  1.00  0.00    -0.031 F  
ENDBRANCH  42  43
ENDBRANCH  41  42
ENDBRANCH  14  41
ENDBRANCH   5   7
ENDBRANCH   4   5
ENDBRANCH   3   4
ENDBRANCH   2   3
TORSDOF 12
ENDMDL
MODEL      129
REMARK 921   NORMALIZED FREE ENERGY PREDICTED BY IDOCK:   -4.55 KCAL/MOL
REMARK 922        TOTAL FREE ENERGY PREDICTED BY IDOCK:   -8.75 KCAL/MOL
REMARK 923 INTER-LIGAND FREE ENERGY PREDICTED BY IDOCK:   -8.47 KCAL/MOL
REMARK 924 INTRA-LIGAND FREE ENERGY PREDICTED BY IDOCK:   -0.28 KCAL/MOL
REMARK 927      BINDING AFFINITY PREDICTED BY RF-SCORE:    0.00 PKD
ROOT
HETATM    1  C   UNL     1      -7.400   9.308  64.789  1.00  0.00    -0.103 C  
HETATM    2  S   UNL     1      -7.338   7.808  65.793  1.00  0.00    -0.078 SA 
ENDROOT
BRANCH   2   3
HETATM    3  C   UNL     1      -8.008   6.605  64.584  1.00  0.00    -0.113 C  
BRANCH   3   4
HETATM    4  C   UNL     1      -7.529   5.166  64.872  1.00  0.00    -0.072 C  
BRANCH   4   5
HETATM    5  N   UNL     1      -8.563   4.404  65.550  1.00  0.00    -0.118 NA 
HETATM    6  H   UNL     1      -9.244   3.880  65.001  1.00  0.00     0.000 HD 
BRANCH   5   7
HETATM    7  C   UNL     1      -8.638   4.379  66.932  1.00  0.00    -0.104 A  
HETATM    8  C   UNL     1      -9.638   5.101  67.602  1.00  0.00    -0.140 A  
HETATM    9  N   UNL     1     -10.686   5.873  67.138  1.00  0.00    -0.292 NA 
HETATM   10  C   UNL     1     -11.350   6.233  68.226  1.00  0.00     0.040 A  
HETATM   11  N   UNL     1     -10.757   5.750  69.374  1.00  0.00    -0.316 NA 
HETATM   12  C   UNL     1      -9.666   5.025  68.986  1.00  0.00    -0.170 A  
HETATM   13  N   UNL     1      -7.752   3.669  67.689  1.00  0.00    -0.073 NA 
HETATM   14  C   UNL     1      -7.865   3.716  69.032  1.00  0.00    -0.051 A  
HETATM   15  N   UNL     1      -8.808   4.360  69.761  1.00  0.00    -0.080 NA 
BRANCH  11  16
HETATM   16  C   UNL     1     -11.349   5.844  70.690  1.00  0.00    -0.136 C  
HETATM   17  O   UNL     1     -12.379   6.839  70.631  1.00  0.00    -0.359 OA 
HETATM   18  C   UNL     1     -11.923   8.045  71.265  1.00  0.00    -0.296 C  
HETATM   19  H   UNL     1     -10.548   5.912  73.882  1.00  0.00     0.000 HD 
HETATM   20  O   UNL     1     -11.073   5.676  73.126  1.00  0.00    -0.272 OA 
HETATM   21  C   UNL     1     -10.616   7.735  71.986  1.00  0.00    -0.228 C  
HETATM   22  H   UNL     1      -9.878   8.009  73.789  1.00  0.00     0.000 HD 
HETATM   23  C   UNL     1     -10.500   6.226  71.913  1.00  0.00    -0.209 C  
HETATM   24  O   UNL     1     -10.692   8.202  73.340  1.00  0.00    -0.039 OA 
BRANCH  18  25
HETATM   25  C   UNL     1     -11.752   9.188  70.263  1.00  0.00    -0.017 C  
BRANCH  25  26
HETATM   26  O   UNL     1     -10.724   8.779  69.359  1.00  0.00    -0.224 OA 
BRANCH  26  27
HETATM   27  P   UNL     1     -10.433   9.794  68.152  1.00  0.00    -0.226 P  
HETATM   28  O   UNL     1      -9.031  10.387  68.696  1.00  0.00    -0.132 OA 
HETATM   29  O   UNL     1     -10.326   9.189  66.783  1.00  0.00    -0.258 OA 
BRANCH  27  30
HETATM   30  O   UNL     1     -11.609  10.920  68.286  1.00  0.00    -0.391 OA 
HETATM   31  P   UNL     1     -11.416  12.357  67.342  1.00  0.00    -0.364 P  
HETATM   32  C   UNL     1     -11.212  13.876  66.343  1.00  0.00    -0.315 C  
HETATM   33  O   UNL     1     -10.360  12.892  68.492  1.00  0.00    -0.243 OA 
HETATM   34  O   UNL     1     -10.593  11.601  66.266  1.00  0.00    -0.241 OA 
HETATM   35 CL   UNL     1      -9.458  14.281  66.020  1.00  0.00    -0.262 Cl 
HETATM   36  P   UNL     1     -11.885  13.597  64.663  1.00  0.00    -0.442 P  
HETATM   37 CL   UNL     1     -11.860  15.265  67.278  1.00  0.00    -0.100 Cl 
HETATM   38  O   UNL     1     -13.262  14.417  65.085  1.00  0.00    -0.602 OA 
HETATM   39  O   UNL     1     -12.617  12.187  65.149  1.00  0.00    -0.505 OA 
HETATM   40  O   UNL     1     -12.455  13.361  63.243  1.00  0.00    -0.739 OA 
ENDBRANCH  27  30
ENDBRANCH  26  27
ENDBRANCH  25  26
ENDBRANCH  18  25
ENDBRANCH  11  16
BRANCH  14  41
HETATM   41  S   UNL     1      -6.651   2.857  70.010  1.00  0.00    -0.033 SA 
BRANCH  41  42
HETATM   42  C   UNL     1      -5.210   3.953  69.785  1.00  0.00    -0.008 C  
BRANCH  42  43
HETATM   43  C   UNL     1      -5.191   4.963  70.925  1.00  0.00    -0.004 C  
HETATM   44  C   UNL     1      -5.983   6.209  70.594  1.00  0.00    -0.026 C  
HETATM   45  F   UNL     1      -6.928   6.434  71.538  1.00  0.00    -0.067 F  
HETATM   46  F   UNL     1      -6.607   6.138  69.403  1.00  0.00    -0.037 F  
HETATM   47  F   UNL     1      -5.180   7.296  70.571  1.00  0.00    -0.022 F  
ENDBRANCH  42  43
ENDBRANCH  41  42
ENDBRANCH  14  41
ENDBRANCH   5   7
ENDBRANCH   4   5
ENDBRANCH   3   4
ENDBRANCH   2   3
TORSDOF 12
ENDMDL
MODEL      130
REMARK 921   NORMALIZED FREE ENERGY PREDICTED BY IDOCK:   -4.55 KCAL/MOL
REMARK 922        TOTAL FREE ENERGY PREDICTED BY IDOCK:   -8.75 KCAL/MOL
REMARK 923 INTER-LIGAND FREE ENERGY PREDICTED BY IDOCK:   -7.59 KCAL/MOL
REMARK 924 INTRA-LIGAND FREE ENERGY PREDICTED BY IDOCK:   -1.15 KCAL/MOL
REMARK 927      BINDING AFFINITY PREDICTED BY RF-SCORE:    0.00 PKD
ROOT
HETATM    1  C   UNL     1     -11.713  15.684  71.707  1.00  0.00    -0.454 C  
HETATM    2  S   UNL     1     -10.921  16.532  70.323  1.00  0.00    -0.003 SA 
ENDROOT
BRANCH   2   3
HETATM    3  C   UNL     1     -11.576  15.528  68.936  1.00  0.00    -0.373 C  
BRANCH   3   4
HETATM    4  C   UNL     1     -10.653  14.338  68.597  1.00  0.00    -0.250 C  
BRANCH   4   5
HETATM    5  N   UNL     1     -11.382  13.309  67.877  1.00  0.00    -0.268 NA 
HETATM    6  H   UNL     1     -11.959  13.567  67.077  1.00  0.00     0.000 HD 
BRANCH   5   7
HETATM    7  C   UNL     1     -11.306  11.982  68.263  1.00  0.00    -0.286 A  
HETATM    8  C   UNL     1     -11.838  11.569  69.495  1.00  0.00    -0.351 A  
HETATM    9  N   UNL     1     -12.519  12.254  70.482  1.00  0.00    -0.242 NA 
HETATM   10  C   UNL     1     -12.849  11.330  71.370  1.00  0.00    -0.410 A  
HETATM   11  N   UNL     1     -12.384  10.082  71.012  1.00  0.00    -0.334 NA 
HETATM   12  C   UNL     1     -11.740  10.223  69.816  1.00  0.00    -0.191 A  
HETATM   13  N   UNL     1     -10.712  11.036  67.477  1.00  0.00    -0.227 NA 
HETATM   14  C   UNL     1     -10.645   9.768  67.931  1.00  0.00    -0.259 A  
HETATM   15  N   UNL     1     -11.151   9.274  69.086  1.00  0.00    -0.057 NA 
BRANCH  11  16
HETATM   16  C   UNL     1     -12.734   8.860  71.704  1.00  0.00    -0.349 C  
HETATM   17  O   UNL     1     -11.943   8.797  72.897  1.00  0.00    -0.098 OA 
HETATM   18  C   UNL     1     -10.884   7.841  72.725  1.00  0.00    -0.379 C  
HETATM   19  H   UNL     1     -13.363   5.676  71.158  1.00  0.00     0.000 HD 
HETATM   20  O   UNL     1     -13.479   6.523  71.574  1.00  0.00    -0.025 OA 
HETATM   21  C   UNL     1     -11.149   7.069  71.437  1.00  0.00    -0.245 C  
HETATM   22  H   UNL     1     -11.232   5.179  70.895  1.00  0.00     0.000 HD 
HETATM   23  C   UNL     1     -12.546   7.491  71.032  1.00  0.00    -0.189 C  
HETATM   24  O   UNL     1     -11.067   5.661  71.697  1.00  0.00    -0.251 OA 
BRANCH  18  25
HETATM   25  C   UNL     1      -9.508   8.510  72.704  1.00  0.00    -0.225 C  
BRANCH  25  26
HETATM   26  O   UNL     1      -8.721   7.839  73.688  1.00  0.00    -0.200 OA 
BRANCH  26  27
HETATM   27  P   UNL     1      -7.775   6.671  73.126  1.00  0.00    -0.093 P  
HETATM   28  O   UNL     1      -6.493   6.952  74.070  1.00  0.00    -0.067 OA 
HETATM   29  O   UNL     1      -8.301   5.271  73.247  1.00  0.00    -0.111 OA 
BRANCH  27  30
HETATM   30  O   UNL     1      -7.452   7.125  71.590  1.00  0.00    -0.084 OA 
HETATM   31  P   UNL     1      -7.075   5.860  70.473  1.00  0.00    -0.074 P  
HETATM   32  C   UNL     1      -6.676   4.521  69.291  1.00  0.00    -0.045 C  
HETATM   33  O   UNL     1      -5.550   5.846  71.104  1.00  0.00    -0.016 OA 
HETATM   34  O   UNL     1      -7.921   4.833  71.270  1.00  0.00    -0.091 OA 
HETATM   35 CL   UNL     1      -5.909   3.070  70.097  1.00  0.00    -0.018 Cl 
HETATM   36  P   UNL     1      -8.226   3.836  68.599  1.00  0.00    -0.075 P  
HETATM   37 CL   UNL     1      -5.447   5.130  68.132  1.00  0.00    -0.011 Cl 
HETATM   38  O   UNL     1      -7.993   4.720  67.217  1.00  0.00    -0.100 OA 
HETATM   39  O   UNL     1      -9.107   5.100  69.218  1.00  0.00    -0.101 OA 
HETATM   40  O   UNL     1      -9.537   3.257  68.013  1.00  0.00    -0.181 OA 
ENDBRANCH  27  30
ENDBRANCH  26  27
ENDBRANCH  25  26
ENDBRANCH  18  25
ENDBRANCH  11  16
BRANCH  14  41
HETATM   41  S   UNL     1      -9.793   8.562  66.937  1.00  0.00    -0.268 SA 
BRANCH  41  42
HETATM   42  C   UNL     1      -8.285   8.319  67.935  1.00  0.00    -0.128 C  
BRANCH  42  43
HETATM   43  C   UNL     1      -7.369   9.517  67.723  1.00  0.00    -0.083 C  
HETATM   44  C   UNL     1      -7.305  10.408  68.943  1.00  0.00    -0.094 C  
HETATM   45  F   UNL     1      -6.022  10.569  69.346  1.00  0.00    -0.037 F  
HETATM   46  F   UNL     1      -8.001   9.921  69.989  1.00  0.00    -0.129 F  
HETATM   47  F   UNL     1      -7.790  11.638  68.665  1.00  0.00    -0.122 F  
ENDBRANCH  42  43
ENDBRANCH  41  42
ENDBRANCH  14  41
ENDBRANCH   5   7
ENDBRANCH   4   5
ENDBRANCH   3   4
ENDBRANCH   2   3
TORSDOF 12
ENDMDL
MODEL      131
REMARK 921   NORMALIZED FREE ENERGY PREDICTED BY IDOCK:   -4.54 KCAL/MOL
REMARK 922        TOTAL FREE ENERGY PREDICTED BY IDOCK:   -8.73 KCAL/MOL
REMARK 923 INTER-LIGAND FREE ENERGY PREDICTED BY IDOCK:  -10.48 KCAL/MOL
REMARK 924 INTRA-LIGAND FREE ENERGY PREDICTED BY IDOCK:    1.75 KCAL/MOL
REMARK 927      BINDING AFFINITY PREDICTED BY RF-SCORE:    0.00 PKD
ROOT
HETATM    1  C   UNL     1     -12.002   5.102  72.887  1.00  0.00     0.025 C  
HETATM    2  S   UNL     1     -12.590   6.626  72.116  1.00  0.00    -0.010 SA 
ENDROOT
BRANCH   2   3
HETATM    3  C   UNL     1     -11.144   7.706  72.435  1.00  0.00    -0.310 C  
BRANCH   3   4
HETATM    4  C   UNL     1     -10.361   8.022  71.143  1.00  0.00    -0.197 C  
BRANCH   4   5
HETATM    5  N   UNL     1     -11.241   8.581  70.131  1.00  0.00    -0.406 NA 
HETATM    6  H   UNL     1     -11.896   7.972  69.642  1.00  0.00     0.000 HD 
BRANCH   5   7
HETATM    7  C   UNL     1     -11.201   9.929  69.821  1.00  0.00    -0.235 A  
HETATM    8  C   UNL     1     -11.995  10.844  70.529  1.00  0.00    -0.371 A  
HETATM    9  N   UNL     1     -12.861  10.684  71.594  1.00  0.00    -0.448 NA 
HETATM   10  C   UNL     1     -13.258  11.910  71.896  1.00  0.00    -0.362 A  
HETATM   11  N   UNL     1     -12.709  12.852  71.051  1.00  0.00    -0.305 NA 
HETATM   12  C   UNL     1     -11.900  12.183  70.178  1.00  0.00    -0.287 A  
HETATM   13  N   UNL     1     -10.406  10.416  68.823  1.00  0.00    -0.184 NA 
HETATM   14  C   UNL     1     -10.442  11.737  68.554  1.00  0.00    -0.215 A  
HETATM   15  N   UNL     1     -11.152  12.694  69.199  1.00  0.00    -0.228 NA 
BRANCH  11  16
HETATM   16  C   UNL     1     -12.833  14.280  71.244  1.00  0.00    -0.352 C  
HETATM   17  O   UNL     1     -13.192  14.858  69.983  1.00  0.00     0.011 OA 
HETATM   18  C   UNL     1     -12.049  15.510  69.407  1.00  0.00    -0.277 C  
HETATM   19  H   UNL     1     -11.366  16.819  72.739  1.00  0.00     0.000 HD 
HETATM   20  O   UNL     1     -12.102  16.302  72.434  1.00  0.00    -0.510 OA 
HETATM   21  C   UNL     1     -10.952  15.564  70.465  1.00  0.00    -0.344 C  
HETATM   22  H   UNL     1      -9.767  16.937  71.227  1.00  0.00     0.000 HD 
HETATM   23  C   UNL     1     -11.642  15.117  71.737  1.00  0.00    -0.408 C  
HETATM   24  O   UNL     1     -10.450  16.903  70.568  1.00  0.00     0.344 OA 
BRANCH  18  25
HETATM   25  C   UNL     1     -11.567  14.804  68.138  1.00  0.00    -0.332 C  
BRANCH  25  26
HETATM   26  O   UNL     1     -11.877  15.677  67.051  1.00  0.00     0.137 OA 
BRANCH  26  27
HETATM   27  P   UNL     1     -10.835  16.875  66.819  1.00  0.00     0.226 P  
HETATM   28  O   UNL     1     -10.882  16.897  65.203  1.00  0.00    -0.602 OA 
HETATM   29  O   UNL     1     -11.188  18.195  67.438  1.00  0.00    -0.070 OA 
BRANCH  27  30
HETATM   30  O   UNL     1      -9.408  16.265  67.330  1.00  0.00    -0.218 OA 
HETATM   31  P   UNL     1      -8.057  17.345  67.318  1.00  0.00    -0.214 P  
HETATM   32  C   UNL     1      -6.628  18.488  67.306  1.00  0.00    -0.199 C  
HETATM   33  O   UNL     1      -7.933  17.067  65.696  1.00  0.00    -0.318 OA 
HETATM   34  O   UNL     1      -8.976  18.580  67.513  1.00  0.00    -0.272 OA 
HETATM   35 CL   UNL     1      -6.771  19.786  66.025  1.00  0.00    -0.231 Cl 
HETATM   36  P   UNL     1      -6.600  19.448  68.864  1.00  0.00    -0.330 P  
HETATM   37 CL   UNL     1      -5.155  17.554  66.878  1.00  0.00    -0.157 Cl 
HETATM   38  O   UNL     1      -5.416  18.449  69.452  1.00  0.00    -0.197 OA 
HETATM   39  O   UNL     1      -7.736  18.447  69.546  1.00  0.00     0.131 OA 
HETATM   40  O   UNL     1      -6.577  20.259  70.182  1.00  0.00    -0.298 OA 
ENDBRANCH  27  30
ENDBRANCH  26  27
ENDBRANCH  25  26
ENDBRANCH  18  25
ENDBRANCH  11  16
BRANCH  14  41
HETATM   41  S   UNL     1      -9.467  12.347  67.196  1.00  0.00    -0.204 SA 
BRANCH  41  42
HETATM   42  C   UNL     1     -10.147  11.348  65.828  1.00  0.00    -0.246 C  
BRANCH  42  43
HETATM   43  C   UNL     1     -10.260  12.234  64.594  1.00  0.00    -0.311 C  
HETATM   44  C   UNL     1     -11.601  12.929  64.514  1.00  0.00    -0.350 C  
HETATM   45  F   UNL     1     -11.435  14.270  64.422  1.00  0.00    -0.367 F  
HETATM   46  F   UNL     1     -12.385  12.690  65.584  1.00  0.00    -0.478 F  
HETATM   47  F   UNL     1     -12.280  12.538  63.413  1.00  0.00    -0.514 F  
ENDBRANCH  42  43
ENDBRANCH  41  42
ENDBRANCH  14  41
ENDBRANCH   5   7
ENDBRANCH   4   5
ENDBRANCH   3   4
ENDBRANCH   2   3
TORSDOF 12
ENDMDL
MODEL      132
REMARK 921   NORMALIZED FREE ENERGY PREDICTED BY IDOCK:   -4.53 KCAL/MOL
REMARK 922        TOTAL FREE ENERGY PREDICTED BY IDOCK:   -8.72 KCAL/MOL
REMARK 923 INTER-LIGAND FREE ENERGY PREDICTED BY IDOCK:  -10.51 KCAL/MOL
REMARK 924 INTRA-LIGAND FREE ENERGY PREDICTED BY IDOCK:    1.78 KCAL/MOL
REMARK 927      BINDING AFFINITY PREDICTED BY RF-SCORE:    0.00 PKD
ROOT
HETATM    1  C   UNL     1      -9.558   4.522  72.284  1.00  0.00    -0.153 C  
HETATM    2  S   UNL     1      -9.882   6.289  72.479  1.00  0.00    -0.166 SA 
ENDROOT
BRANCH   2   3
HETATM    3  C   UNL     1      -9.754   6.816  70.728  1.00  0.00    -0.179 C  
BRANCH   3   4
HETATM    4  C   UNL     1     -11.138   7.108  70.109  1.00  0.00    -0.272 C  
BRANCH   4   5
HETATM    5  N   UNL     1     -11.774   8.230  70.776  1.00  0.00    -0.410 NA 
HETATM    6  H   UNL     1     -12.406   8.058  71.557  1.00  0.00     0.000 HD 
BRANCH   5   7
HETATM    7  C   UNL     1     -11.535   9.530  70.365  1.00  0.00    -0.242 A  
HETATM    8  C   UNL     1     -12.275  10.593  70.906  1.00  0.00    -0.395 A  
HETATM    9  N   UNL     1     -13.255  10.633  71.879  1.00  0.00    -0.462 NA 
HETATM   10  C   UNL     1     -13.524  11.920  72.036  1.00  0.00    -0.231 A  
HETATM   11  N   UNL     1     -12.780  12.709  71.184  1.00  0.00    -0.323 NA 
HETATM   12  C   UNL     1     -11.978  11.873  70.461  1.00  0.00    -0.267 A  
HETATM   13  N   UNL     1     -10.590   9.826  69.426  1.00  0.00    -0.217 NA 
HETATM   14  C   UNL     1     -10.433  11.112  69.049  1.00  0.00    -0.206 A  
HETATM   15  N   UNL     1     -11.078  12.200  69.533  1.00  0.00    -0.118 NA 
BRANCH  11  16
HETATM   16  C   UNL     1     -12.742  14.154  71.248  1.00  0.00    -0.361 C  
HETATM   17  O   UNL     1     -13.195  14.655  69.984  1.00  0.00     0.035 OA 
HETATM   18  C   UNL     1     -12.072  15.129  69.222  1.00  0.00    -0.244 C  
HETATM   19  H   UNL     1     -10.869  16.643  72.311  1.00  0.00     0.000 HD 
HETATM   20  O   UNL     1     -11.683  16.182  72.143  1.00  0.00    -0.477 OA 
HETATM   21  C   UNL     1     -10.855  15.157  70.140  1.00  0.00    -0.241 C  
HETATM   22  H   UNL     1      -9.461  16.458  70.626  1.00  0.00     0.000 HD 
HETATM   23  C   UNL     1     -11.426  14.899  71.520  1.00  0.00    -0.247 C  
HETATM   24  O   UNL     1     -10.219  16.440  70.054  1.00  0.00    -0.127 OA 
BRANCH  18  25
HETATM   25  C   UNL     1     -11.818  14.268  67.983  1.00  0.00    -0.344 C  
BRANCH  25  26
HETATM   26  O   UNL     1     -11.859  15.153  66.863  1.00  0.00    -0.189 OA 
BRANCH  26  27
HETATM   27  P   UNL     1     -10.450  15.403  66.138  1.00  0.00    -0.348 P  
HETATM   28  O   UNL     1     -10.218  13.903  65.584  1.00  0.00    -0.306 OA 
HETATM   29  O   UNL     1     -10.433  16.441  65.055  1.00  0.00    -0.642 OA 
BRANCH  27  30
HETATM   30  O   UNL     1      -9.420  15.713  67.367  1.00  0.00    -0.213 OA 
HETATM   31  P   UNL     1      -8.231  16.939  67.090  1.00  0.00    -0.219 P  
HETATM   32  C   UNL     1      -6.974  18.236  66.795  1.00  0.00    -0.196 C  
HETATM   33  O   UNL     1      -7.362  15.813  66.251  1.00  0.00     0.145 OA 
HETATM   34  O   UNL     1      -9.149  17.672  66.076  1.00  0.00    -0.493 OA 
HETATM   35 CL   UNL     1      -6.518  18.392  65.031  1.00  0.00    -0.101 Cl 
HETATM   36  P   UNL     1      -7.687  19.876  67.183  1.00  0.00    -0.300 P  
HETATM   37 CL   UNL     1      -5.461  17.766  67.641  1.00  0.00    -0.136 Cl 
HETATM   38  O   UNL     1      -6.902  19.866  68.643  1.00  0.00    -0.302 OA 
HETATM   39  O   UNL     1      -8.999  19.175  67.921  1.00  0.00    -0.290 OA 
HETATM   40  O   UNL     1      -8.290  21.264  67.512  1.00  0.00    -0.077 OA 
ENDBRANCH  27  30
ENDBRANCH  26  27
ENDBRANCH  25  26
ENDBRANCH  18  25
ENDBRANCH  11  16
BRANCH  14  41
HETATM   41  S   UNL     1      -9.259  11.475  67.762  1.00  0.00    -0.170 SA 
BRANCH  41  42
HETATM   42  C   UNL     1      -8.766   9.786  67.279  1.00  0.00    -0.132 C  
BRANCH  42  43
HETATM   43  C   UNL     1      -9.441   9.447  65.957  1.00  0.00    -0.304 C  
HETATM   44  C   UNL     1      -8.466   9.460  64.800  1.00  0.00    -0.167 C  
HETATM   45  F   UNL     1      -8.490   8.274  64.146  1.00  0.00    -0.160 F  
HETATM   46  F   UNL     1      -7.194   9.686  65.184  1.00  0.00    -0.097 F  
HETATM   47  F   UNL     1      -8.798  10.414  63.903  1.00  0.00    -0.164 F  
ENDBRANCH  42  43
ENDBRANCH  41  42
ENDBRANCH  14  41
ENDBRANCH   5   7
ENDBRANCH   4   5
ENDBRANCH   3   4
ENDBRANCH   2   3
TORSDOF 12
ENDMDL
MODEL      133
REMARK 921   NORMALIZED FREE ENERGY PREDICTED BY IDOCK:   -4.50 KCAL/MOL
REMARK 922        TOTAL FREE ENERGY PREDICTED BY IDOCK:   -8.67 KCAL/MOL
REMARK 923 INTER-LIGAND FREE ENERGY PREDICTED BY IDOCK:   -9.73 KCAL/MOL
REMARK 924 INTRA-LIGAND FREE ENERGY PREDICTED BY IDOCK:    1.06 KCAL/MOL
REMARK 927      BINDING AFFINITY PREDICTED BY RF-SCORE:    0.00 PKD
ROOT
HETATM    1  C   UNL     1      -7.245  17.758  69.254  1.00  0.00    -0.067 C  
HETATM    2  S   UNL     1      -7.880  18.916  68.021  1.00  0.00    -0.286 SA 
ENDROOT
BRANCH   2   3
HETATM    3  C   UNL     1      -9.514  19.287  68.765  1.00  0.00    -0.402 C  
BRANCH   3   4
HETATM    4  C   UNL     1     -10.541  18.168  68.492  1.00  0.00    -0.129 C  
BRANCH   4   5
HETATM    5  N   UNL     1     -10.088  16.905  69.049  1.00  0.00    -0.286 NA 
HETATM    6  H   UNL     1      -9.301  16.895  69.696  1.00  0.00     0.000 HD 
BRANCH   5   7
HETATM    7  C   UNL     1     -10.711  15.716  68.713  1.00  0.00    -0.250 A  
HETATM    8  C   UNL     1     -10.702  15.260  67.385  1.00  0.00    -0.293 A  
HETATM    9  N   UNL     1     -10.120  15.767  66.240  1.00  0.00    -0.284 NA 
HETATM   10  C   UNL     1     -10.374  14.867  65.303  1.00  0.00    -0.396 A  
HETATM   11  N   UNL     1     -11.121  13.814  65.789  1.00  0.00    -0.288 NA 
HETATM   12  C   UNL     1     -11.333  14.054  67.117  1.00  0.00    -0.331 A  
HETATM   13  N   UNL     1     -11.356  14.953  69.643  1.00  0.00    -0.268 NA 
HETATM   14  C   UNL     1     -11.969  13.821  69.239  1.00  0.00    -0.352 A  
HETATM   15  N   UNL     1     -11.990  13.291  67.992  1.00  0.00    -0.345 NA 
BRANCH  11  16
HETATM   16  C   UNL     1     -11.405  12.611  65.039  1.00  0.00    -0.309 C  
HETATM   17  O   UNL     1     -11.476  11.525  65.972  1.00  0.00    -0.274 OA 
HETATM   18  C   UNL     1     -10.279  10.734  65.884  1.00  0.00    -0.259 C  
HETATM   19  H   UNL     1     -10.580  11.044  62.265  1.00  0.00     0.000 HD 
HETATM   20  O   UNL     1     -11.169  11.345  62.946  1.00  0.00     0.045 OA 
HETATM   21  C   UNL     1      -9.498  11.194  64.658  1.00  0.00    -0.213 C  
HETATM   22  H   UNL     1      -8.663  10.341  63.093  1.00  0.00     0.000 HD 
HETATM   23  C   UNL     1     -10.452  12.124  63.937  1.00  0.00    -0.409 C  
HETATM   24  O   UNL     1      -9.149  10.056  63.857  1.00  0.00    -0.224 OA 
BRANCH  18  25
HETATM   25  C   UNL     1      -9.434  10.833  67.155  1.00  0.00    -0.160 C  
BRANCH  25  26
HETATM   26  O   UNL     1      -8.889   9.531  67.377  1.00  0.00    -0.128 OA 
BRANCH  26  27
HETATM   27  P   UNL     1      -9.521   8.729  68.614  1.00  0.00    -0.144 P  
HETATM   28  O   UNL     1      -9.224   9.826  69.763  1.00  0.00    -0.198 OA 
HETATM   29  O   UNL     1     -10.972   8.367  68.504  1.00  0.00     0.014 OA 
BRANCH  27  30
HETATM   30  O   UNL     1      -8.531   7.441  68.799  1.00  0.00    -0.128 OA 
HETATM   31  P   UNL     1      -8.037   7.072  70.415  1.00  0.00    -0.121 P  
HETATM   32  C   UNL     1      -7.514   6.682  72.125  1.00  0.00    -0.094 C  
HETATM   33  O   UNL     1      -6.924   8.284  70.281  1.00  0.00    -0.036 OA 
HETATM   34  O   UNL     1      -9.331   7.688  71.008  1.00  0.00    -0.152 OA 
HETATM   35 CL   UNL     1      -7.464   8.157  73.204  1.00  0.00    -0.167 Cl 
HETATM   36  P   UNL     1      -8.780   5.629  72.925  1.00  0.00    -0.119 P  
HETATM   37 CL   UNL     1      -5.828   6.065  72.078  1.00  0.00    -0.031 Cl 
HETATM   38  O   UNL     1      -7.836   4.295  72.649  1.00  0.00    -0.078 OA 
HETATM   39  O   UNL     1      -9.530   5.357  71.468  1.00  0.00    -0.145 OA 
HETATM   40  O   UNL     1      -9.850   4.738  73.601  1.00  0.00    -0.137 OA 
ENDBRANCH  27  30
ENDBRANCH  26  27
ENDBRANCH  25  26
ENDBRANCH  18  25
ENDBRANCH  11  16
BRANCH  14  41
HETATM   41  S   UNL     1     -12.879  12.880  70.444  1.00  0.00     0.310 SA 
BRANCH  41  42
HETATM   42  C   UNL     1     -12.432  13.777  71.968  1.00  0.00    -0.053 C  
BRANCH  42  43
HETATM   43  C   UNL     1     -12.910  15.218  71.837  1.00  0.00    -0.447 C  
HETATM   44  C   UNL     1     -12.628  16.026  73.084  1.00  0.00    -0.520 C  
HETATM   45  F   UNL     1     -11.904  17.130  72.780  1.00  0.00    -0.438 F  
HETATM   46  F   UNL     1     -11.944  15.337  74.018  1.00  0.00    -0.567 F  
HETATM   47  F   UNL     1     -13.779  16.452  73.650  1.00  0.00    -0.571 F  
ENDBRANCH  42  43
ENDBRANCH  41  42
ENDBRANCH  14  41
ENDBRANCH   5   7
ENDBRANCH   4   5
ENDBRANCH   3   4
ENDBRANCH   2   3
TORSDOF 12
ENDMDL
MODEL      134
REMARK 921   NORMALIZED FREE ENERGY PREDICTED BY IDOCK:   -4.46 KCAL/MOL
REMARK 922        TOTAL FREE ENERGY PREDICTED BY IDOCK:   -8.60 KCAL/MOL
REMARK 923 INTER-LIGAND FREE ENERGY PREDICTED BY IDOCK:   -7.94 KCAL/MOL
REMARK 924 INTRA-LIGAND FREE ENERGY PREDICTED BY IDOCK:   -0.66 KCAL/MOL
REMARK 927      BINDING AFFINITY PREDICTED BY RF-SCORE:    0.00 PKD
ROOT
HETATM    1  C   UNL     1      -9.710  19.901  69.679  1.00  0.00     0.179 C  
HETATM    2  S   UNL     1      -9.157  19.256  68.084  1.00  0.00    -0.343 SA 
ENDROOT
BRANCH   2   3
HETATM    3  C   UNL     1     -10.778  18.790  67.367  1.00  0.00    -0.424 C  
BRANCH   3   4
HETATM    4  C   UNL     1     -10.632  18.173  65.959  1.00  0.00    -0.264 C  
BRANCH   4   5
HETATM    5  N   UNL     1      -9.399  17.412  65.855  1.00  0.00    -0.520 NA 
HETATM    6  H   UNL     1      -8.624  17.783  65.305  1.00  0.00     0.000 HD 
BRANCH   5   7
HETATM    7  C   UNL     1      -9.261  16.191  66.491  1.00  0.00    -0.272 A  
HETATM    8  C   UNL     1      -7.991  15.725  66.866  1.00  0.00    -0.250 A  
HETATM    9  N   UNL     1      -6.735  16.290  66.764  1.00  0.00    -0.260 NA 
HETATM   10  C   UNL     1      -5.927  15.429  67.363  1.00  0.00     0.066 A  
HETATM   11  N   UNL     1      -6.605  14.319  67.820  1.00  0.00    -0.168 NA 
HETATM   12  C   UNL     1      -7.923  14.499  67.511  1.00  0.00    -0.191 A  
HETATM   13  N   UNL     1     -10.337  15.398  66.768  1.00  0.00    -0.272 NA 
HETATM   14  C   UNL     1     -10.125  14.205  67.362  1.00  0.00    -0.240 A  
HETATM   15  N   UNL     1      -8.946  13.688  67.782  1.00  0.00    -0.185 NA 
BRANCH  11  16
HETATM   16  C   UNL     1      -6.012  13.297  68.655  1.00  0.00    -0.083 C  
HETATM   17  O   UNL     1      -5.412  12.325  67.789  1.00  0.00    -0.066 OA 
HETATM   18  C   UNL     1      -6.234  11.147  67.743  1.00  0.00    -0.051 C  
HETATM   19  H   UNL     1      -6.601  11.505  71.352  1.00  0.00     0.000 HD 
HETATM   20  O   UNL     1      -6.070  12.010  70.748  1.00  0.00    -0.306 OA 
HETATM   21  C   UNL     1      -7.300  11.271  68.827  1.00  0.00    -0.109 C  
HETATM   22  H   UNL     1      -7.983  10.153  70.294  1.00  0.00     0.000 HD 
HETATM   23  C   UNL     1      -6.870  12.479  69.633  1.00  0.00     0.165 C  
HETATM   24  O   UNL     1      -7.320  10.076  69.619  1.00  0.00    -0.093 OA 
BRANCH  18  25
HETATM   25  C   UNL     1      -6.861  10.941  66.363  1.00  0.00    -0.135 C  
BRANCH  25  26
HETATM   26  O   UNL     1      -8.098  10.261  66.582  1.00  0.00    -0.115 OA 
BRANCH  26  27
HETATM   27  P   UNL     1      -8.370   9.011  65.613  1.00  0.00    -0.149 P  
HETATM   28  O   UNL     1      -8.988   9.830  64.365  1.00  0.00    -0.214 OA 
HETATM   29  O   UNL     1      -7.176   8.182  65.242  1.00  0.00    -0.065 OA 
BRANCH  27  30
HETATM   30  O   UNL     1      -9.548   8.170  66.372  1.00  0.00    -0.217 OA 
HETATM   31  P   UNL     1      -9.047   6.794  67.292  1.00  0.00    -0.124 P  
HETATM   32  C   UNL     1      -8.515   5.338  68.265  1.00  0.00    -0.096 C  
HETATM   33  O   UNL     1      -8.955   5.959  65.870  1.00  0.00    -0.153 OA 
HETATM   34  O   UNL     1      -7.651   7.417  67.560  1.00  0.00    -0.101 OA 
HETATM   35 CL   UNL     1      -6.986   4.573  67.617  1.00  0.00    -0.059 Cl 
HETATM   36  P   UNL     1      -8.028   5.873  69.947  1.00  0.00    -0.107 P  
HETATM   37 CL   UNL     1      -9.779   4.070  68.131  1.00  0.00    -0.181 Cl 
HETATM   38  O   UNL     1      -9.490   5.356  70.529  1.00  0.00    -0.154 OA 
HETATM   39  O   UNL     1      -8.694   7.375  69.704  1.00  0.00    -0.136 OA 
HETATM   40  O   UNL     1      -7.616   6.326  71.369  1.00  0.00    -0.095 OA 
ENDBRANCH  27  30
ENDBRANCH  26  27
ENDBRANCH  25  26
ENDBRANCH  18  25
ENDBRANCH  11  16
BRANCH  14  41
HETATM   41  S   UNL     1     -11.526  13.143  67.640  1.00  0.00    -0.346 SA 
BRANCH  41  42
HETATM   42  C   UNL     1     -10.775  11.887  68.730  1.00  0.00    -0.224 C  
BRANCH  42  43
HETATM   43  C   UNL     1     -11.880  10.973  69.245  1.00  0.00    -0.411 C  
HETATM   44  C   UNL     1     -11.391  10.051  70.340  1.00  0.00    -0.320 C  
HETATM   45  F   UNL     1     -12.150  10.191  71.452  1.00  0.00    -0.392 F  
HETATM   46  F   UNL     1     -10.110  10.279  70.690  1.00  0.00    -0.232 F  
HETATM   47  F   UNL     1     -11.486   8.758  69.956  1.00  0.00    -0.223 F  
ENDBRANCH  42  43
ENDBRANCH  41  42
ENDBRANCH  14  41
ENDBRANCH   5   7
ENDBRANCH   4   5
ENDBRANCH   3   4
ENDBRANCH   2   3
TORSDOF 12
ENDMDL
MODEL      135
REMARK 921   NORMALIZED FREE ENERGY PREDICTED BY IDOCK:   -4.45 KCAL/MOL
REMARK 922        TOTAL FREE ENERGY PREDICTED BY IDOCK:   -8.58 KCAL/MOL
REMARK 923 INTER-LIGAND FREE ENERGY PREDICTED BY IDOCK:   -7.05 KCAL/MOL
REMARK 924 INTRA-LIGAND FREE ENERGY PREDICTED BY IDOCK:   -1.52 KCAL/MOL
REMARK 927      BINDING AFFINITY PREDICTED BY RF-SCORE:    0.00 PKD
ROOT
HETATM    1  C   UNL     1     -11.105   3.567  63.360  1.00  0.00     0.057 C  
HETATM    2  S   UNL     1      -9.312   3.762  63.243  1.00  0.00    -0.119 SA 
ENDROOT
BRANCH   2   3
HETATM    3  C   UNL     1      -9.051   4.977  64.590  1.00  0.00    -0.024 C  
BRANCH   3   4
HETATM    4  C   UNL     1      -8.544   4.305  65.884  1.00  0.00    -0.114 C  
BRANCH   4   5
HETATM    5  N   UNL     1      -9.162   4.905  67.054  1.00  0.00    -0.119 NA 
HETATM    6  H   UNL     1      -9.990   4.473  67.462  1.00  0.00     0.000 HD 
BRANCH   5   7
HETATM    7  C   UNL     1      -8.643   6.056  67.621  1.00  0.00    -0.106 A  
HETATM    8  C   UNL     1      -9.269   7.295  67.411  1.00  0.00    -0.128 A  
HETATM    9  N   UNL     1     -10.418   7.644  66.729  1.00  0.00    -0.303 NA 
HETATM   10  C   UNL     1     -10.559   8.943  66.945  1.00  0.00    -0.184 A  
HETATM   11  N   UNL     1      -9.533   9.451  67.713  1.00  0.00    -0.132 NA 
HETATM   12  C   UNL     1      -8.706   8.408  68.018  1.00  0.00    -0.139 A  
HETATM   13  N   UNL     1      -7.516   6.035  68.390  1.00  0.00    -0.085 NA 
HETATM   14  C   UNL     1      -7.048   7.200  68.885  1.00  0.00    -0.084 A  
HETATM   15  N   UNL     1      -7.596   8.431  68.758  1.00  0.00    -0.099 NA 
BRANCH  11  16
HETATM   16  C   UNL     1      -9.511  10.797  68.244  1.00  0.00    -0.164 C  
HETATM   17  O   UNL     1     -10.116  10.760  69.543  1.00  0.00    -0.189 OA 
HETATM   18  C   UNL     1     -11.441  11.313  69.474  1.00  0.00    -0.307 C  
HETATM   19  H   UNL     1     -10.026  13.927  67.364  1.00  0.00     0.000 HD 
HETATM   20  O   UNL     1      -9.588  13.216  67.818  1.00  0.00    -0.195 OA 
HETATM   21  C   UNL     1     -11.612  11.963  68.105  1.00  0.00    -0.334 C  
HETATM   22  H   UNL     1     -12.217  13.704  67.415  1.00  0.00     0.000 HD 
HETATM   23  C   UNL     1     -10.219  11.947  67.510  1.00  0.00    -0.196 C  
HETATM   24  O   UNL     1     -12.111  13.298  68.267  1.00  0.00    -0.333 OA 
BRANCH  18  25
HETATM   25  C   UNL     1     -12.516  10.254  69.727  1.00  0.00     0.100 C  
BRANCH  25  26
HETATM   26  O   UNL     1     -12.577  10.076  71.143  1.00  0.00    -0.326 OA 
BRANCH  26  27
HETATM   27  P   UNL     1     -12.454   8.557  71.646  1.00  0.00    -0.349 P  
HETATM   28  O   UNL     1     -13.043   8.771  73.136  1.00  0.00    -0.200 OA 
HETATM   29  O   UNL     1     -13.208   7.529  70.856  1.00  0.00    -0.127 OA 
BRANCH  27  30
HETATM   30  O   UNL     1     -10.843   8.290  71.712  1.00  0.00    -0.235 OA 
HETATM   31  P   UNL     1     -10.340   6.718  72.227  1.00  0.00    -0.205 P  
HETATM   32  C   UNL     1      -9.809   5.053  72.772  1.00  0.00    -0.159 C  
HETATM   33  O   UNL     1     -10.623   7.207  73.778  1.00  0.00    -0.377 OA 
HETATM   34  O   UNL     1     -11.646   6.069  71.695  1.00  0.00    -0.277 OA 
HETATM   35 CL   UNL     1     -11.011   4.260  73.898  1.00  0.00    -0.323 Cl 
HETATM   36  P   UNL     1      -9.783   3.920  71.334  1.00  0.00    -0.133 P  
HETATM   37 CL   UNL     1      -8.297   5.221  73.726  1.00  0.00    -0.112 Cl 
HETATM   38  O   UNL     1      -8.137   4.088  71.239  1.00  0.00    -0.069 OA 
HETATM   39  O   UNL     1      -9.939   5.193  70.279  1.00  0.00    -0.208 OA 
HETATM   40  O   UNL     1      -9.759   2.962  70.118  1.00  0.00    -0.110 OA 
ENDBRANCH  27  30
ENDBRANCH  26  27
ENDBRANCH  25  26
ENDBRANCH  18  25
ENDBRANCH  11  16
BRANCH  14  41
HETATM   41  S   UNL     1      -5.530   7.171  69.813  1.00  0.00    -0.023 SA 
BRANCH  41  42
HETATM   42  C   UNL     1      -6.184   6.989  71.507  1.00  0.00    -0.037 C  
BRANCH  42  43
HETATM   43  C   UNL     1      -6.617   8.361  72.006  1.00  0.00    -0.075 C  
HETATM   44  C   UNL     1      -6.695   8.420  73.516  1.00  0.00    -0.099 C  
HETATM   45  F   UNL     1      -5.923   9.426  73.991  1.00  0.00    -0.100 F  
HETATM   46  F   UNL     1      -6.288   7.281  74.110  1.00  0.00    -0.074 F  
HETATM   47  F   UNL     1      -7.960   8.665  73.922  1.00  0.00    -0.242 F  
ENDBRANCH  42  43
ENDBRANCH  41  42
ENDBRANCH  14  41
ENDBRANCH   5   7
ENDBRANCH   4   5
ENDBRANCH   3   4
ENDBRANCH   2   3
TORSDOF 12
ENDMDL
MODEL      136
REMARK 921   NORMALIZED FREE ENERGY PREDICTED BY IDOCK:   -4.44 KCAL/MOL
REMARK 922        TOTAL FREE ENERGY PREDICTED BY IDOCK:   -8.56 KCAL/MOL
REMARK 923 INTER-LIGAND FREE ENERGY PREDICTED BY IDOCK:   -7.56 KCAL/MOL
REMARK 924 INTRA-LIGAND FREE ENERGY PREDICTED BY IDOCK:   -1.00 KCAL/MOL
REMARK 927      BINDING AFFINITY PREDICTED BY RF-SCORE:    0.00 PKD
ROOT
HETATM    1  C   UNL     1     -11.320   2.529  73.589  1.00  0.00    -0.198 C  
HETATM    2  S   UNL     1     -10.035   3.324  72.597  1.00  0.00    -0.161 SA 
ENDROOT
BRANCH   2   3
HETATM    3  C   UNL     1     -10.800   4.974  72.374  1.00  0.00    -0.169 C  
BRANCH   3   4
HETATM    4  C   UNL     1     -10.526   5.906  73.574  1.00  0.00    -0.258 C  
BRANCH   4   5
HETATM    5  N   UNL     1     -11.012   7.249  73.305  1.00  0.00    -0.525 NA 
HETATM    6  H   UNL     1     -11.825   7.599  73.810  1.00  0.00     0.000 HD 
BRANCH   5   7
HETATM    7  C   UNL     1     -10.386   8.058  72.374  1.00  0.00    -0.289 A  
HETATM    8  C   UNL     1     -11.144   8.888  71.532  1.00  0.00    -0.326 A  
HETATM    9  N   UNL     1     -12.502   9.124  71.448  1.00  0.00    -0.318 NA 
HETATM   10  C   UNL     1     -12.627  10.067  70.528  1.00  0.00    -0.150 A  
HETATM   11  N   UNL     1     -11.408  10.429  69.993  1.00  0.00    -0.290 NA 
HETATM   12  C   UNL     1     -10.455   9.684  70.628  1.00  0.00    -0.312 A  
HETATM   13  N   UNL     1      -9.029   8.077  72.232  1.00  0.00    -0.153 NA 
HETATM   14  C   UNL     1      -8.489   8.867  71.281  1.00  0.00    -0.182 A  
HETATM   15  N   UNL     1      -9.134   9.717  70.446  1.00  0.00    -0.238 NA 
BRANCH  11  16
HETATM   16  C   UNL     1     -11.220  11.545  69.092  1.00  0.00    -0.274 C  
HETATM   17  O   UNL     1     -11.822  11.196  67.839  1.00  0.00    -0.601 OA 
HETATM   18  C   UNL     1     -10.799  10.863  66.887  1.00  0.00    -0.249 C  
HETATM   19  H   UNL     1      -8.965  13.749  68.149  1.00  0.00     0.000 HD 
HETATM   20  O   UNL     1      -9.836  13.444  68.373  1.00  0.00    -0.229 OA 
HETATM   21  C   UNL     1      -9.451  11.250  67.487  1.00  0.00    -0.169 C  
HETATM   22  H   UNL     1      -7.876  12.283  66.916  1.00  0.00     0.000 HD 
HETATM   23  C   UNL     1      -9.811  12.039  68.729  1.00  0.00    -0.044 C  
HETATM   24  O   UNL     1      -8.716  12.041  66.543  1.00  0.00    -0.194 OA 
BRANCH  18  25
HETATM   25  C   UNL     1     -10.835   9.382  66.503  1.00  0.00     0.202 C  
BRANCH  25  26
HETATM   26  O   UNL     1      -9.979   8.707  67.426  1.00  0.00    -0.177 OA 
BRANCH  26  27
HETATM   27  P   UNL     1      -9.955   7.108  67.291  1.00  0.00    -0.233 P  
HETATM   28  O   UNL     1      -9.230   6.780  68.698  1.00  0.00    -0.134 OA 
HETATM   29  O   UNL     1     -11.286   6.432  67.142  1.00  0.00    -0.308 OA 
BRANCH  27  30
HETATM   30  O   UNL     1      -8.929   6.828  66.051  1.00  0.00    -0.153 OA 
HETATM   31  P   UNL     1      -8.411   5.193  65.830  1.00  0.00    -0.126 P  
HETATM   32  C   UNL     1      -7.863   3.463  65.596  1.00  0.00    -0.085 C  
HETATM   33  O   UNL     1      -7.334   5.438  67.057  1.00  0.00    -0.080 OA 
HETATM   34  O   UNL     1      -9.718   4.640  66.458  1.00  0.00    -0.163 OA 
HETATM   35 CL   UNL     1      -7.846   2.509  67.156  1.00  0.00    -0.069 Cl 
HETATM   36  P   UNL     1      -9.093   2.566  64.579  1.00  0.00    -0.132 P  
HETATM   37 CL   UNL     1      -6.161   3.476  65.024  1.00  0.00    -0.023 Cl 
HETATM   38  O   UNL     1      -8.114   2.740  63.253  1.00  0.00    -0.072 OA 
HETATM   39  O   UNL     1      -9.847   3.987  64.167  1.00  0.00    -0.167 OA 
HETATM   40  O   UNL     1     -10.132   1.808  63.717  1.00  0.00    -0.133 OA 
ENDBRANCH  27  30
ENDBRANCH  26  27
ENDBRANCH  25  26
ENDBRANCH  18  25
ENDBRANCH  11  16
BRANCH  14  41
HETATM   41  S   UNL     1      -6.725   8.819  71.048  1.00  0.00    -0.078 SA 
BRANCH  41  42
HETATM   42  C   UNL     1      -6.463   7.020  70.891  1.00  0.00    -0.044 C  
BRANCH  42  43
HETATM   43  C   UNL     1      -5.890   6.501  72.203  1.00  0.00    -0.038 C  
HETATM   44  C   UNL     1      -6.586   5.241  72.670  1.00  0.00    -0.064 C  
HETATM   45  F   UNL     1      -5.688   4.246  72.862  1.00  0.00    -0.006 F  
HETATM   46  F   UNL     1      -7.508   4.793  71.796  1.00  0.00    -0.068 F  
HETATM   47  F   UNL     1      -7.208   5.447  73.852  1.00  0.00    -0.081 F  
ENDBRANCH  42  43
ENDBRANCH  41  42
ENDBRANCH  14  41
ENDBRANCH   5   7
ENDBRANCH   4   5
ENDBRANCH   3   4
ENDBRANCH   2   3
TORSDOF 12
ENDMDL
MODEL      137
REMARK 921   NORMALIZED FREE ENERGY PREDICTED BY IDOCK:   -4.43 KCAL/MOL
REMARK 922        TOTAL FREE ENERGY PREDICTED BY IDOCK:   -8.54 KCAL/MOL
REMARK 923 INTER-LIGAND FREE ENERGY PREDICTED BY IDOCK:   -8.37 KCAL/MOL
REMARK 924 INTRA-LIGAND FREE ENERGY PREDICTED BY IDOCK:   -0.18 KCAL/MOL
REMARK 927      BINDING AFFINITY PREDICTED BY RF-SCORE:    0.00 PKD
ROOT
HETATM    1  C   UNL     1      -6.643  14.432  67.824  1.00  0.00    -0.173 C  
HETATM    2  S   UNL     1      -5.428  14.112  69.122  1.00  0.00    -0.081 SA 
ENDROOT
BRANCH   2   3
HETATM    3  C   UNL     1      -5.320  12.287  68.994  1.00  0.00    -0.055 C  
BRANCH   3   4
HETATM    4  C   UNL     1      -5.493  11.599  70.366  1.00  0.00    -0.135 C  
BRANCH   4   5
HETATM    5  N   UNL     1      -5.752  10.179  70.202  1.00  0.00    -0.048 NA 
HETATM    6  H   UNL     1      -5.118   9.615  69.637  1.00  0.00     0.000 HD 
BRANCH   5   7
HETATM    7  C   UNL     1      -6.847   9.582  70.802  1.00  0.00    -0.103 A  
HETATM    8  C   UNL     1      -8.141   9.822  70.315  1.00  0.00    -0.154 A  
HETATM    9  N   UNL     1      -8.602  10.564  69.244  1.00  0.00    -0.152 NA 
HETATM   10  C   UNL     1      -9.908  10.353  69.222  1.00  0.00    -0.225 A  
HETATM   11  N   UNL     1     -10.314   9.529  70.251  1.00  0.00    -0.248 NA 
HETATM   12  C   UNL     1      -9.195   9.184  70.953  1.00  0.00    -0.261 A  
HETATM   13  N   UNL     1      -6.716   8.754  71.879  1.00  0.00    -0.159 NA 
HETATM   14  C   UNL     1      -7.829   8.232  72.433  1.00  0.00    -0.127 A  
HETATM   15  N   UNL     1      -9.109   8.385  72.018  1.00  0.00    -0.205 NA 
BRANCH  11  16
HETATM   16  C   UNL     1     -11.653   8.995  70.379  1.00  0.00    -0.117 C  
HETATM   17  O   UNL     1     -12.572  10.051  70.072  1.00  0.00    -0.009 OA 
HETATM   18  C   UNL     1     -13.161  10.546  71.285  1.00  0.00    -0.383 C  
HETATM   19  H   UNL     1     -13.487   7.064  72.312  1.00  0.00     0.000 HD 
HETATM   20  O   UNL     1     -13.181   7.422  71.487  1.00  0.00    -0.363 OA 
HETATM   21  C   UNL     1     -12.782   9.596  72.417  1.00  0.00    -0.191 C  
HETATM   22  H   UNL     1     -13.726   8.628  73.846  1.00  0.00     0.000 HD 
HETATM   23  C   UNL     1     -12.148   8.414  71.712  1.00  0.00    -0.328 C  
HETATM   24  O   UNL     1     -13.961   9.219  73.141  1.00  0.00    -0.247 OA 
BRANCH  18  25
HETATM   25  C   UNL     1     -12.723  11.980  71.590  1.00  0.00    -0.221 C  
BRANCH  25  26
HETATM   26  O   UNL     1     -12.654  12.654  70.332  1.00  0.00    -0.172 OA 
BRANCH  26  27
HETATM   27  P   UNL     1     -11.935  14.088  70.365  1.00  0.00    -0.279 P  
HETATM   28  O   UNL     1     -13.080  14.925  69.590  1.00  0.00     0.203 OA 
HETATM   29  O   UNL     1     -11.614  14.642  71.721  1.00  0.00    -0.270 OA 
BRANCH  27  30
HETATM   30  O   UNL     1     -10.629  13.899  69.401  1.00  0.00    -0.108 OA 
HETATM   31  P   UNL     1     -10.875  14.148  67.707  1.00  0.00    -0.262 P  
HETATM   32  C   UNL     1     -11.135  14.411  65.915  1.00  0.00    -0.319 C  
HETATM   33  O   UNL     1     -11.512  12.626  67.644  1.00  0.00    -0.291 OA 
HETATM   34  O   UNL     1     -12.043  15.134  67.969  1.00  0.00    -0.192 OA 
HETATM   35 CL   UNL     1     -12.844  14.032  65.385  1.00  0.00    -0.515 Cl 
HETATM   36  P   UNL     1     -10.970  16.193  65.530  1.00  0.00    -0.021 P  
HETATM   37 CL   UNL     1     -10.089  13.265  65.013  1.00  0.00    -0.281 Cl 
HETATM   38  O   UNL     1      -9.436  15.923  64.964  1.00  0.00    -0.081 OA 
HETATM   39  O   UNL     1     -10.327  16.498  67.030  1.00  0.00    -0.295 OA 
HETATM   40  O   UNL     1     -10.830  17.700  65.204  1.00  0.00    -0.664 OA 
ENDBRANCH  27  30
ENDBRANCH  26  27
ENDBRANCH  25  26
ENDBRANCH  18  25
ENDBRANCH  11  16
BRANCH  14  41
HETATM   41  S   UNL     1      -7.653   7.223  73.888  1.00  0.00    -0.112 SA 
BRANCH  41  42
HETATM   42  C   UNL     1      -7.180   5.632  73.131  1.00  0.00    -0.094 C  
BRANCH  42  43
HETATM   43  C   UNL     1      -8.451   4.879  72.759  1.00  0.00    -0.115 C  
HETATM   44  C   UNL     1      -8.773   4.999  71.285  1.00  0.00    -0.129 C  
HETATM   45  F   UNL     1      -8.892   3.772  70.725  1.00  0.00    -0.098 F  
HETATM   46  F   UNL     1      -7.834   5.672  70.593  1.00  0.00    -0.089 F  
HETATM   47  F   UNL     1      -9.951   5.634  71.102  1.00  0.00    -0.198 F  
ENDBRANCH  42  43
ENDBRANCH  41  42
ENDBRANCH  14  41
ENDBRANCH   5   7
ENDBRANCH   4   5
ENDBRANCH   3   4
ENDBRANCH   2   3
TORSDOF 12
ENDMDL
MODEL      138
REMARK 921   NORMALIZED FREE ENERGY PREDICTED BY IDOCK:   -4.37 KCAL/MOL
REMARK 922        TOTAL FREE ENERGY PREDICTED BY IDOCK:   -8.45 KCAL/MOL
REMARK 923 INTER-LIGAND FREE ENERGY PREDICTED BY IDOCK:   -8.31 KCAL/MOL
REMARK 924 INTRA-LIGAND FREE ENERGY PREDICTED BY IDOCK:   -0.14 KCAL/MOL
REMARK 927      BINDING AFFINITY PREDICTED BY RF-SCORE:    0.00 PKD
ROOT
HETATM    1  C   UNL     1     -12.751  16.124  73.787  1.00  0.00    -0.572 C  
HETATM    2  S   UNL     1     -12.405  14.790  72.618  1.00  0.00    -0.256 SA 
ENDROOT
BRANCH   2   3
HETATM    3  C   UNL     1     -13.260  15.454  71.138  1.00  0.00    -0.513 C  
BRANCH   3   4
HETATM    4  C   UNL     1     -12.323  15.529  69.914  1.00  0.00    -0.277 C  
BRANCH   4   5
HETATM    5  N   UNL     1     -10.934  15.616  70.332  1.00  0.00    -0.326 NA 
HETATM    6  H   UNL     1     -10.714  15.787  71.313  1.00  0.00     0.000 HD 
BRANCH   5   7
HETATM    7  C   UNL     1      -9.906  15.470  69.417  1.00  0.00    -0.283 A  
HETATM    8  C   UNL     1      -9.602  14.207  68.886  1.00  0.00    -0.050 A  
HETATM    9  N   UNL     1     -10.185  12.967  69.065  1.00  0.00     0.027 NA 
HETATM   10  C   UNL     1      -9.529  12.163  68.242  1.00  0.00    -0.204 A  
HETATM   11  N   UNL     1      -8.528  12.825  67.563  1.00  0.00    -0.170 NA 
HETATM   12  C   UNL     1      -8.568  14.130  67.965  1.00  0.00    -0.172 A  
HETATM   13  N   UNL     1      -9.151  16.531  69.006  1.00  0.00    -0.252 NA 
HETATM   14  C   UNL     1      -8.144  16.309  68.137  1.00  0.00    -0.158 A  
HETATM   15  N   UNL     1      -7.797  15.138  67.554  1.00  0.00    -0.164 NA 
BRANCH  11  16
HETATM   16  C   UNL     1      -7.762  12.243  66.484  1.00  0.00     0.319 C  
HETATM   17  O   UNL     1      -8.671  11.509  65.653  1.00  0.00    -0.097 OA 
HETATM   18  C   UNL     1      -8.517  10.101  65.895  1.00  0.00    -0.141 C  
HETATM   19  H   UNL     1      -4.921  10.695  65.879  1.00  0.00     0.000 HD 
HETATM   20  O   UNL     1      -5.632  11.299  65.701  1.00  0.00    -0.181 OA 
HETATM   21  C   UNL     1      -7.272   9.902  66.752  1.00  0.00    -0.091 C  
HETATM   22  H   UNL     1      -5.656   8.781  66.687  1.00  0.00     0.000 HD 
HETATM   23  C   UNL     1      -6.611  11.265  66.770  1.00  0.00    -0.140 C  
HETATM   24  O   UNL     1      -6.432   8.905  66.153  1.00  0.00    -0.063 OA 
BRANCH  18  25
HETATM   25  C   UNL     1      -9.755   9.496  66.558  1.00  0.00    -0.222 C  
BRANCH  25  26
HETATM   26  O   UNL     1      -9.293   8.812  67.723  1.00  0.00    -0.140 OA 
BRANCH  26  27
HETATM   27  P   UNL     1     -10.376   8.650  68.896  1.00  0.00    -0.160 P  
HETATM   28  O   UNL     1     -11.446   9.736  68.358  1.00  0.00    -0.001 OA 
HETATM   29  O   UNL     1     -10.964   7.282  69.076  1.00  0.00    -0.160 OA 
BRANCH  27  30
HETATM   30  O   UNL     1      -9.614   9.222  70.223  1.00  0.00    -0.200 OA 
HETATM   31  P   UNL     1      -9.095   8.049  71.383  1.00  0.00    -0.162 P  
HETATM   32  C   UNL     1      -8.546   6.807  72.610  1.00  0.00    -0.122 C  
HETATM   33  O   UNL     1     -10.651   8.001  71.933  1.00  0.00    -0.221 OA 
HETATM   34  O   UNL     1      -8.950   6.957  70.290  1.00  0.00    -0.151 OA 
HETATM   35 CL   UNL     1      -9.590   5.306  72.613  1.00  0.00    -0.164 Cl 
HETATM   36  P   UNL     1      -6.900   6.163  72.131  1.00  0.00    -0.075 P  
HETATM   37 CL   UNL     1      -8.717   7.514  74.252  1.00  0.00    -0.271 Cl 
HETATM   38  O   UNL     1      -6.192   7.151  73.258  1.00  0.00    -0.057 OA 
HETATM   39  O   UNL     1      -6.712   7.369  71.005  1.00  0.00    -0.043 OA 
HETATM   40  O   UNL     1      -5.508   5.619  71.727  1.00  0.00    -0.018 OA 
ENDBRANCH  27  30
ENDBRANCH  26  27
ENDBRANCH  25  26
ENDBRANCH  18  25
ENDBRANCH  11  16
BRANCH  14  41
HETATM   41  S   UNL     1      -7.113  17.685  67.675  1.00  0.00    -0.179 SA 
BRANCH  41  42
HETATM   42  C   UNL     1      -8.358  19.016  67.589  1.00  0.00    -0.287 C  
BRANCH  42  43
HETATM   43  C   UNL     1      -8.933  19.047  66.179  1.00  0.00    -0.202 C  
HETATM   44  C   UNL     1     -10.394  18.655  66.151  1.00  0.00    -0.443 C  
HETATM   45  F   UNL     1     -11.135  19.625  65.565  1.00  0.00    -0.501 F  
HETATM   46  F   UNL     1     -10.906  18.438  67.378  1.00  0.00    -0.419 F  
HETATM   47  F   UNL     1     -10.574  17.527  65.427  1.00  0.00    -0.344 F  
ENDBRANCH  42  43
ENDBRANCH  41  42
ENDBRANCH  14  41
ENDBRANCH   5   7
ENDBRANCH   4   5
ENDBRANCH   3   4
ENDBRANCH   2   3
TORSDOF 12
ENDMDL
MODEL      139
REMARK 921   NORMALIZED FREE ENERGY PREDICTED BY IDOCK:   -4.36 KCAL/MOL
REMARK 922        TOTAL FREE ENERGY PREDICTED BY IDOCK:   -8.43 KCAL/MOL
REMARK 923 INTER-LIGAND FREE ENERGY PREDICTED BY IDOCK:   -9.28 KCAL/MOL
REMARK 924 INTRA-LIGAND FREE ENERGY PREDICTED BY IDOCK:    0.85 KCAL/MOL
REMARK 927      BINDING AFFINITY PREDICTED BY RF-SCORE:    0.00 PKD
ROOT
HETATM    1  C   UNL     1     -14.175   9.233  72.541  1.00  0.00    -0.125 C  
HETATM    2  S   UNL     1     -14.120   7.668  71.639  1.00  0.00    -0.408 SA 
ENDROOT
BRANCH   2   3
HETATM    3  C   UNL     1     -12.446   7.799  70.905  1.00  0.00    -0.059 C  
BRANCH   3   4
HETATM    4  C   UNL     1     -11.920   6.433  70.415  1.00  0.00    -0.115 C  
BRANCH   4   5
HETATM    5  N   UNL     1     -11.329   6.552  69.093  1.00  0.00    -0.582 NA 
HETATM    6  H   UNL     1     -11.420   5.782  68.431  1.00  0.00     0.000 HD 
BRANCH   5   7
HETATM    7  C   UNL     1     -10.644   7.695  68.721  1.00  0.00    -0.145 A  
HETATM    8  C   UNL     1      -9.852   7.702  67.562  1.00  0.00    -0.165 A  
HETATM    9  N   UNL     1      -9.615   6.738  66.601  1.00  0.00    -0.169 NA 
HETATM   10  C   UNL     1      -8.856   7.339  65.698  1.00  0.00    -0.014 A  
HETATM   11  N   UNL     1      -8.569   8.641  66.051  1.00  0.00    -0.145 NA 
HETATM   12  C   UNL     1      -9.201   8.883  67.237  1.00  0.00    -0.138 A  
HETATM   13  N   UNL     1     -10.703   8.843  69.457  1.00  0.00    -0.224 NA 
HETATM   14  C   UNL     1      -9.984   9.909  69.052  1.00  0.00    -0.187 A  
HETATM   15  N   UNL     1      -9.218  10.016  67.940  1.00  0.00    -0.137 NA 
BRANCH  11  16
HETATM   16  C   UNL     1      -7.901   9.585  65.182  1.00  0.00    -0.113 C  
HETATM   17  O   UNL     1      -8.218  10.902  65.649  1.00  0.00    -0.154 OA 
HETATM   18  C   UNL     1      -9.189  11.503  64.777  1.00  0.00     0.035 C  
HETATM   19  H   UNL     1      -7.244  10.151  62.007  1.00  0.00     0.000 HD 
HETATM   20  O   UNL     1      -7.060  10.131  62.938  1.00  0.00    -0.125 OA 
HETATM   21  C   UNL     1      -9.328  10.619  63.542  1.00  0.00    -0.290 C  
HETATM   22  H   UNL     1      -9.285  10.871  61.591  1.00  0.00     0.000 HD 
HETATM   23  C   UNL     1      -8.199   9.618  63.674  1.00  0.00    -0.162 C  
HETATM   24  O   UNL     1      -9.199  11.421  62.360  1.00  0.00    -0.276 OA 
BRANCH  18  25
HETATM   25  C   UNL     1     -10.536  11.706  65.474  1.00  0.00    -0.273 C  
BRANCH  25  26
HETATM   26  O   UNL     1     -11.438  12.181  64.474  1.00  0.00    -0.318 OA 
BRANCH  26  27
HETATM   27  P   UNL     1     -11.799  13.741  64.565  1.00  0.00    -0.439 P  
HETATM   28  O   UNL     1     -12.657  13.849  63.199  1.00  0.00    -0.775 OA 
HETATM   29  O   UNL     1     -12.565  14.179  65.778  1.00  0.00    -0.488 OA 
BRANCH  27  30
HETATM   30  O   UNL     1     -10.360  14.494  64.385  1.00  0.00    -0.141 OA 
HETATM   31  P   UNL     1      -9.897  15.589  65.641  1.00  0.00    -0.266 P  
HETATM   32  C   UNL     1      -9.408  16.747  66.971  1.00  0.00    -0.233 C  
HETATM   33  O   UNL     1     -10.902  16.702  64.951  1.00  0.00    -0.697 OA 
HETATM   34  O   UNL     1     -10.721  14.806  66.698  1.00  0.00    -0.297 OA 
HETATM   35 CL   UNL     1     -10.843  17.502  67.816  1.00  0.00    -0.326 Cl 
HETATM   36  P   UNL     1      -8.581  15.819  68.315  1.00  0.00    -0.181 P  
HETATM   37 CL   UNL     1      -8.512  18.117  66.232  1.00  0.00    -0.252 Cl 
HETATM   38  O   UNL     1      -7.107  16.320  67.745  1.00  0.00    -0.119 OA 
HETATM   39  O   UNL     1      -8.454  14.468  67.357  1.00  0.00    -0.179 OA 
HETATM   40  O   UNL     1      -7.880  15.035  69.451  1.00  0.00    -0.190 OA 
ENDBRANCH  27  30
ENDBRANCH  26  27
ENDBRANCH  25  26
ENDBRANCH  18  25
ENDBRANCH  11  16
BRANCH  14  41
HETATM   41  S   UNL     1     -10.001  11.371  70.066  1.00  0.00     1.752 SA 
BRANCH  41  42
HETATM   42  C   UNL     1     -11.579  12.120  69.539  1.00  0.00    -0.315 C  
BRANCH  42  43
HETATM   43  C   UNL     1     -11.430  13.635  69.578  1.00  0.00    -0.324 C  
HETATM   44  C   UNL     1     -12.060  14.237  70.815  1.00  0.00    -0.348 C  
HETATM   45  F   UNL     1     -11.154  14.978  71.496  1.00  0.00    -0.384 F  
HETATM   46  F   UNL     1     -12.548  13.311  71.663  1.00  0.00    -0.397 F  
HETATM   47  F   UNL     1     -13.077  15.063  70.482  1.00  0.00    -0.391 F  
ENDBRANCH  42  43
ENDBRANCH  41  42
ENDBRANCH  14  41
ENDBRANCH   5   7
ENDBRANCH   4   5
ENDBRANCH   3   4
ENDBRANCH   2   3
TORSDOF 12
ENDMDL
MODEL      140
REMARK 921   NORMALIZED FREE ENERGY PREDICTED BY IDOCK:   -4.35 KCAL/MOL
REMARK 922        TOTAL FREE ENERGY PREDICTED BY IDOCK:   -8.41 KCAL/MOL
REMARK 923 INTER-LIGAND FREE ENERGY PREDICTED BY IDOCK:   -8.06 KCAL/MOL
REMARK 924 INTRA-LIGAND FREE ENERGY PREDICTED BY IDOCK:   -0.36 KCAL/MOL
REMARK 927      BINDING AFFINITY PREDICTED BY RF-SCORE:    0.00 PKD
ROOT
HETATM    1  C   UNL     1      -6.096  14.285  70.681  1.00  0.00    -0.181 C  
HETATM    2  S   UNL     1      -5.270  12.721  71.049  1.00  0.00    -0.165 SA 
ENDROOT
BRANCH   2   3
HETATM    3  C   UNL     1      -6.235  11.605  69.962  1.00  0.00    -0.140 C  
BRANCH   3   4
HETATM    4  C   UNL     1      -6.508  12.236  68.580  1.00  0.00    -0.073 C  
BRANCH   4   5
HETATM    5  N   UNL     1      -7.878  11.993  68.163  1.00  0.00    -0.136 NA 
HETATM    6  H   UNL     1      -8.646  12.286  68.766  1.00  0.00     0.000 HD 
BRANCH   5   7
HETATM    7  C   UNL     1      -8.155  11.370  66.959  1.00  0.00    -0.157 A  
HETATM    8  C   UNL     1      -7.276  10.406  66.440  1.00  0.00    -0.119 A  
HETATM    9  N   UNL     1      -6.104   9.866  66.933  1.00  0.00    -0.061 NA 
HETATM   10  C   UNL     1      -5.761   8.939  66.052  1.00  0.00    -0.050 A  
HETATM   11  N   UNL     1      -6.647   8.879  64.996  1.00  0.00    -0.068 NA 
HETATM   12  C   UNL     1      -7.618   9.809  65.235  1.00  0.00    -0.119 A  
HETATM   13  N   UNL     1      -9.273  11.667  66.235  1.00  0.00    -0.214 NA 
HETATM   14  C   UNL     1      -9.463  11.043  65.054  1.00  0.00    -0.233 A  
HETATM   15  N   UNL     1      -8.689  10.086  64.490  1.00  0.00    -0.179 NA 
BRANCH  11  16
HETATM   16  C   UNL     1      -6.618   7.856  63.974  1.00  0.00    -0.061 C  
HETATM   17  O   UNL     1      -7.950   7.349  63.831  1.00  0.00    -0.132 OA 
HETATM   18  C   UNL     1      -8.045   6.059  64.456  1.00  0.00    -0.126 C  
HETATM   19  H   UNL     1      -4.823   5.303  62.929  1.00  0.00     0.000 HD 
HETATM   20  O   UNL     1      -5.369   6.074  62.833  1.00  0.00    -0.017 OA 
HETATM   21  C   UNL     1      -6.635   5.601  64.813  1.00  0.00    -0.042 C  
HETATM   22  H   UNL     1      -5.546   3.985  64.541  1.00  0.00     0.000 HD 
HETATM   23  C   UNL     1      -5.734   6.609  64.130  1.00  0.00    -0.031 C  
HETATM   24  O   UNL     1      -6.424   4.270  64.319  1.00  0.00    -0.039 OA 
BRANCH  18  25
HETATM   25  C   UNL     1      -8.953   6.086  65.687  1.00  0.00    -0.064 C  
BRANCH  25  26
HETATM   26  O   UNL     1      -8.158   5.627  66.782  1.00  0.00    -0.101 OA 
BRANCH  26  27
HETATM   27  P   UNL     1      -8.965   5.341  68.139  1.00  0.00    -0.113 P  
HETATM   28  O   UNL     1     -10.459   5.482  67.540  1.00  0.00    -0.214 OA 
HETATM   29  O   UNL     1      -8.715   4.016  68.796  1.00  0.00    -0.089 OA 
BRANCH  27  30
HETATM   30  O   UNL     1      -8.616   6.625  69.087  1.00  0.00    -0.129 OA 
HETATM   31  P   UNL     1      -9.763   7.008  70.323  1.00  0.00    -0.174 P  
HETATM   32  C   UNL     1     -10.978   7.413  71.631  1.00  0.00    -0.225 C  
HETATM   33  O   UNL     1     -10.675   7.740  69.158  1.00  0.00    -0.208 OA 
HETATM   34  O   UNL     1     -10.228   5.531  70.422  1.00  0.00    -0.212 OA 
HETATM   35 CL   UNL     1     -12.682   6.914  71.193  1.00  0.00    -0.389 Cl 
HETATM   36  P   UNL     1     -10.626   6.411  73.122  1.00  0.00    -0.268 P  
HETATM   37 CL   UNL     1     -11.036   9.197  71.823  1.00  0.00    -0.440 Cl 
HETATM   38  O   UNL     1      -9.886   7.720  73.819  1.00  0.00    -0.258 OA 
HETATM   39  O   UNL     1      -9.153   5.947  72.510  1.00  0.00    -0.137 OA 
HETATM   40  O   UNL     1     -10.327   5.565  74.384  1.00  0.00    -0.264 OA 
ENDBRANCH  27  30
ENDBRANCH  26  27
ENDBRANCH  25  26
ENDBRANCH  18  25
ENDBRANCH  11  16
BRANCH  14  41
HETATM   41  S   UNL     1     -10.879  11.501  64.078  1.00  0.00    -0.396 SA 
BRANCH  41  42
HETATM   42  C   UNL     1     -11.439  12.982  64.985  1.00  0.00    -0.313 C  
BRANCH  42  43
HETATM   43  C   UNL     1     -10.664  14.186  64.467  1.00  0.00    -0.323 C  
HETATM   44  C   UNL     1     -10.720  15.355  65.426  1.00  0.00    -0.400 C  
HETATM   45  F   UNL     1      -9.470  15.758  65.755  1.00  0.00    -0.326 F  
HETATM   46  F   UNL     1     -11.369  15.068  66.570  1.00  0.00    -0.339 F  
HETATM   47  F   UNL     1     -11.340  16.413  64.857  1.00  0.00    -0.330 F  
ENDBRANCH  42  43
ENDBRANCH  41  42
ENDBRANCH  14  41
ENDBRANCH   5   7
ENDBRANCH   4   5
ENDBRANCH   3   4
ENDBRANCH   2   3
TORSDOF 12
ENDMDL
MODEL      141
REMARK 921   NORMALIZED FREE ENERGY PREDICTED BY IDOCK:   -4.34 KCAL/MOL
REMARK 922        TOTAL FREE ENERGY PREDICTED BY IDOCK:   -8.39 KCAL/MOL
REMARK 923 INTER-LIGAND FREE ENERGY PREDICTED BY IDOCK:   -8.82 KCAL/MOL
REMARK 924 INTRA-LIGAND FREE ENERGY PREDICTED BY IDOCK:    0.43 KCAL/MOL
REMARK 927      BINDING AFFINITY PREDICTED BY RF-SCORE:    0.00 PKD
ROOT
HETATM    1  C   UNL     1      -7.713   7.751  72.300  1.00  0.00    -0.099 C  
HETATM    2  S   UNL     1      -7.502   6.006  71.884  1.00  0.00    -0.096 SA 
ENDROOT
BRANCH   2   3
HETATM    3  C   UNL     1      -5.944   6.109  70.923  1.00  0.00    -0.030 C  
BRANCH   3   4
HETATM    4  C   UNL     1      -5.899   5.071  69.782  1.00  0.00    -0.017 C  
BRANCH   4   5
HETATM    5  N   UNL     1      -7.092   5.157  68.958  1.00  0.00    -0.055 NA 
HETATM    6  H   UNL     1      -7.982   4.823  69.326  1.00  0.00     0.000 HD 
BRANCH   5   7
HETATM    7  C   UNL     1      -7.037   5.685  67.680  1.00  0.00    -0.071 A  
HETATM    8  C   UNL     1      -7.368   7.031  67.454  1.00  0.00    -0.092 A  
HETATM    9  N   UNL     1      -7.734   8.048  68.314  1.00  0.00    -0.115 NA 
HETATM   10  C   UNL     1      -7.838   9.121  67.546  1.00  0.00    -0.100 A  
HETATM   11  N   UNL     1      -7.584   8.832  66.221  1.00  0.00    -0.090 NA 
HETATM   12  C   UNL     1      -7.281   7.502  66.152  1.00  0.00    -0.074 A  
HETATM   13  N   UNL     1      -6.672   4.931  66.603  1.00  0.00    -0.050 NA 
HETATM   14  C   UNL     1      -6.672   5.503  65.382  1.00  0.00    -0.041 A  
HETATM   15  N   UNL     1      -6.948   6.793  65.073  1.00  0.00    -0.050 NA 
BRANCH  11  16
HETATM   16  C   UNL     1      -7.463   9.834  65.185  1.00  0.00    -0.122 C  
HETATM   17  O   UNL     1      -8.251  10.964  65.580  1.00  0.00    -0.154 OA 
HETATM   18  C   UNL     1      -9.467  10.996  64.816  1.00  0.00    -0.230 C  
HETATM   19  H   UNL     1      -7.427  10.168  61.911  1.00  0.00     0.000 HD 
HETATM   20  O   UNL     1      -7.158  10.354  62.803  1.00  0.00    -0.138 OA 
HETATM   21  C   UNL     1      -9.349   9.968  63.696  1.00  0.00    -0.253 C  
HETATM   22  H   UNL     1      -9.613   9.942  61.746  1.00  0.00     0.000 HD 
HETATM   23  C   UNL     1      -7.899   9.534  63.742  1.00  0.00    -0.133 C  
HETATM   24  O   UNL     1      -9.687  10.582  62.444  1.00  0.00    -0.214 OA 
BRANCH  18  25
HETATM   25  C   UNL     1     -10.697  10.736  65.687  1.00  0.00    -0.072 C  
BRANCH  25  26
HETATM   26  O   UNL     1     -11.148  12.013  66.138  1.00  0.00    -0.296 OA 
BRANCH  26  27
HETATM   27  P   UNL     1     -12.022  12.843  65.080  1.00  0.00    -0.459 P  
HETATM   28  O   UNL     1     -10.829  13.225  64.059  1.00  0.00    -0.380 OA 
HETATM   29  O   UNL     1     -13.149  12.103  64.420  1.00  0.00    -0.740 OA 
BRANCH  27  30
HETATM   30  O   UNL     1     -12.498  14.168  65.909  1.00  0.00    -0.471 OA 
HETATM   31  P   UNL     1     -11.279  14.990  66.820  1.00  0.00    -0.234 P  
HETATM   32  C   UNL     1      -9.988  15.859  67.783  1.00  0.00    -0.229 C  
HETATM   33  O   UNL     1     -11.460  13.832  67.982  1.00  0.00    -0.275 OA 
HETATM   34  O   UNL     1     -10.162  14.512  65.853  1.00  0.00    -0.292 OA 
HETATM   35 CL   UNL     1      -8.651  14.744  68.342  1.00  0.00    -0.160 Cl 
HETATM   36  P   UNL     1      -9.109  17.042  66.697  1.00  0.00    -0.278 P  
HETATM   37 CL   UNL     1     -10.733  16.503  69.283  1.00  0.00    -0.316 Cl 
HETATM   38  O   UNL     1     -10.002  18.283  67.337  1.00  0.00    -0.309 OA 
HETATM   39  O   UNL     1     -10.261  16.871  65.512  1.00  0.00    -0.580 OA 
HETATM   40  O   UNL     1      -8.367  18.044  65.779  1.00  0.00    -0.508 OA 
ENDBRANCH  27  30
ENDBRANCH  26  27
ENDBRANCH  25  26
ENDBRANCH  18  25
ENDBRANCH  11  16
BRANCH  14  41
HETATM   41  S   UNL     1      -6.279   4.487  63.975  1.00  0.00    -0.022 SA 
BRANCH  41  42
HETATM   42  C   UNL     1      -7.840   3.560  63.791  1.00  0.00    -0.080 C  
BRANCH  42  43
HETATM   43  C   UNL     1      -8.993   4.556  63.785  1.00  0.00    -0.135 C  
HETATM   44  C   UNL     1     -10.006   4.260  64.870  1.00  0.00    -0.168 C  
HETATM   45  F   UNL     1     -10.186   5.346  65.659  1.00  0.00    -0.120 F  
HETATM   46  F   UNL     1      -9.644   3.235  65.665  1.00  0.00    -0.165 F  
HETATM   47  F   UNL     1     -11.209   3.957  64.333  1.00  0.00    -0.310 F  
ENDBRANCH  42  43
ENDBRANCH  41  42
ENDBRANCH  14  41
ENDBRANCH   5   7
ENDBRANCH   4   5
ENDBRANCH   3   4
ENDBRANCH   2   3
TORSDOF 12
ENDMDL
MODEL      142
REMARK 921   NORMALIZED FREE ENERGY PREDICTED BY IDOCK:   -4.34 KCAL/MOL
REMARK 922        TOTAL FREE ENERGY PREDICTED BY IDOCK:   -8.39 KCAL/MOL
REMARK 923 INTER-LIGAND FREE ENERGY PREDICTED BY IDOCK:   -7.75 KCAL/MOL
REMARK 924 INTRA-LIGAND FREE ENERGY PREDICTED BY IDOCK:   -0.64 KCAL/MOL
REMARK 927      BINDING AFFINITY PREDICTED BY RF-SCORE:    0.00 PKD
ROOT
HETATM    1  C   UNL     1      -5.594  14.191  70.770  1.00  0.00    -0.173 C  
HETATM    2  S   UNL     1      -5.780  13.978  68.985  1.00  0.00    -0.091 SA 
ENDROOT
BRANCH   2   3
HETATM    3  C   UNL     1      -7.568  13.580  68.911  1.00  0.00    -0.002 C  
BRANCH   3   4
HETATM    4  C   UNL     1      -8.262  14.256  67.709  1.00  0.00    -0.174 C  
BRANCH   4   5
HETATM    5  N   UNL     1      -9.685  13.964  67.704  1.00  0.00    -0.221 NA 
HETATM    6  H   UNL     1     -10.347  14.695  67.447  1.00  0.00     0.000 HD 
BRANCH   5   7
HETATM    7  C   UNL     1     -10.154  12.707  68.044  1.00  0.00    -0.229 A  
HETATM    8  C   UNL     1      -9.744  11.577  67.318  1.00  0.00    -0.182 A  
HETATM    9  N   UNL     1      -8.864  11.427  66.265  1.00  0.00    -0.195 NA 
HETATM   10  C   UNL     1      -8.811  10.121  66.051  1.00  0.00    -0.143 A  
HETATM   11  N   UNL     1      -9.643   9.426  66.903  1.00  0.00    -0.155 NA 
HETATM   12  C   UNL     1     -10.241  10.345  67.717  1.00  0.00    -0.193 A  
HETATM   13  N   UNL     1     -11.025  12.518  69.077  1.00  0.00    -0.218 NA 
HETATM   14  C   UNL     1     -11.466  11.269  69.332  1.00  0.00    -0.301 A  
HETATM   15  N   UNL     1     -11.108  10.122  68.707  1.00  0.00    -0.224 NA 
BRANCH  11  16
HETATM   16  C   UNL     1      -9.667   7.983  67.011  1.00  0.00    -0.211 C  
HETATM   17  O   UNL     1      -9.298   7.643  68.353  1.00  0.00    -0.146 OA 
HETATM   18  C   UNL     1      -7.948   7.152  68.373  1.00  0.00    -0.124 C  
HETATM   19  H   UNL     1      -8.802   5.260  65.378  1.00  0.00     0.000 HD 
HETATM   20  O   UNL     1      -9.358   5.799  65.928  1.00  0.00    -0.152 OA 
HETATM   21  C   UNL     1      -7.501   6.937  66.931  1.00  0.00    -0.083 C  
HETATM   22  H   UNL     1      -6.672   5.485  65.893  1.00  0.00     0.000 HD 
HETATM   23  C   UNL     1      -8.769   7.110  66.120  1.00  0.00    -0.151 C  
HETATM   24  O   UNL     1      -6.950   5.620  66.791  1.00  0.00    -0.062 OA 
BRANCH  18  25
HETATM   25  C   UNL     1      -7.005   8.102  69.114  1.00  0.00    -0.060 C  
BRANCH  25  26
HETATM   26  O   UNL     1      -6.802   7.536  70.409  1.00  0.00    -0.046 OA 
BRANCH  26  27
HETATM   27  P   UNL     1      -7.319   8.431  71.636  1.00  0.00    -0.098 P  
HETATM   28  O   UNL     1      -5.994   9.337  71.822  1.00  0.00    -0.077 OA 
HETATM   29  O   UNL     1      -8.558   9.242  71.394  1.00  0.00    -0.326 OA 
BRANCH  27  30
HETATM   30  O   UNL     1      -7.454   7.372  72.873  1.00  0.00    -0.074 OA 
HETATM   31  P   UNL     1      -8.806   6.295  72.825  1.00  0.00    -0.122 P  
HETATM   32  C   UNL     1     -10.237   5.154  72.773  1.00  0.00    -0.179 C  
HETATM   33  O   UNL     1      -9.732   7.536  73.396  1.00  0.00    -0.240 OA 
HETATM   34  O   UNL     1      -8.858   6.346  71.275  1.00  0.00    -0.138 OA 
HETATM   35 CL   UNL     1     -11.672   5.860  71.886  1.00  0.00    -0.273 Cl 
HETATM   36  P   UNL     1      -9.811   3.687  71.765  1.00  0.00    -0.097 P  
HETATM   37 CL   UNL     1     -10.802   4.873  74.453  1.00  0.00    -0.161 Cl 
HETATM   38  O   UNL     1      -9.548   2.818  73.151  1.00  0.00    -0.091 OA 
HETATM   39  O   UNL     1      -8.204   4.105  71.763  1.00  0.00    -0.087 OA 
HETATM   40  O   UNL     1      -9.451   2.445  70.913  1.00  0.00    -0.134 OA 
ENDBRANCH  27  30
ENDBRANCH  26  27
ENDBRANCH  25  26
ENDBRANCH  18  25
ENDBRANCH  11  16
BRANCH  14  41
HETATM   41  S   UNL     1     -12.667  11.047  70.625  1.00  0.00    -0.249 SA 
BRANCH  41  42
HETATM   42  C   UNL     1     -12.301  12.499  71.668  1.00  0.00     0.298 C  
BRANCH  42  43
HETATM   43  C   UNL     1     -13.488  13.452  71.600  1.00  0.00    -0.378 C  
HETATM   44  C   UNL     1     -13.090  14.880  71.904  1.00  0.00    -0.338 C  
HETATM   45  F   UNL     1     -13.456  15.699  70.890  1.00  0.00    -0.531 F  
HETATM   46  F   UNL     1     -11.764  15.030  72.089  1.00  0.00    -0.395 F  
HETATM   47  F   UNL     1     -13.712  15.325  73.017  1.00  0.00    -0.525 F  
ENDBRANCH  42  43
ENDBRANCH  41  42
ENDBRANCH  14  41
ENDBRANCH   5   7
ENDBRANCH   4   5
ENDBRANCH   3   4
ENDBRANCH   2   3
TORSDOF 12
ENDMDL
MODEL      143
REMARK 921   NORMALIZED FREE ENERGY PREDICTED BY IDOCK:   -4.32 KCAL/MOL
REMARK 922        TOTAL FREE ENERGY PREDICTED BY IDOCK:   -8.37 KCAL/MOL
REMARK 923 INTER-LIGAND FREE ENERGY PREDICTED BY IDOCK:   -7.50 KCAL/MOL
REMARK 924 INTRA-LIGAND FREE ENERGY PREDICTED BY IDOCK:   -0.87 KCAL/MOL
REMARK 927      BINDING AFFINITY PREDICTED BY RF-SCORE:    0.00 PKD
ROOT
HETATM    1  C   UNL     1      -8.677   7.175  65.985  1.00  0.00    -0.147 C  
HETATM    2  S   UNL     1      -7.092   6.328  65.799  1.00  0.00    -0.071 SA 
ENDROOT
BRANCH   2   3
HETATM    3  C   UNL     1      -7.610   4.620  66.217  1.00  0.00    -0.090 C  
BRANCH   3   4
HETATM    4  C   UNL     1      -8.934   4.231  65.526  1.00  0.00    -0.132 C  
BRANCH   4   5
HETATM    5  N   UNL     1      -9.807   3.522  66.446  1.00  0.00    -0.416 NA 
HETATM    6  H   UNL     1     -10.518   2.891  66.079  1.00  0.00     0.000 HD 
BRANCH   5   7
HETATM    7  C   UNL     1      -9.687   3.693  67.814  1.00  0.00    -0.050 A  
HETATM    8  C   UNL     1     -10.274   4.801  68.445  1.00  0.00     0.018 A  
HETATM    9  N   UNL     1     -11.049   5.836  67.959  1.00  0.00    -0.051 NA 
HETATM   10  C   UNL     1     -11.387   6.538  69.029  1.00  0.00    -0.220 A  
HETATM   11  N   UNL     1     -10.837   6.017  70.182  1.00  0.00    -0.310 NA 
HETATM   12  C   UNL     1     -10.128   4.908  69.821  1.00  0.00    -0.249 A  
HETATM   13  N   UNL     1      -8.998   2.808  68.593  1.00  0.00    -0.119 NA 
HETATM   14  C   UNL     1      -8.895   3.055  69.915  1.00  0.00    -0.091 A  
HETATM   15  N   UNL     1      -9.447   4.077  70.612  1.00  0.00    -0.155 NA 
BRANCH  11  16
HETATM   16  C   UNL     1     -11.167   6.476  71.514  1.00  0.00    -0.276 C  
HETATM   17  O   UNL     1     -11.441   7.880  71.433  1.00  0.00    -0.251 OA 
HETATM   18  C   UNL     1     -10.328   8.620  71.963  1.00  0.00    -0.346 C  
HETATM   19  H   UNL     1     -10.235   6.164  74.655  1.00  0.00     0.000 HD 
HETATM   20  O   UNL     1     -10.855   6.252  73.941  1.00  0.00    -0.179 OA 
HETATM   21  C   UNL     1      -9.386   7.634  72.645  1.00  0.00    -0.172 C  
HETATM   22  H   UNL     1      -8.491   7.486  74.391  1.00  0.00     0.000 HD 
HETATM   23  C   UNL     1     -10.164   6.334  72.669  1.00  0.00    -0.185 C  
HETATM   24  O   UNL     1      -9.078   8.100  73.965  1.00  0.00    -0.149 OA 
BRANCH  18  25
HETATM   25  C   UNL     1      -9.608   9.423  70.878  1.00  0.00    -0.231 C  
BRANCH  25  26
HETATM   26  O   UNL     1     -10.611   9.833  69.949  1.00  0.00    -0.227 OA 
BRANCH  26  27
HETATM   27  P   UNL     1     -10.079  10.699  68.707  1.00  0.00    -0.208 P  
HETATM   28  O   UNL     1     -10.678  12.129  69.164  1.00  0.00    -0.173 OA 
HETATM   29  O   UNL     1      -8.594  10.722  68.497  1.00  0.00    -0.133 OA 
BRANCH  27  30
HETATM   30  O   UNL     1     -10.918  10.121  67.430  1.00  0.00    -0.292 OA 
HETATM   31  P   UNL     1     -10.738  10.973  65.936  1.00  0.00    -0.035 P  
HETATM   32  C   UNL     1     -10.547  11.876  64.355  1.00  0.00    -0.319 C  
HETATM   33  O   UNL     1     -11.812  12.085  66.517  1.00  0.00    -0.585 OA 
HETATM   34  O   UNL     1      -9.314  11.452  66.321  1.00  0.00    -0.199 OA 
HETATM   35 CL   UNL     1     -10.166  13.648  64.594  1.00  0.00    -0.402 Cl 
HETATM   36  P   UNL     1      -9.071  11.252  63.471  1.00  0.00     0.061 P  
HETATM   37 CL   UNL     1     -12.117  11.836  63.484  1.00  0.00    -0.563 Cl 
HETATM   38  O   UNL     1     -10.049  10.343  62.490  1.00  0.00    -0.001 OA 
HETATM   39  O   UNL     1      -8.954   9.954  64.501  1.00  0.00    -0.199 OA 
HETATM   40  O   UNL     1      -7.823  10.723  62.723  1.00  0.00    -0.121 OA 
ENDBRANCH  27  30
ENDBRANCH  26  27
ENDBRANCH  25  26
ENDBRANCH  18  25
ENDBRANCH  11  16
BRANCH  14  41
HETATM   41  S   UNL     1      -7.922   1.941  70.906  1.00  0.00    -0.042 SA 
BRANCH  41  42
HETATM   42  C   UNL     1      -6.273   2.702  70.732  1.00  0.00    -0.019 C  
BRANCH  42  43
HETATM   43  C   UNL     1      -5.924   3.401  72.039  1.00  0.00    -0.013 C  
HETATM   44  C   UNL     1      -6.268   4.874  72.006  1.00  0.00    -0.029 C  
HETATM   45  F   UNL     1      -7.087   5.193  73.036  1.00  0.00    -0.076 F  
HETATM   46  F   UNL     1      -6.883   5.247  70.867  1.00  0.00    -0.040 F  
HETATM   47  F   UNL     1      -5.155   5.629  72.137  1.00  0.00    -0.014 F  
ENDBRANCH  42  43
ENDBRANCH  41  42
ENDBRANCH  14  41
ENDBRANCH   5   7
ENDBRANCH   4   5
ENDBRANCH   3   4
ENDBRANCH   2   3
TORSDOF 12
ENDMDL
MODEL      144
REMARK 921   NORMALIZED FREE ENERGY PREDICTED BY IDOCK:   -4.26 KCAL/MOL
REMARK 922        TOTAL FREE ENERGY PREDICTED BY IDOCK:   -8.26 KCAL/MOL
REMARK 923 INTER-LIGAND FREE ENERGY PREDICTED BY IDOCK:   -7.84 KCAL/MOL
REMARK 924 INTRA-LIGAND FREE ENERGY PREDICTED BY IDOCK:   -0.42 KCAL/MOL
REMARK 927      BINDING AFFINITY PREDICTED BY RF-SCORE:    0.00 PKD
ROOT
HETATM    1  C   UNL     1     -11.074  15.539  71.216  1.00  0.00    -0.284 C  
HETATM    2  S   UNL     1     -10.782  16.404  69.657  1.00  0.00    -0.315 SA 
ENDROOT
BRANCH   2   3
HETATM    3  C   UNL     1     -11.608  15.242  68.505  1.00  0.00    -0.352 C  
BRANCH   3   4
HETATM    4  C   UNL     1     -10.698  14.051  68.134  1.00  0.00    -0.246 C  
BRANCH   4   5
HETATM    5  N   UNL     1     -11.471  12.982  67.525  1.00  0.00    -0.308 NA 
HETATM    6  H   UNL     1     -12.129  13.201  66.777  1.00  0.00     0.000 HD 
BRANCH   5   7
HETATM    7  C   UNL     1     -11.328  11.672  67.946  1.00  0.00    -0.299 A  
HETATM    8  C   UNL     1     -11.637  11.314  69.268  1.00  0.00    -0.322 A  
HETATM    9  N   UNL     1     -12.134  12.044  70.329  1.00  0.00    -0.340 NA 
HETATM   10  C   UNL     1     -12.304  11.160  71.300  1.00  0.00    -0.297 A  
HETATM   11  N   UNL     1     -11.908   9.895  70.918  1.00  0.00    -0.329 NA 
HETATM   12  C   UNL     1     -11.483   9.982  69.624  1.00  0.00    -0.155 A  
HETATM   13  N   UNL     1     -10.882  10.691  67.109  1.00  0.00    -0.281 NA 
HETATM   14  C   UNL     1     -10.736   9.441  67.596  1.00  0.00    -0.230 A  
HETATM   15  N   UNL     1     -11.032   8.999  68.842  1.00  0.00    -0.030 NA 
BRANCH  11  16
HETATM   16  C   UNL     1     -12.132   8.705  71.711  1.00  0.00    -0.340 C  
HETATM   17  O   UNL     1     -11.041   8.588  72.633  1.00  0.00    -0.323 OA 
HETATM   18  C   UNL     1     -10.144   7.556  72.192  1.00  0.00    -0.194 C  
HETATM   19  H   UNL     1     -13.111   5.574  71.445  1.00  0.00     0.000 HD 
HETATM   20  O   UNL     1     -13.045   6.428  71.855  1.00  0.00    -0.153 OA 
HETATM   21  C   UNL     1     -10.817   6.800  71.051  1.00  0.00    -0.242 C  
HETATM   22  H   UNL     1     -11.183   4.920  70.602  1.00  0.00     0.000 HD 
HETATM   23  C   UNL     1     -12.239   7.323  71.048  1.00  0.00    -0.313 C  
HETATM   24  O   UNL     1     -10.764   5.391  71.312  1.00  0.00    -0.237 OA 
BRANCH  18  25
HETATM   25  C   UNL     1      -8.788   8.121  71.765  1.00  0.00    -0.155 C  
BRANCH  25  26
HETATM   26  O   UNL     1      -7.798   7.297  72.382  1.00  0.00    -0.093 OA 
BRANCH  26  27
HETATM   27  P   UNL     1      -7.013   6.312  71.388  1.00  0.00    -0.079 P  
HETATM   28  O   UNL     1      -5.558   7.009  71.491  1.00  0.00    -0.035 OA 
HETATM   29  O   UNL     1      -6.998   4.860  71.763  1.00  0.00    -0.052 OA 
BRANCH  27  30
HETATM   30  O   UNL     1      -7.677   6.611  69.926  1.00  0.00    -0.104 OA 
HETATM   31  P   UNL     1      -7.488   5.381  68.725  1.00  0.00    -0.076 P  
HETATM   32  C   UNL     1      -7.289   4.079  67.454  1.00  0.00    -0.068 C  
HETATM   33  O   UNL     1      -5.958   5.949  68.477  1.00  0.00    -0.018 OA 
HETATM   34  O   UNL     1      -7.406   4.268  69.803  1.00  0.00    -0.049 OA 
HETATM   35 CL   UNL     1      -5.772   3.086  67.691  1.00  0.00    -0.018 Cl 
HETATM   36  P   UNL     1      -8.624   2.840  67.636  1.00  0.00    -0.125 P  
HETATM   37 CL   UNL     1      -7.100   4.869  65.853  1.00  0.00    -0.066 Cl 
HETATM   38  O   UNL     1      -9.434   3.535  66.368  1.00  0.00    -0.186 OA 
HETATM   39  O   UNL     1      -9.460   3.834  68.671  1.00  0.00    -0.161 OA 
HETATM   40  O   UNL     1      -9.754   1.792  67.789  1.00  0.00    -0.072 OA 
ENDBRANCH  27  30
ENDBRANCH  26  27
ENDBRANCH  25  26
ENDBRANCH  18  25
ENDBRANCH  11  16
BRANCH  14  41
HETATM   41  S   UNL     1     -10.071   8.190  66.520  1.00  0.00    -0.130 SA 
BRANCH  41  42
HETATM   42  C   UNL     1      -8.873   9.180  65.563  1.00  0.00    -0.191 C  
BRANCH  42  43
HETATM   43  C   UNL     1      -7.685   8.294  65.215  1.00  0.00    -0.106 C  
HETATM   44  C   UNL     1      -7.568   8.059  63.725  1.00  0.00    -0.129 C  
HETATM   45  F   UNL     1      -6.343   8.428  63.281  1.00  0.00    -0.080 F  
HETATM   46  F   UNL     1      -8.482   8.742  63.009  1.00  0.00    -0.178 F  
HETATM   47  F   UNL     1      -7.716   6.747  63.433  1.00  0.00    -0.081 F  
ENDBRANCH  42  43
ENDBRANCH  41  42
ENDBRANCH  14  41
ENDBRANCH   5   7
ENDBRANCH   4   5
ENDBRANCH   3   4
ENDBRANCH   2   3
TORSDOF 12
ENDMDL
MODEL      145
REMARK 921   NORMALIZED FREE ENERGY PREDICTED BY IDOCK:   -4.18 KCAL/MOL
REMARK 922        TOTAL FREE ENERGY PREDICTED BY IDOCK:   -8.12 KCAL/MOL
REMARK 923 INTER-LIGAND FREE ENERGY PREDICTED BY IDOCK:   -7.55 KCAL/MOL
REMARK 924 INTRA-LIGAND FREE ENERGY PREDICTED BY IDOCK:   -0.57 KCAL/MOL
REMARK 927      BINDING AFFINITY PREDICTED BY RF-SCORE:    0.00 PKD
ROOT
HETATM    1  C   UNL     1      -6.821   6.582  73.236  1.00  0.00    -0.077 C  
HETATM    2  S   UNL     1      -6.514   8.323  72.862  1.00  0.00    -0.091 SA 
ENDROOT
BRANCH   2   3
HETATM    3  C   UNL     1      -6.177   8.192  71.065  1.00  0.00    -0.034 C  
BRANCH   3   4
HETATM    4  C   UNL     1      -5.320   9.368  70.550  1.00  0.00    -0.032 C  
BRANCH   4   5
HETATM    5  N   UNL     1      -5.348   9.430  69.099  1.00  0.00    -0.036 NA 
HETATM    6  H   UNL     1      -4.489   9.277  68.572  1.00  0.00     0.000 HD 
BRANCH   5   7
HETATM    7  C   UNL     1      -6.525   9.695  68.421  1.00  0.00    -0.052 A  
HETATM    8  C   UNL     1      -7.086  10.982  68.449  1.00  0.00    -0.074 A  
HETATM    9  N   UNL     1      -6.661  12.161  69.028  1.00  0.00    -0.093 NA 
HETATM   10  C   UNL     1      -7.550  13.065  68.649  1.00  0.00    -0.089 A  
HETATM   11  N   UNL     1      -8.549  12.512  67.875  1.00  0.00    -0.169 NA 
HETATM   12  C   UNL     1      -8.261  11.184  67.739  1.00  0.00    -0.119 A  
HETATM   13  N   UNL     1      -7.183   8.730  67.715  1.00  0.00    -0.083 NA 
HETATM   14  C   UNL     1      -8.342   9.051  67.105  1.00  0.00    -0.110 A  
HETATM   15  N   UNL     1      -8.942  10.264  67.055  1.00  0.00    -0.136 NA 
BRANCH  11  16
HETATM   16  C   UNL     1      -9.559  13.286  67.186  1.00  0.00    -0.240 C  
HETATM   17  O   UNL     1     -10.700  13.373  68.048  1.00  0.00    -0.237 OA 
HETATM   18  C   UNL     1     -11.729  12.487  67.579  1.00  0.00    -0.374 C  
HETATM   19  H   UNL     1     -10.939  13.671  64.223  1.00  0.00     0.000 HD 
HETATM   20  O   UNL     1     -10.592  13.957  65.060  1.00  0.00    -0.354 OA 
HETATM   21  C   UNL     1     -11.322  11.978  66.200  1.00  0.00    -0.351 C  
HETATM   22  H   UNL     1     -12.156  11.844  64.422  1.00  0.00     0.000 HD 
HETATM   23  C   UNL     1     -10.121  12.824  65.832  1.00  0.00    -0.276 C  
HETATM   24  O   UNL     1     -12.409  12.161  65.281  1.00  0.00    -0.513 OA 
BRANCH  18  25
HETATM   25  C   UNL     1     -11.976  11.331  68.550  1.00  0.00    -0.218 C  
BRANCH  25  26
HETATM   26  O   UNL     1     -12.131  11.920  69.842  1.00  0.00    -0.301 OA 
BRANCH  26  27
HETATM   27  P   UNL     1     -12.731  10.947  70.969  1.00  0.00    -0.368 P  
HETATM   28  O   UNL     1     -13.297  12.086  71.965  1.00  0.00    -0.495 OA 
HETATM   29  O   UNL     1     -13.785   9.978  70.521  1.00  0.00    -0.014 OA 
BRANCH  27  30
HETATM   30  O   UNL     1     -11.413  10.234  71.621  1.00  0.00    -0.108 OA 
HETATM   31  P   UNL     1     -11.439   8.508  71.724  1.00  0.00    -0.365 P  
HETATM   32  C   UNL     1     -11.466   6.681  71.832  1.00  0.00    -0.291 C  
HETATM   33  O   UNL     1     -12.385   8.667  73.067  1.00  0.00    -0.198 OA 
HETATM   34  O   UNL     1     -12.382   8.397  70.497  1.00  0.00     0.075 OA 
HETATM   35 CL   UNL     1     -13.159   6.007  71.984  1.00  0.00     0.350 Cl 
HETATM   36  P   UNL     1     -10.879   5.968  70.252  1.00  0.00    -0.329 P  
HETATM   37 CL   UNL     1     -10.616   6.187  73.334  1.00  0.00    -0.267 Cl 
HETATM   38  O   UNL     1      -9.396   5.688  70.935  1.00  0.00    -0.155 OA 
HETATM   39  O   UNL     1     -10.328   7.449  69.742  1.00  0.00    -0.210 OA 
HETATM   40  O   UNL     1     -10.382   5.364  68.915  1.00  0.00    -0.204 OA 
ENDBRANCH  27  30
ENDBRANCH  26  27
ENDBRANCH  25  26
ENDBRANCH  18  25
ENDBRANCH  11  16
BRANCH  14  41
HETATM   41  S   UNL     1      -9.234   7.763  66.260  1.00  0.00    -0.134 SA 
BRANCH  41  42
HETATM   42  C   UNL     1      -8.082   7.409  64.890  1.00  0.00    -0.114 C  
BRANCH  42  43
HETATM   43  C   UNL     1      -7.330   8.690  64.550  1.00  0.00    -0.099 C  
HETATM   44  C   UNL     1      -7.973   9.441  63.405  1.00  0.00    -0.143 C  
HETATM   45  F   UNL     1      -8.262  10.711  63.775  1.00  0.00    -0.165 F  
HETATM   46  F   UNL     1      -9.117   8.872  62.977  1.00  0.00    -0.158 F  
HETATM   47  F   UNL     1      -7.133   9.517  62.349  1.00  0.00    -0.103 F  
ENDBRANCH  42  43
ENDBRANCH  41  42
ENDBRANCH  14  41
ENDBRANCH   5   7
ENDBRANCH   4   5
ENDBRANCH   3   4
ENDBRANCH   2   3
TORSDOF 12
ENDMDL
MODEL      146
REMARK 921   NORMALIZED FREE ENERGY PREDICTED BY IDOCK:   -4.18 KCAL/MOL
REMARK 922        TOTAL FREE ENERGY PREDICTED BY IDOCK:   -8.12 KCAL/MOL
REMARK 923 INTER-LIGAND FREE ENERGY PREDICTED BY IDOCK:   -6.51 KCAL/MOL
REMARK 924 INTRA-LIGAND FREE ENERGY PREDICTED BY IDOCK:   -1.61 KCAL/MOL
REMARK 927      BINDING AFFINITY PREDICTED BY RF-SCORE:    0.00 PKD
ROOT
HETATM    1  C   UNL     1      -8.161   7.397  72.843  1.00  0.00    -0.108 C  
HETATM    2  S   UNL     1      -7.031   8.805  72.755  1.00  0.00     0.221 SA 
ENDROOT
BRANCH   2   3
HETATM    3  C   UNL     1      -5.966   8.252  71.369  1.00  0.00    -0.037 C  
BRANCH   3   4
HETATM    4  C   UNL     1      -6.006   9.236  70.180  1.00  0.00    -0.035 C  
BRANCH   4   5
HETATM    5  N   UNL     1      -7.094   8.907  69.276  1.00  0.00    -0.057 NA 
HETATM    6  H   UNL     1      -6.987   8.132  68.621  1.00  0.00     0.000 HD 
BRANCH   5   7
HETATM    7  C   UNL     1      -8.274   9.630  69.289  1.00  0.00    -0.123 A  
HETATM    8  C   UNL     1      -8.341  10.890  68.673  1.00  0.00    -0.148 A  
HETATM    9  N   UNL     1      -7.410  11.617  67.956  1.00  0.00    -0.084 NA 
HETATM   10  C   UNL     1      -8.064  12.692  67.545  1.00  0.00    -0.178 A  
HETATM   11  N   UNL     1      -9.368  12.705  67.993  1.00  0.00    -0.204 NA 
HETATM   12  C   UNL     1      -9.556  11.558  68.710  1.00  0.00    -0.102 A  
HETATM   13  N   UNL     1      -9.401   9.160  69.899  1.00  0.00    -0.174 NA 
HETATM   14  C   UNL     1     -10.506   9.933  69.900  1.00  0.00    -0.269 A  
HETATM   15  N   UNL     1     -10.671  11.141  69.312  1.00  0.00    -0.217 NA 
BRANCH  11  16
HETATM   16  C   UNL     1     -10.360  13.667  67.565  1.00  0.00    -0.241 C  
HETATM   17  O   UNL     1     -11.452  12.938  66.990  1.00  0.00    -0.302 OA 
HETATM   18  C   UNL     1     -11.407  13.053  65.559  1.00  0.00    -0.300 C  
HETATM   19  H   UNL     1     -10.648  16.582  66.064  1.00  0.00     0.000 HD 
HETATM   20  O   UNL     1     -10.861  15.914  66.705  1.00  0.00    -0.301 OA 
HETATM   21  C   UNL     1     -10.371  14.112  65.200  1.00  0.00    -0.405 C  
HETATM   22  H   UNL     1     -10.302  15.718  64.066  1.00  0.00     0.000 HD 
HETATM   23  C   UNL     1     -10.016  14.748  66.529  1.00  0.00    -0.271 C  
HETATM   24  O   UNL     1     -10.947  15.058  64.289  1.00  0.00    -0.128 OA 
BRANCH  18  25
HETATM   25  C   UNL     1     -11.094  11.714  64.887  1.00  0.00    -0.253 C  
BRANCH  25  26
HETATM   26  O   UNL     1      -9.823  11.300  65.391  1.00  0.00    -0.216 OA 
BRANCH  26  27
HETATM   27  P   UNL     1      -8.883  10.541  64.335  1.00  0.00    -0.161 P  
HETATM   28  O   UNL     1      -9.343  11.348  63.012  1.00  0.00    -0.337 OA 
HETATM   29  O   UNL     1      -7.406  10.612  64.586  1.00  0.00     0.005 OA 
BRANCH  27  30
HETATM   30  O   UNL     1      -9.475   9.019  64.299  1.00  0.00     0.307 OA 
HETATM   31  P   UNL     1      -8.358   7.746  64.647  1.00  0.00     0.150 P  
HETATM   32  C   UNL     1      -7.174   6.399  65.016  1.00  0.00    -0.067 C  
HETATM   33  O   UNL     1      -7.813   7.889  63.096  1.00  0.00    -0.133 OA 
HETATM   34  O   UNL     1      -7.492   8.679  65.535  1.00  0.00    -0.083 OA 
HETATM   35 CL   UNL     1      -5.454   6.825  64.565  1.00  0.00    -0.027 Cl 
HETATM   36  P   UNL     1      -7.075   6.153  66.827  1.00  0.00    -0.075 P  
HETATM   37 CL   UNL     1      -7.597   4.977  64.006  1.00  0.00    -0.064 Cl 
HETATM   38  O   UNL     1      -8.074   4.837  66.697  1.00  0.00    -0.106 OA 
HETATM   39  O   UNL     1      -8.416   7.103  67.069  1.00  0.00    -0.119 OA 
HETATM   40  O   UNL     1      -6.993   5.944  68.359  1.00  0.00    -0.067 OA 
ENDBRANCH  27  30
ENDBRANCH  26  27
ENDBRANCH  25  26
ENDBRANCH  18  25
ENDBRANCH  11  16
BRANCH  14  41
HETATM   41  S   UNL     1     -11.943   9.346  70.772  1.00  0.00    -0.186 SA 
BRANCH  41  42
HETATM   42  C   UNL     1     -11.302   7.774  71.441  1.00  0.00    -0.251 C  
BRANCH  42  43
HETATM   43  C   UNL     1     -11.918   6.627  70.649  1.00  0.00    -0.404 C  
HETATM   44  C   UNL     1     -10.896   5.917  69.790  1.00  0.00    -0.377 C  
HETATM   45  F   UNL     1     -10.877   4.592  70.072  1.00  0.00    -0.067 F  
HETATM   46  F   UNL     1      -9.644   6.386  69.960  1.00  0.00    -0.155 F  
HETATM   47  F   UNL     1     -11.204   6.038  68.479  1.00  0.00    -0.367 F  
ENDBRANCH  42  43
ENDBRANCH  41  42
ENDBRANCH  14  41
ENDBRANCH   5   7
ENDBRANCH   4   5
ENDBRANCH   3   4
ENDBRANCH   2   3
TORSDOF 12
ENDMDL
MODEL      147
REMARK 921   NORMALIZED FREE ENERGY PREDICTED BY IDOCK:   -4.06 KCAL/MOL
REMARK 922        TOTAL FREE ENERGY PREDICTED BY IDOCK:   -7.92 KCAL/MOL
REMARK 923 INTER-LIGAND FREE ENERGY PREDICTED BY IDOCK:   -8.09 KCAL/MOL
REMARK 924 INTRA-LIGAND FREE ENERGY PREDICTED BY IDOCK:    0.18 KCAL/MOL
REMARK 927      BINDING AFFINITY PREDICTED BY RF-SCORE:    0.00 PKD
ROOT
HETATM    1  C   UNL     1      -9.078   4.372  63.633  1.00  0.00    -0.136 C  
HETATM    2  S   UNL     1      -7.918   3.909  64.939  1.00  0.00    -0.090 SA 
ENDROOT
BRANCH   2   3
HETATM    3  C   UNL     1      -6.952   5.463  65.053  1.00  0.00    -0.053 C  
BRANCH   3   4
HETATM    4  C   UNL     1      -7.699   6.656  64.420  1.00  0.00    -0.113 C  
BRANCH   4   5
HETATM    5  N   UNL     1      -7.780   7.767  65.352  1.00  0.00    -0.099 NA 
HETATM    6  H   UNL     1      -7.692   8.722  65.005  1.00  0.00     0.000 HD 
BRANCH   5   7
HETATM    7  C   UNL     1      -7.975   7.548  66.704  1.00  0.00    -0.110 A  
HETATM    8  C   UNL     1      -9.257   7.265  67.200  1.00  0.00    -0.135 A  
HETATM    9  N   UNL     1     -10.476   7.105  66.569  1.00  0.00    -0.101 NA 
HETATM   10  C   UNL     1     -11.315   6.765  67.534  1.00  0.00     0.018 A  
HETATM   11  N   UNL     1     -10.696   6.727  68.766  1.00  0.00    -0.231 NA 
HETATM   12  C   UNL     1      -9.383   7.042  68.564  1.00  0.00    -0.135 A  
HETATM   13  N   UNL     1      -6.945   7.604  67.599  1.00  0.00    -0.078 NA 
HETATM   14  C   UNL     1      -7.214   7.411  68.907  1.00  0.00    -0.089 A  
HETATM   15  N   UNL     1      -8.407   7.108  69.471  1.00  0.00    -0.131 NA 
BRANCH  11  16
HETATM   16  C   UNL     1     -11.323   6.229  69.971  1.00  0.00    -0.416 C  
HETATM   17  O   UNL     1     -12.514   6.996  70.189  1.00  0.00     0.015 OA 
HETATM   18  C   UNL     1     -12.295   7.935  71.254  1.00  0.00    -0.281 C  
HETATM   19  H   UNL     1     -10.614   5.230  73.025  1.00  0.00     0.000 HD 
HETATM   20  O   UNL     1     -11.072   5.212  72.193  1.00  0.00    -0.171 OA 
HETATM   21  C   UNL     1     -10.968   7.591  71.923  1.00  0.00    -0.235 C  
HETATM   22  H   UNL     1     -10.329   7.288  73.759  1.00  0.00     0.000 HD 
HETATM   23  C   UNL     1     -10.582   6.258  71.317  1.00  0.00    -0.236 C  
HETATM   24  O   UNL     1     -11.155   7.503  73.342  1.00  0.00    -0.344 OA 
BRANCH  18  25
HETATM   25  C   UNL     1     -12.311   9.381  70.754  1.00  0.00    -0.120 C  
BRANCH  25  26
HETATM   26  O   UNL     1     -11.284   9.475  69.766  1.00  0.00    -0.223 OA 
BRANCH  26  27
HETATM   27  P   UNL     1     -11.019  10.951  69.195  1.00  0.00    -0.276 P  
HETATM   28  O   UNL     1     -11.403  11.776  70.531  1.00  0.00     0.096 OA 
HETATM   29  O   UNL     1      -9.631  11.237  68.704  1.00  0.00    -0.196 OA 
BRANCH  27  30
HETATM   30  O   UNL     1     -12.176  11.152  68.059  1.00  0.00    -0.584 OA 
HETATM   31  P   UNL     1     -11.817  12.255  66.776  1.00  0.00    -0.008 P  
HETATM   32  C   UNL     1     -11.436  13.422  65.418  1.00  0.00    -0.302 C  
HETATM   33  O   UNL     1     -12.202  13.482  67.811  1.00  0.00    -0.311 OA 
HETATM   34  O   UNL     1     -10.293  11.992  66.907  1.00  0.00    -0.210 OA 
HETATM   35 CL   UNL     1     -10.277  14.743  65.925  1.00  0.00    -0.310 Cl 
HETATM   36  P   UNL     1     -10.513  12.546  64.102  1.00  0.00    -0.389 P  
HETATM   37 CL   UNL     1     -12.950  14.266  64.951  1.00  0.00    -0.128 Cl 
HETATM   38  O   UNL     1     -11.905  12.430  63.211  1.00  0.00    -0.466 OA 
HETATM   39  O   UNL     1     -10.864  11.072  64.782  1.00  0.00    -0.276 OA 
HETATM   40  O   UNL     1      -9.733  11.806  62.989  1.00  0.00    -0.394 OA 
ENDBRANCH  27  30
ENDBRANCH  26  27
ENDBRANCH  25  26
ENDBRANCH  18  25
ENDBRANCH  11  16
BRANCH  14  41
HETATM   41  S   UNL     1      -5.879   7.572  70.073  1.00  0.00    -0.023 SA 
BRANCH  41  42
HETATM   42  C   UNL     1      -6.738   7.129  71.620  1.00  0.00    -0.055 C  
BRANCH  42  43
HETATM   43  C   UNL     1      -7.280   8.404  72.253  1.00  0.00    -0.119 C  
HETATM   44  C   UNL     1      -7.526   8.243  73.737  1.00  0.00    -0.143 C  
HETATM   45  F   UNL     1      -6.854   9.189  74.434  1.00  0.00    -0.120 F  
HETATM   46  F   UNL     1      -7.143   7.041  74.209  1.00  0.00    -0.088 F  
HETATM   47  F   UNL     1      -8.838   8.397  74.024  1.00  0.00    -0.299 F  
ENDBRANCH  42  43
ENDBRANCH  41  42
ENDBRANCH  14  41
ENDBRANCH   5   7
ENDBRANCH   4   5
ENDBRANCH   3   4
ENDBRANCH   2   3
TORSDOF 12
ENDMDL
MODEL      148
REMARK 921   NORMALIZED FREE ENERGY PREDICTED BY IDOCK:   -4.03 KCAL/MOL
REMARK 922        TOTAL FREE ENERGY PREDICTED BY IDOCK:   -7.87 KCAL/MOL
REMARK 923 INTER-LIGAND FREE ENERGY PREDICTED BY IDOCK:   -7.68 KCAL/MOL
REMARK 924 INTRA-LIGAND FREE ENERGY PREDICTED BY IDOCK:   -0.19 KCAL/MOL
REMARK 927      BINDING AFFINITY PREDICTED BY RF-SCORE:    0.00 PKD
ROOT
HETATM    1  C   UNL     1     -11.391  16.062  68.584  1.00  0.00    -0.383 C  
HETATM    2  S   UNL     1     -10.544  16.166  70.176  1.00  0.00    -0.144 SA 
ENDROOT
BRANCH   2   3
HETATM    3  C   UNL     1      -9.192  14.963  69.880  1.00  0.00     0.323 C  
BRANCH   3   4
HETATM    4  C   UNL     1      -8.324  15.356  68.665  1.00  0.00    -0.168 C  
BRANCH   4   5
HETATM    5  N   UNL     1      -7.470  14.252  68.263  1.00  0.00    -0.114 NA 
HETATM    6  H   UNL     1      -6.476  14.278  68.486  1.00  0.00     0.000 HD 
BRANCH   5   7
HETATM    7  C   UNL     1      -7.988  13.164  67.582  1.00  0.00    -0.174 A  
HETATM    8  C   UNL     1      -7.130  12.245  66.956  1.00  0.00    -0.037 A  
HETATM    9  N   UNL     1      -5.753  12.161  66.899  1.00  0.00    -0.294 NA 
HETATM   10  C   UNL     1      -5.509  11.037  66.242  1.00  0.00    -0.133 A  
HETATM   11  N   UNL     1      -6.672  10.409  65.847  1.00  0.00    -0.120 NA 
HETATM   12  C   UNL     1      -7.712  11.170  66.300  1.00  0.00    -0.097 A  
HETATM   13  N   UNL     1      -9.332  12.947  67.485  1.00  0.00    -0.183 NA 
HETATM   14  C   UNL     1      -9.767  11.884  66.778  1.00  0.00    -0.204 A  
HETATM   15  N   UNL     1      -9.018  10.935  66.167  1.00  0.00    -0.177 NA 
BRANCH  11  16
HETATM   16  C   UNL     1      -6.718   9.087  65.261  1.00  0.00    -0.068 C  
HETATM   17  O   UNL     1      -7.913   8.448  65.726  1.00  0.00    -0.099 OA 
HETATM   18  C   UNL     1      -7.582   7.477  66.732  1.00  0.00    -0.101 C  
HETATM   19  H   UNL     1      -4.803   6.497  64.586  1.00  0.00     0.000 HD 
HETATM   20  O   UNL     1      -5.496   7.126  64.424  1.00  0.00    -0.031 OA 
HETATM   21  C   UNL     1      -6.066   7.309  66.746  1.00  0.00    -0.042 C  
HETATM   22  H   UNL     1      -4.794   5.810  66.680  1.00  0.00     0.000 HD 
HETATM   23  C   UNL     1      -5.597   8.068  65.522  1.00  0.00    -0.036 C  
HETATM   24  O   UNL     1      -5.737   5.915  66.671  1.00  0.00    -0.016 OA 
BRANCH  18  25
HETATM   25  C   UNL     1      -8.113   7.877  68.109  1.00  0.00    -0.123 C  
BRANCH  25  26
HETATM   26  O   UNL     1      -8.883   6.771  68.580  1.00  0.00    -0.124 OA 
BRANCH  26  27
HETATM   27  P   UNL     1     -10.427   7.090  68.876  1.00  0.00    -0.196 P  
HETATM   28  O   UNL     1     -10.640   8.219  67.740  1.00  0.00    -0.227 OA 
HETATM   29  O   UNL     1     -11.382   5.940  68.751  1.00  0.00    -0.180 OA 
BRANCH  27  30
HETATM   30  O   UNL     1     -10.413   7.779  70.357  1.00  0.00    -0.213 OA 
HETATM   31  P   UNL     1      -9.948   6.765  71.678  1.00  0.00    -0.169 P  
HETATM   32  C   UNL     1      -9.455   5.691  73.076  1.00  0.00    -0.150 C  
HETATM   33  O   UNL     1     -11.477   6.144  71.655  1.00  0.00    -0.286 OA 
HETATM   34  O   UNL     1      -9.069   5.880  70.756  1.00  0.00    -0.150 OA 
HETATM   35 CL   UNL     1      -9.845   3.928  72.786  1.00  0.00    -0.189 Cl 
HETATM   36  P   UNL     1      -7.631   5.689  73.229  1.00  0.00    -0.096 P  
HETATM   37 CL   UNL     1     -10.410   6.162  74.521  1.00  0.00    -0.298 Cl 
HETATM   38  O   UNL     1      -7.741   6.765  74.484  1.00  0.00    -0.111 OA 
HETATM   39  O   UNL     1      -7.502   6.973  72.184  1.00  0.00    -0.088 OA 
HETATM   40  O   UNL     1      -6.088   5.687  73.360  1.00  0.00    -0.052 OA 
ENDBRANCH  27  30
ENDBRANCH  26  27
ENDBRANCH  25  26
ENDBRANCH  18  25
ENDBRANCH  11  16
BRANCH  14  41
HETATM   41  S   UNL     1     -11.522  11.661  66.586  1.00  0.00    -0.098 SA 
BRANCH  41  42
HETATM   42  C   UNL     1     -12.078  13.399  66.593  1.00  0.00    -0.373 C  
BRANCH  42  43
HETATM   43  C   UNL     1     -12.883  13.652  65.325  1.00  0.00    -0.421 C  
HETATM   44  C   UNL     1     -12.025  14.199  64.205  1.00  0.00    -0.435 C  
HETATM   45  F   UNL     1     -12.129  13.418  63.103  1.00  0.00    -0.577 F  
HETATM   46  F   UNL     1     -10.719  14.273  64.528  1.00  0.00    -0.400 F  
HETATM   47  F   UNL     1     -12.431  15.439  63.852  1.00  0.00    -0.427 F  
ENDBRANCH  42  43
ENDBRANCH  41  42
ENDBRANCH  14  41
ENDBRANCH   5   7
ENDBRANCH   4   5
ENDBRANCH   3   4
ENDBRANCH   2   3
TORSDOF 12
ENDMDL
MODEL      149
REMARK 921   NORMALIZED FREE ENERGY PREDICTED BY IDOCK:   -4.00 KCAL/MOL
REMARK 922        TOTAL FREE ENERGY PREDICTED BY IDOCK:   -7.82 KCAL/MOL
REMARK 923 INTER-LIGAND FREE ENERGY PREDICTED BY IDOCK:   -8.19 KCAL/MOL
REMARK 924 INTRA-LIGAND FREE ENERGY PREDICTED BY IDOCK:    0.37 KCAL/MOL
REMARK 927      BINDING AFFINITY PREDICTED BY RF-SCORE:    0.00 PKD
ROOT
HETATM    1  C   UNL     1      -6.412  20.066  70.686  1.00  0.00    -0.135 C  
HETATM    2  S   UNL     1      -5.132  18.795  70.780  1.00  0.00    -0.255 SA 
ENDROOT
BRANCH   2   3
HETATM    3  C   UNL     1      -5.801  17.600  69.562  1.00  0.00    -0.239 C  
BRANCH   3   4
HETATM    4  C   UNL     1      -6.527  16.422  70.246  1.00  0.00     0.335 C  
BRANCH   4   5
HETATM    5  N   UNL     1      -6.396  15.208  69.459  1.00  0.00    -0.129 NA 
HETATM    6  H   UNL     1      -5.529  14.674  69.499  1.00  0.00     0.000 HD 
BRANCH   5   7
HETATM    7  C   UNL     1      -7.433  14.767  68.654  1.00  0.00    -0.126 A  
HETATM    8  C   UNL     1      -7.315  13.563  67.943  1.00  0.00    -0.149 A  
HETATM    9  N   UNL     1      -6.313  12.614  67.895  1.00  0.00    -0.095 NA 
HETATM   10  C   UNL     1      -6.794  11.652  67.122  1.00  0.00    -0.143 A  
HETATM   11  N   UNL     1      -8.052  11.956  66.644  1.00  0.00    -0.115 NA 
HETATM   12  C   UNL     1      -8.394  13.171  67.164  1.00  0.00    -0.140 A  
HETATM   13  N   UNL     1      -8.590  15.478  68.516  1.00  0.00    -0.168 NA 
HETATM   14  C   UNL     1      -9.545  15.004  67.690  1.00  0.00    -0.203 A  
HETATM   15  N   UNL     1      -9.532  13.846  66.988  1.00  0.00    -0.245 NA 
BRANCH  11  16
HETATM   16  C   UNL     1      -8.885  11.025  65.915  1.00  0.00    -0.195 C  
HETATM   17  O   UNL     1      -9.768  10.404  66.857  1.00  0.00    -0.171 OA 
HETATM   18  C   UNL     1      -9.323   9.065  67.127  1.00  0.00    -0.147 C  
HETATM   19  H   UNL     1      -8.745   8.748  63.542  1.00  0.00     0.000 HD 
HETATM   20  O   UNL     1      -9.128   9.468  64.029  1.00  0.00    -0.228 OA 
HETATM   21  C   UNL     1      -8.230   8.718  66.122  1.00  0.00    -0.117 C  
HETATM   22  H   UNL     1      -7.848   7.242  64.878  1.00  0.00     0.000 HD 
HETATM   23  C   UNL     1      -8.266   9.860  65.127  1.00  0.00    -0.144 C  
HETATM   24  O   UNL     1      -8.529   7.458  65.505  1.00  0.00    -0.144 OA 
BRANCH  18  25
HETATM   25  C   UNL     1      -8.830   8.906  68.567  1.00  0.00    -0.134 C  
BRANCH  25  26
HETATM   26  O   UNL     1      -9.969   8.534  69.343  1.00  0.00    -0.185 OA 
BRANCH  26  27
HETATM   27  P   UNL     1     -10.399   6.993  69.230  1.00  0.00    -0.213 P  
HETATM   28  O   UNL     1     -11.600   7.020  70.311  1.00  0.00    -0.299 OA 
HETATM   29  O   UNL     1     -10.836   6.519  67.875  1.00  0.00    -0.256 OA 
BRANCH  27  30
HETATM   30  O   UNL     1      -9.118   6.178  69.834  1.00  0.00    -0.141 OA 
HETATM   31  P   UNL     1      -9.196   5.744  71.506  1.00  0.00    -0.145 P  
HETATM   32  C   UNL     1      -9.279   5.286  73.276  1.00  0.00    -0.128 C  
HETATM   33  O   UNL     1      -8.754   7.295  71.861  1.00  0.00    -0.115 OA 
HETATM   34  O   UNL     1     -10.746   5.694  71.475  1.00  0.00    -0.241 OA 
HETATM   35 CL   UNL     1     -10.293   6.445  74.261  1.00  0.00    -0.346 Cl 
HETATM   36  P   UNL     1     -10.176   3.700  73.454  1.00  0.00    -0.175 P  
HETATM   37 CL   UNL     1      -7.625   5.388  73.969  1.00  0.00    -0.093 Cl 
HETATM   38  O   UNL     1      -8.730   2.908  73.624  1.00  0.00    -0.072 OA 
HETATM   39  O   UNL     1     -10.096   3.426  71.818  1.00  0.00    -0.158 OA 
HETATM   40  O   UNL     1     -10.934   2.358  73.605  1.00  0.00    -0.165 OA 
ENDBRANCH  27  30
ENDBRANCH  26  27
ENDBRANCH  25  26
ENDBRANCH  18  25
ENDBRANCH  11  16
BRANCH  14  41
HETATM   41  S   UNL     1     -11.013  15.982  67.451  1.00  0.00    -0.175 SA 
BRANCH  41  42
HETATM   42  C   UNL     1     -10.276  17.541  66.856  1.00  0.00    -0.329 C  
BRANCH  42  43
HETATM   43  C   UNL     1     -10.836  18.687  67.689  1.00  0.00    -0.347 C  
HETATM   44  C   UNL     1      -9.742  19.498  68.349  1.00  0.00    -0.410 C  
HETATM   45  F   UNL     1      -9.855  20.806  68.015  1.00  0.00    -0.453 F  
HETATM   46  F   UNL     1      -8.504  19.095  68.003  1.00  0.00    -0.300 F  
HETATM   47  F   UNL     1      -9.836  19.423  69.695  1.00  0.00    -0.359 F  
ENDBRANCH  42  43
ENDBRANCH  41  42
ENDBRANCH  14  41
ENDBRANCH   5   7
ENDBRANCH   4   5
ENDBRANCH   3   4
ENDBRANCH   2   3
TORSDOF 12
ENDMDL
MODEL      150
REMARK 921   NORMALIZED FREE ENERGY PREDICTED BY IDOCK:   -3.97 KCAL/MOL
REMARK 922        TOTAL FREE ENERGY PREDICTED BY IDOCK:   -7.77 KCAL/MOL
REMARK 923 INTER-LIGAND FREE ENERGY PREDICTED BY IDOCK:   -8.27 KCAL/MOL
REMARK 924 INTRA-LIGAND FREE ENERGY PREDICTED BY IDOCK:    0.50 KCAL/MOL
REMARK 927      BINDING AFFINITY PREDICTED BY RF-SCORE:    0.00 PKD
ROOT
HETATM    1  C   UNL     1      -7.533   8.073  73.195  1.00  0.00    -0.133 C  
HETATM    2  S   UNL     1      -7.772   6.395  72.570  1.00  0.00    -0.101 SA 
ENDROOT
BRANCH   2   3
HETATM    3  C   UNL     1      -6.121   6.110  71.826  1.00  0.00    -0.040 C  
BRANCH   3   4
HETATM    4  C   UNL     1      -6.151   4.990  70.764  1.00  0.00    -0.018 C  
BRANCH   4   5
HETATM    5  N   UNL     1      -7.401   5.015  70.023  1.00  0.00    -0.058 NA 
HETATM    6  H   UNL     1      -8.265   4.735  70.486  1.00  0.00     0.000 HD 
BRANCH   5   7
HETATM    7  C   UNL     1      -7.434   5.411  68.698  1.00  0.00    -0.075 A  
HETATM    8  C   UNL     1      -7.657   6.756  68.365  1.00  0.00    -0.104 A  
HETATM    9  N   UNL     1      -7.828   7.883  69.145  1.00  0.00    -0.107 NA 
HETATM   10  C   UNL     1      -7.911   8.884  68.282  1.00  0.00    -0.105 A  
HETATM   11  N   UNL     1      -7.831   8.445  66.976  1.00  0.00    -0.095 NA 
HETATM   12  C   UNL     1      -7.666   7.091  67.018  1.00  0.00    -0.107 A  
HETATM   13  N   UNL     1      -7.262   4.523  67.676  1.00  0.00    -0.065 NA 
HETATM   14  C   UNL     1      -7.340   4.974  66.407  1.00  0.00    -0.085 A  
HETATM   15  N   UNL     1      -7.522   6.250  65.992  1.00  0.00    -0.080 NA 
BRANCH  11  16
HETATM   16  C   UNL     1      -7.728   9.326  65.833  1.00  0.00    -0.098 C  
HETATM   17  O   UNL     1      -7.849  10.672  66.311  1.00  0.00    -0.138 OA 
HETATM   18  C   UNL     1      -9.154  11.182  65.992  1.00  0.00    -0.203 C  
HETATM   19  H   UNL     1      -8.738   9.638  62.716  1.00  0.00     0.000 HD 
HETATM   20  O   UNL     1      -8.122   9.698  63.436  1.00  0.00    -0.133 OA 
HETATM   21  C   UNL     1      -9.829  10.196  65.044  1.00  0.00    -0.322 C  
HETATM   22  H   UNL     1     -10.758  10.286  63.313  1.00  0.00     0.000 HD 
HETATM   23  C   UNL     1      -8.725   9.229  64.668  1.00  0.00    -0.192 C  
HETATM   24  O   UNL     1     -10.338  10.900  63.903  1.00  0.00    -0.346 OA 
BRANCH  18  25
HETATM   25  C   UNL     1      -9.997  11.418  67.246  1.00  0.00    -0.194 C  
BRANCH  25  26
HETATM   26  O   UNL     1      -9.760  12.770  67.641  1.00  0.00    -0.196 OA 
BRANCH  26  27
HETATM   27  P   UNL     1     -11.002  13.506  68.341  1.00  0.00    -0.291 P  
HETATM   28  O   UNL     1     -11.585  14.250  67.029  1.00  0.00    -0.349 OA 
HETATM   29  O   UNL     1     -12.009  12.620  69.012  1.00  0.00    -0.290 OA 
BRANCH  27  30
HETATM   30  O   UNL     1     -10.308  14.594  69.342  1.00  0.00    -0.206 OA 
HETATM   31  P   UNL     1      -9.449  15.896  68.593  1.00  0.00    -0.238 P  
HETATM   32  C   UNL     1      -8.541  17.273  67.800  1.00  0.00    -0.225 C  
HETATM   33  O   UNL     1      -8.190  14.851  68.371  1.00  0.00    -0.138 OA 
HETATM   34  O   UNL     1     -10.344  15.826  67.327  1.00  0.00    -0.276 OA 
HETATM   35 CL   UNL     1      -7.855  16.821  66.167  1.00  0.00    -0.331 Cl 
HETATM   36  P   UNL     1      -9.711  18.622  67.396  1.00  0.00    -0.331 P  
HETATM   37 CL   UNL     1      -7.122  17.682  68.820  1.00  0.00    -0.254 Cl 
HETATM   38  O   UNL     1      -9.205  19.455  68.736  1.00  0.00    -0.368 OA 
HETATM   39  O   UNL     1     -10.899  17.922  68.321  1.00  0.00    -0.289 OA 
HETATM   40  O   UNL     1     -10.700  19.763  67.055  1.00  0.00    -0.467 OA 
ENDBRANCH  27  30
ENDBRANCH  26  27
ENDBRANCH  25  26
ENDBRANCH  18  25
ENDBRANCH  11  16
BRANCH  14  41
HETATM   41  S   UNL     1      -7.200   3.793  65.083  1.00  0.00    -0.068 SA 
BRANCH  41  42
HETATM   42  C   UNL     1      -8.775   2.892  65.278  1.00  0.00    -0.122 C  
BRANCH  42  43
HETATM   43  C   UNL     1      -9.270   2.481  63.897  1.00  0.00    -0.110 C  
HETATM   44  C   UNL     1     -10.571   3.161  63.534  1.00  0.00    -0.251 C  
HETATM   45  F   UNL     1     -10.447   3.828  62.361  1.00  0.00    -0.146 F  
HETATM   46  F   UNL     1     -10.982   4.046  64.462  1.00  0.00    -0.308 F  
HETATM   47  F   UNL     1     -11.558   2.252  63.369  1.00  0.00    -0.216 F  
ENDBRANCH  42  43
ENDBRANCH  41  42
ENDBRANCH  14  41
ENDBRANCH   5   7
ENDBRANCH   4   5
ENDBRANCH   3   4
ENDBRANCH   2   3
TORSDOF 12
ENDMDL
MODEL      151
REMARK 921   NORMALIZED FREE ENERGY PREDICTED BY IDOCK:   -3.97 KCAL/MOL
REMARK 922        TOTAL FREE ENERGY PREDICTED BY IDOCK:   -7.76 KCAL/MOL
REMARK 923 INTER-LIGAND FREE ENERGY PREDICTED BY IDOCK:   -7.59 KCAL/MOL
REMARK 924 INTRA-LIGAND FREE ENERGY PREDICTED BY IDOCK:   -0.17 KCAL/MOL
REMARK 927      BINDING AFFINITY PREDICTED BY RF-SCORE:    0.00 PKD
ROOT
HETATM    1  C   UNL     1      -9.712  21.153  67.680  1.00  0.00     0.099 C  
HETATM    2  S   UNL     1     -10.045  19.603  68.549  1.00  0.00    -0.428 SA 
ENDROOT
BRANCH   2   3
HETATM    3  C   UNL     1      -9.792  18.422  67.170  1.00  0.00    -0.320 C  
BRANCH   3   4
HETATM    4  C   UNL     1      -8.532  17.554  67.376  1.00  0.00    -0.216 C  
BRANCH   4   5
HETATM    5  N   UNL     1      -8.526  16.428  66.458  1.00  0.00    -0.270 NA 
HETATM    6  H   UNL     1      -7.935  16.459  65.628  1.00  0.00     0.000 HD 
BRANCH   5   7
HETATM    7  C   UNL     1      -9.313  15.314  66.695  1.00  0.00    -0.260 A  
HETATM    8  C   UNL     1      -8.818  14.245  67.458  1.00  0.00    -0.199 A  
HETATM    9  N   UNL     1      -7.619  14.061  68.119  1.00  0.00    -0.127 NA 
HETATM   10  C   UNL     1      -7.749  12.899  68.740  1.00  0.00     0.007 A  
HETATM   11  N   UNL     1      -8.970  12.312  68.483  1.00  0.00    -0.124 NA 
HETATM   12  C   UNL     1      -9.660  13.164  67.669  1.00  0.00    -0.210 A  
HETATM   13  N   UNL     1     -10.579  15.208  66.197  1.00  0.00    -0.303 NA 
HETATM   14  C   UNL     1     -11.277  14.079  66.440  1.00  0.00    -0.319 A  
HETATM   15  N   UNL     1     -10.894  13.014  67.184  1.00  0.00    -0.257 NA 
BRANCH  11  16
HETATM   16  C   UNL     1      -9.454  11.125  69.155  1.00  0.00     0.020 C  
HETATM   17  O   UNL     1      -8.390  10.165  69.156  1.00  0.00    -0.130 OA 
HETATM   18  C   UNL     1      -8.656   9.148  68.177  1.00  0.00    -0.129 C  
HETATM   19  H   UNL     1     -12.099   9.180  69.372  1.00  0.00     0.000 HD 
HETATM   20  O   UNL     1     -11.344   9.653  69.700  1.00  0.00    -0.185 OA 
HETATM   21  C   UNL     1     -10.088   9.329  67.684  1.00  0.00    -0.214 C  
HETATM   22  H   UNL     1     -11.674   8.189  67.450  1.00  0.00     0.000 HD 
HETATM   23  C   UNL     1     -10.676  10.360  68.625  1.00  0.00    -0.218 C  
HETATM   24  O   UNL     1     -10.782   8.077  67.757  1.00  0.00    -0.198 OA 
BRANCH  18  25
HETATM   25  C   UNL     1      -7.656   9.193  67.020  1.00  0.00    -0.091 C  
BRANCH  25  26
HETATM   26  O   UNL     1      -7.195   7.854  66.836  1.00  0.00    -0.085 OA 
BRANCH  26  27
HETATM   27  P   UNL     1      -6.513   7.183  68.125  1.00  0.00    -0.047 P  
HETATM   28  O   UNL     1      -5.488   8.382  68.480  1.00  0.00    -0.032 OA 
HETATM   29  O   UNL     1      -7.430   6.835  69.259  1.00  0.00    -0.090 OA 
BRANCH  27  30
HETATM   30  O   UNL     1      -5.694   5.905  67.521  1.00  0.00    -0.015 OA 
HETATM   31  P   UNL     1      -6.620   4.485  67.177  1.00  0.00    -0.048 P  
HETATM   32  C   UNL     1      -7.601   2.984  66.812  1.00  0.00    -0.075 C  
HETATM   33  O   UNL     1      -6.565   4.138  68.790  1.00  0.00    -0.043 OA 
HETATM   34  O   UNL     1      -7.902   5.321  66.921  1.00  0.00    -0.099 OA 
HETATM   35 CL   UNL     1      -9.076   2.825  67.882  1.00  0.00    -0.204 Cl 
HETATM   36  P   UNL     1      -8.322   3.118  65.135  1.00  0.00    -0.100 P  
HETATM   37 CL   UNL     1      -6.592   1.543  67.171  1.00  0.00    -0.024 Cl 
HETATM   38  O   UNL     1      -7.134   2.122  64.551  1.00  0.00    -0.049 OA 
HETATM   39  O   UNL     1      -7.356   4.422  64.781  1.00  0.00    -0.069 OA 
HETATM   40  O   UNL     1      -8.931   3.231  63.716  1.00  0.00    -0.092 OA 
ENDBRANCH  27  30
ENDBRANCH  26  27
ENDBRANCH  25  26
ENDBRANCH  18  25
ENDBRANCH  11  16
BRANCH  14  41
HETATM   41  S   UNL     1     -12.893  13.916  65.714  1.00  0.00    -0.232 SA 
BRANCH  41  42
HETATM   42  C   UNL     1     -12.444  13.664  63.964  1.00  0.00    -0.225 C  
BRANCH  42  43
HETATM   43  C   UNL     1     -12.223  12.175  63.732  1.00  0.00    -0.630 C  
HETATM   44  C   UNL     1     -10.757  11.803  63.782  1.00  0.00    -0.419 C  
HETATM   45  F   UNL     1     -10.546  10.829  64.700  1.00  0.00    -0.399 F  
HETATM   46  F   UNL     1      -9.959  12.841  64.100  1.00  0.00    -0.349 F  
HETATM   47  F   UNL     1     -10.344  11.319  62.590  1.00  0.00    -0.192 F  
ENDBRANCH  42  43
ENDBRANCH  41  42
ENDBRANCH  14  41
ENDBRANCH   5   7
ENDBRANCH   4   5
ENDBRANCH   3   4
ENDBRANCH   2   3
TORSDOF 12
ENDMDL
MODEL      152
REMARK 921   NORMALIZED FREE ENERGY PREDICTED BY IDOCK:   -3.94 KCAL/MOL
REMARK 922        TOTAL FREE ENERGY PREDICTED BY IDOCK:   -7.72 KCAL/MOL
REMARK 923 INTER-LIGAND FREE ENERGY PREDICTED BY IDOCK:   -7.41 KCAL/MOL
REMARK 924 INTRA-LIGAND FREE ENERGY PREDICTED BY IDOCK:   -0.32 KCAL/MOL
REMARK 927      BINDING AFFINITY PREDICTED BY RF-SCORE:    0.00 PKD
ROOT
HETATM    1  C   UNL     1      -7.109   9.743  65.125  1.00  0.00    -0.121 C  
HETATM    2  S   UNL     1      -6.545   8.463  66.268  1.00  0.00    -0.058 SA 
ENDROOT
BRANCH   2   3
HETATM    3  C   UNL     1      -6.880   6.976  65.250  1.00  0.00    -0.051 C  
BRANCH   3   4
HETATM    4  C   UNL     1      -6.204   5.714  65.828  1.00  0.00    -0.034 C  
BRANCH   4   5
HETATM    5  N   UNL     1      -7.189   4.830  66.425  1.00  0.00    -0.075 NA 
HETATM    6  H   UNL     1      -7.642   4.120  65.850  1.00  0.00     0.000 HD 
BRANCH   5   7
HETATM    7  C   UNL     1      -7.520   4.936  67.765  1.00  0.00    -0.079 A  
HETATM    8  C   UNL     1      -8.817   5.314  68.147  1.00  0.00    -0.105 A  
HETATM    9  N   UNL     1      -9.951   5.593  67.410  1.00  0.00    -0.143 NA 
HETATM   10  C   UNL     1     -10.897   5.807  68.311  1.00  0.00    -0.166 A  
HETATM   11  N   UNL     1     -10.413   5.707  69.599  1.00  0.00    -0.277 NA 
HETATM   12  C   UNL     1      -9.088   5.391  69.505  1.00  0.00    -0.112 A  
HETATM   13  N   UNL     1      -6.612   4.688  68.754  1.00  0.00    -0.044 NA 
HETATM   14  C   UNL     1      -6.996   4.843  70.038  1.00  0.00    -0.049 A  
HETATM   15  N   UNL     1      -8.225   5.176  70.499  1.00  0.00    -0.100 NA 
BRANCH  11  16
HETATM   16  C   UNL     1     -11.249   5.727  70.780  1.00  0.00    -0.128 C  
HETATM   17  O   UNL     1     -12.248   6.735  70.586  1.00  0.00    -0.386 OA 
HETATM   18  C   UNL     1     -11.923   7.894  71.371  1.00  0.00    -0.303 C  
HETATM   19  H   UNL     1     -11.079   5.588  74.064  1.00  0.00     0.000 HD 
HETATM   20  O   UNL     1     -11.448   5.405  73.208  1.00  0.00    -0.268 OA 
HETATM   21  C   UNL     1     -10.780   7.525  72.309  1.00  0.00    -0.250 C  
HETATM   22  H   UNL     1     -10.404   7.679  74.234  1.00  0.00     0.000 HD 
HETATM   23  C   UNL     1     -10.652   6.022  72.165  1.00  0.00    -0.214 C  
HETATM   24  O   UNL     1     -11.116   7.909  73.650  1.00  0.00    -0.101 OA 
BRANCH  18  25
HETATM   25  C   UNL     1     -11.562   9.095  70.494  1.00  0.00    -0.197 C  
BRANCH  25  26
HETATM   26  O   UNL     1     -10.193   8.924  70.124  1.00  0.00    -0.184 OA 
BRANCH  26  27
HETATM   27  P   UNL     1      -9.790   9.538  68.697  1.00  0.00    -0.174 P  
HETATM   28  O   UNL     1      -8.275   8.976  68.636  1.00  0.00    -0.115 OA 
HETATM   29  O   UNL     1     -10.625   9.110  67.527  1.00  0.00    -0.267 OA 
BRANCH  27  30
HETATM   30  O   UNL     1      -9.780  11.152  68.948  1.00  0.00    -0.198 OA 
HETATM   31  P   UNL     1      -9.987  12.153  67.552  1.00  0.00    -0.203 P  
HETATM   32  C   UNL     1     -10.206  13.211  66.075  1.00  0.00    -0.286 C  
HETATM   33  O   UNL     1      -8.391  11.896  67.213  1.00  0.00    -0.154 OA 
HETATM   34  O   UNL     1     -10.803  11.054  66.821  1.00  0.00    -0.267 OA 
HETATM   35 CL   UNL     1      -9.593  12.422  64.543  1.00  0.00     0.049 Cl 
HETATM   36  P   UNL     1     -11.992  13.428  65.740  1.00  0.00    -0.458 P  
HETATM   37 CL   UNL     1      -9.212  14.692  66.282  1.00  0.00    -0.291 Cl 
HETATM   38  O   UNL     1     -11.934  14.930  66.438  1.00  0.00    -0.228 OA 
HETATM   39  O   UNL     1     -12.388  12.791  67.221  1.00  0.00    -0.335 OA 
HETATM   40  O   UNL     1     -13.503  13.614  65.457  1.00  0.00    -0.507 OA 
ENDBRANCH  27  30
ENDBRANCH  26  27
ENDBRANCH  25  26
ENDBRANCH  18  25
ENDBRANCH  11  16
BRANCH  14  41
HETATM   41  S   UNL     1      -5.780   4.601  71.315  1.00  0.00    -0.013 SA 
BRANCH  41  42
HETATM   42  C   UNL     1      -6.847   4.028  72.680  1.00  0.00    -0.050 C  
BRANCH  42  43
HETATM   43  C   UNL     1      -7.508   2.722  72.260  1.00  0.00    -0.051 C  
HETATM   44  C   UNL     1      -8.886   2.562  72.862  1.00  0.00    -0.071 C  
HETATM   45  F   UNL     1      -9.807   2.358  71.891  1.00  0.00    -0.189 F  
HETATM   46  F   UNL     1      -9.279   3.636  73.575  1.00  0.00    -0.096 F  
HETATM   47  F   UNL     1      -8.930   1.488  73.681  1.00  0.00    -0.058 F  
ENDBRANCH  42  43
ENDBRANCH  41  42
ENDBRANCH  14  41
ENDBRANCH   5   7
ENDBRANCH   4   5
ENDBRANCH   3   4
ENDBRANCH   2   3
TORSDOF 12
ENDMDL
MODEL      153
REMARK 921   NORMALIZED FREE ENERGY PREDICTED BY IDOCK:   -3.90 KCAL/MOL
REMARK 922        TOTAL FREE ENERGY PREDICTED BY IDOCK:   -7.64 KCAL/MOL
REMARK 923 INTER-LIGAND FREE ENERGY PREDICTED BY IDOCK:   -9.08 KCAL/MOL
REMARK 924 INTRA-LIGAND FREE ENERGY PREDICTED BY IDOCK:    1.44 KCAL/MOL
REMARK 927      BINDING AFFINITY PREDICTED BY RF-SCORE:    0.00 PKD
ROOT
HETATM    1  C   UNL     1      -8.332  20.150  68.892  1.00  0.00     0.276 C  
HETATM    2  S   UNL     1      -9.967  19.613  69.444  1.00  0.00     0.040 SA 
ENDROOT
BRANCH   2   3
HETATM    3  C   UNL     1     -10.341  18.385  68.137  1.00  0.00    -0.366 C  
BRANCH   3   4
HETATM    4  C   UNL     1     -10.989  19.038  66.897  1.00  0.00    -0.169 C  
BRANCH   4   5
HETATM    5  N   UNL     1     -10.641  18.309  65.689  1.00  0.00    -0.590 NA 
HETATM    6  H   UNL     1     -10.647  18.792  64.791  1.00  0.00     0.000 HD 
BRANCH   5   7
HETATM    7  C   UNL     1     -10.301  16.969  65.741  1.00  0.00    -0.261 A  
HETATM    8  C   UNL     1     -11.004  16.029  64.971  1.00  0.00    -0.380 A  
HETATM    9  N   UNL     1     -12.033  16.167  64.060  1.00  0.00    -0.858 NA 
HETATM   10  C   UNL     1     -12.232  14.947  63.585  1.00  0.00     0.498 A  
HETATM   11  N   UNL     1     -11.395  14.022  64.175  1.00  0.00    -0.241 NA 
HETATM   12  C   UNL     1     -10.607  14.702  65.058  1.00  0.00    -0.439 A  
HETATM   13  N   UNL     1      -9.289  16.511  66.534  1.00  0.00    -0.252 NA 
HETATM   14  C   UNL     1      -9.034  15.187  66.559  1.00  0.00    -0.291 A  
HETATM   15  N   UNL     1      -9.638  14.215  65.835  1.00  0.00    -0.230 NA 
BRANCH  11  16
HETATM   16  C   UNL     1     -11.274  12.648  63.738  1.00  0.00    -0.463 C  
HETATM   17  O   UNL     1     -12.048  11.840  64.633  1.00  0.00    -0.183 OA 
HETATM   18  C   UNL     1     -11.172  11.139  65.530  1.00  0.00     0.091 C  
HETATM   19  H   UNL     1      -9.060  10.477  62.634  1.00  0.00     0.000 HD 
HETATM   20  O   UNL     1      -9.909  10.903  62.677  1.00  0.00    -0.246 OA 
HETATM   21  C   UNL     1      -9.742  11.317  65.032  1.00  0.00    -0.251 C  
HETATM   22  H   UNL     1      -8.209  10.149  64.640  1.00  0.00     0.000 HD 
HETATM   23  C   UNL     1      -9.902  11.960  63.669  1.00  0.00    -0.316 C  
HETATM   24  O   UNL     1      -9.099  10.038  64.951  1.00  0.00    -0.185 OA 
BRANCH  18  25
HETATM   25  C   UNL     1     -11.326  11.622  66.974  1.00  0.00    -0.305 C  
BRANCH  25  26
HETATM   26  O   UNL     1     -11.430  10.449  67.781  1.00  0.00    -0.406 OA 
BRANCH  26  27
HETATM   27  P   UNL     1     -10.395  10.368  69.005  1.00  0.00    -0.242 P  
HETATM   28  O   UNL     1     -10.043  11.942  69.100  1.00  0.00    -0.015 OA 
HETATM   29  O   UNL     1     -10.924   9.803  70.289  1.00  0.00    -0.253 OA 
BRANCH  27  30
HETATM   30  O   UNL     1      -9.123   9.543  68.395  1.00  0.00    -0.127 OA 
HETATM   31  P   UNL     1      -9.216   7.818  68.461  1.00  0.00    -0.135 P  
HETATM   32  C   UNL     1      -9.315   5.991  68.530  1.00  0.00    -0.117 C  
HETATM   33  O   UNL     1      -8.770   7.920  70.047  1.00  0.00    -0.137 OA 
HETATM   34  O   UNL     1     -10.766   7.847  68.407  1.00  0.00    -0.141 OA 
HETATM   35 CL   UNL     1     -10.332   5.391  69.926  1.00  0.00    -0.356 Cl 
HETATM   36  P   UNL     1     -10.221   5.373  67.065  1.00  0.00    -0.249 P  
HETATM   37 CL   UNL     1      -7.667   5.342  68.824  1.00  0.00    -0.083 Cl 
HETATM   38  O   UNL     1      -8.781   4.970  66.351  1.00  0.00    -0.114 OA 
HETATM   39  O   UNL     1     -10.129   6.861  66.332  1.00  0.00    -0.108 OA 
HETATM   40  O   UNL     1     -10.987   4.850  65.825  1.00  0.00    -0.230 OA 
ENDBRANCH  27  30
ENDBRANCH  26  27
ENDBRANCH  25  26
ENDBRANCH  18  25
ENDBRANCH  11  16
BRANCH  14  41
HETATM   41  S   UNL     1      -7.770  14.593  67.663  1.00  0.00    -0.192 SA 
BRANCH  41  42
HETATM   42  C   UNL     1      -6.429  15.773  67.292  1.00  0.00    -0.104 C  
BRANCH  42  43
HETATM   43  C   UNL     1      -6.978  17.187  67.434  1.00  0.00    -0.181 C  
HETATM   44  C   UNL     1      -6.159  18.196  66.660  1.00  0.00    -0.163 C  
HETATM   45  F   UNL     1      -6.945  18.885  65.799  1.00  0.00    -0.253 F  
HETATM   46  F   UNL     1      -5.167  17.633  65.944  1.00  0.00    -0.188 F  
HETATM   47  F   UNL     1      -5.599  19.100  67.495  1.00  0.00    -0.172 F  
ENDBRANCH  42  43
ENDBRANCH  41  42
ENDBRANCH  14  41
ENDBRANCH   5   7
ENDBRANCH   4   5
ENDBRANCH   3   4
ENDBRANCH   2   3
TORSDOF 12
ENDMDL
MODEL      154
REMARK 921   NORMALIZED FREE ENERGY PREDICTED BY IDOCK:   -3.89 KCAL/MOL
REMARK 922        TOTAL FREE ENERGY PREDICTED BY IDOCK:   -7.62 KCAL/MOL
REMARK 923 INTER-LIGAND FREE ENERGY PREDICTED BY IDOCK:   -7.19 KCAL/MOL
REMARK 924 INTRA-LIGAND FREE ENERGY PREDICTED BY IDOCK:   -0.43 KCAL/MOL
REMARK 927      BINDING AFFINITY PREDICTED BY RF-SCORE:    0.00 PKD
ROOT
HETATM    1  C   UNL     1     -14.057  15.280  72.062  1.00  0.00    -0.562 C  
HETATM    2  S   UNL     1     -12.791  14.011  72.287  1.00  0.00    -0.290 SA 
ENDROOT
BRANCH   2   3
HETATM    3  C   UNL     1     -13.724  12.544  71.708  1.00  0.00     0.135 C  
BRANCH   3   4
HETATM    4  C   UNL     1     -13.034  11.223  72.111  1.00  0.00    -0.103 C  
BRANCH   4   5
HETATM    5  N   UNL     1     -12.570  10.504  70.937  1.00  0.00    -0.367 NA 
HETATM    6  H   UNL     1     -13.182  10.417  70.126  1.00  0.00     0.000 HD 
BRANCH   5   7
HETATM    7  C   UNL     1     -11.308   9.937  70.904  1.00  0.00    -0.370 A  
HETATM    8  C   UNL     1     -10.996   8.850  71.736  1.00  0.00    -0.361 A  
HETATM    9  N   UNL     1     -11.756   8.132  72.639  1.00  0.00    -0.398 NA 
HETATM   10  C   UNL     1     -10.956   7.167  73.063  1.00  0.00    -0.317 A  
HETATM   11  N   UNL     1      -9.702   7.251  72.495  1.00  0.00    -0.150 NA 
HETATM   12  C   UNL     1      -9.718   8.319  71.645  1.00  0.00    -0.197 A  
HETATM   13  N   UNL     1     -10.328  10.407  70.078  1.00  0.00    -0.198 NA 
HETATM   14  C   UNL     1      -9.111   9.826  70.121  1.00  0.00    -0.197 A  
HETATM   15  N   UNL     1      -8.729   8.763  70.867  1.00  0.00    -0.175 NA 
BRANCH  11  16
HETATM   16  C   UNL     1      -8.677   6.240  72.645  1.00  0.00    -0.123 C  
HETATM   17  O   UNL     1      -7.884   6.247  71.452  1.00  0.00    -0.101 OA 
HETATM   18  C   UNL     1      -8.225   5.111  70.640  1.00  0.00    -0.107 C  
HETATM   19  H   UNL     1      -8.228   3.162  73.720  1.00  0.00     0.000 HD 
HETATM   20  O   UNL     1      -7.998   4.074  73.584  1.00  0.00    -0.086 OA 
HETATM   21  C   UNL     1      -9.114   4.188  71.466  1.00  0.00    -0.123 C  
HETATM   22  H   UNL     1      -9.153   2.276  71.927  1.00  0.00     0.000 HD 
HETATM   23  C   UNL     1      -9.049   4.765  72.865  1.00  0.00    -0.118 C  
HETATM   24  O   UNL     1      -8.599   2.851  71.413  1.00  0.00    -0.062 OA 
BRANCH  18  25
HETATM   25  C   UNL     1      -8.907   5.524  69.335  1.00  0.00    -0.106 C  
BRANCH  25  26
HETATM   26  O   UNL     1      -9.630   4.380  68.879  1.00  0.00    -0.154 OA 
BRANCH  26  27
HETATM   27  P   UNL     1      -9.494   4.066  67.312  1.00  0.00    -0.159 P  
HETATM   28  O   UNL     1      -9.661   2.460  67.394  1.00  0.00    -0.077 OA 
HETATM   29  O   UNL     1     -10.501   4.718  66.411  1.00  0.00    -0.282 OA 
BRANCH  27  30
HETATM   30  O   UNL     1      -7.946   4.452  66.961  1.00  0.00    -0.100 OA 
HETATM   31  P   UNL     1      -7.555   4.639  65.287  1.00  0.00    -0.083 P  
HETATM   32  C   UNL     1      -7.143   4.837  63.515  1.00  0.00    -0.048 C  
HETATM   33  O   UNL     1      -7.479   2.993  65.189  1.00  0.00    -0.070 OA 
HETATM   34  O   UNL     1      -9.008   5.062  64.942  1.00  0.00    -0.154 OA 
HETATM   35 CL   UNL     1      -8.202   3.821  62.424  1.00  0.00    -0.071 Cl 
HETATM   36  P   UNL     1      -7.527   6.547  62.986  1.00  0.00    -0.083 P  
HETATM   37 CL   UNL     1      -5.470   4.241  63.249  1.00  0.00    -0.012 Cl 
HETATM   38  O   UNL     1      -5.920   6.936  63.097  1.00  0.00    -0.038 OA 
HETATM   39  O   UNL     1      -7.719   7.033  64.562  1.00  0.00    -0.101 OA 
HETATM   40  O   UNL     1      -7.851   7.993  62.539  1.00  0.00    -0.125 OA 
ENDBRANCH  27  30
ENDBRANCH  26  27
ENDBRANCH  25  26
ENDBRANCH  18  25
ENDBRANCH  11  16
BRANCH  14  41
HETATM   41  S   UNL     1      -7.818  10.504  69.104  1.00  0.00    -0.142 SA 
BRANCH  41  42
HETATM   42  C   UNL     1      -7.740   9.242  67.788  1.00  0.00    -0.088 C  
BRANCH  42  43
HETATM   43  C   UNL     1      -9.132   9.082  67.190  1.00  0.00    -0.158 C  
HETATM   44  C   UNL     1      -9.357  10.009  66.017  1.00  0.00    -0.174 C  
HETATM   45  F   UNL     1      -9.729   9.305  64.921  1.00  0.00    -0.277 F  
HETATM   46  F   UNL     1      -8.263  10.723  65.689  1.00  0.00    -0.155 F  
HETATM   47  F   UNL     1     -10.353  10.884  66.281  1.00  0.00    -0.265 F  
ENDBRANCH  42  43
ENDBRANCH  41  42
ENDBRANCH  14  41
ENDBRANCH   5   7
ENDBRANCH   4   5
ENDBRANCH   3   4
ENDBRANCH   2   3
TORSDOF 12
ENDMDL
MODEL      155
REMARK 921   NORMALIZED FREE ENERGY PREDICTED BY IDOCK:   -3.89 KCAL/MOL
REMARK 922        TOTAL FREE ENERGY PREDICTED BY IDOCK:   -7.62 KCAL/MOL
REMARK 923 INTER-LIGAND FREE ENERGY PREDICTED BY IDOCK:   -9.88 KCAL/MOL
REMARK 924 INTRA-LIGAND FREE ENERGY PREDICTED BY IDOCK:    2.26 KCAL/MOL
REMARK 927      BINDING AFFINITY PREDICTED BY RF-SCORE:    0.00 PKD
ROOT
HETATM    1  C   UNL     1      -9.709   4.865  72.531  1.00  0.00    -0.150 C  
HETATM    2  S   UNL     1      -8.886   5.604  71.102  1.00  0.00    -0.135 SA 
ENDROOT
BRANCH   2   3
HETATM    3  C   UNL     1     -10.290   5.633  69.924  1.00  0.00    -0.277 C  
BRANCH   3   4
HETATM    4  C   UNL     1     -10.533   7.044  69.347  1.00  0.00    -0.214 C  
BRANCH   4   5
HETATM    5  N   UNL     1     -11.166   7.902  70.333  1.00  0.00    -0.334 NA 
HETATM    6  H   UNL     1     -11.586   7.488  71.165  1.00  0.00     0.000 HD 
BRANCH   5   7
HETATM    7  C   UNL     1     -11.208   9.274  70.160  1.00  0.00    -0.208 A  
HETATM    8  C   UNL     1     -12.127  10.053  70.880  1.00  0.00    -0.355 A  
HETATM    9  N   UNL     1     -13.062   9.723  71.842  1.00  0.00    -0.418 NA 
HETATM   10  C   UNL     1     -13.578  10.881  72.224  1.00  0.00     0.153 A  
HETATM   11  N   UNL     1     -13.037  11.941  71.527  1.00  0.00    -0.363 NA 
HETATM   12  C   UNL     1     -12.109  11.424  70.669  1.00  0.00    -0.372 A  
HETATM   13  N   UNL     1     -10.374   9.916  69.290  1.00  0.00    -0.205 NA 
HETATM   14  C   UNL     1     -10.491  11.252  69.148  1.00  0.00    -0.160 A  
HETATM   15  N   UNL     1     -11.325  12.085  69.816  1.00  0.00    -0.184 NA 
BRANCH  11  16
HETATM   16  C   UNL     1     -13.289  13.330  71.846  1.00  0.00    -0.451 C  
HETATM   17  O   UNL     1     -13.703  13.983  70.639  1.00  0.00     0.095 OA 
HETATM   18  C   UNL     1     -12.624  14.783  70.129  1.00  0.00    -0.271 C  
HETATM   19  H   UNL     1     -12.052  15.847  73.568  1.00  0.00     0.000 HD 
HETATM   20  O   UNL     1     -12.740  15.295  73.215  1.00  0.00    -0.418 OA 
HETATM   21  C   UNL     1     -11.534  14.841  71.194  1.00  0.00    -0.212 C  
HETATM   22  H   UNL     1     -10.475  16.243  72.081  1.00  0.00     0.000 HD 
HETATM   23  C   UNL     1     -12.177  14.223  72.418  1.00  0.00     0.002 C  
HETATM   24  O   UNL     1     -11.154  16.206  71.418  1.00  0.00    -0.178 OA 
BRANCH  18  25
HETATM   25  C   UNL     1     -12.084  14.239  68.805  1.00  0.00    -0.265 C  
BRANCH  25  26
HETATM   26  O   UNL     1     -11.986  15.357  67.922  1.00  0.00    -0.192 OA 
BRANCH  26  27
HETATM   27  P   UNL     1     -10.600  15.477  67.123  1.00  0.00    -0.297 P  
HETATM   28  O   UNL     1      -9.611  15.511  68.402  1.00  0.00    -0.194 OA 
HETATM   29  O   UNL     1     -10.285  14.368  66.164  1.00  0.00    -0.284 OA 
BRANCH  27  30
HETATM   30  O   UNL     1     -10.668  16.954  66.427  1.00  0.00    -0.220 OA 
HETATM   31  P   UNL     1      -9.466  18.097  66.917  1.00  0.00    -0.307 P  
HETATM   32  C   UNL     1      -8.194  19.305  67.436  1.00  0.00    -0.282 C  
HETATM   33  O   UNL     1     -10.369  18.366  68.273  1.00  0.00    -0.373 OA 
HETATM   34  O   UNL     1      -8.453  16.968  67.246  1.00  0.00    -0.188 OA 
HETATM   35 CL   UNL     1      -7.600  19.019  69.142  1.00  0.00    -0.299 Cl 
HETATM   36  P   UNL     1      -6.683  19.071  66.429  1.00  0.00    -0.223 P  
HETATM   37 CL   UNL     1      -8.935  20.941  67.455  1.00  0.00    -0.305 Cl 
HETATM   38  O   UNL     1      -7.110  20.371  65.495  1.00  0.00    -0.272 OA 
HETATM   39  O   UNL     1      -7.496  18.085  65.368  1.00  0.00    -0.482 OA 
HETATM   40  O   UNL     1      -5.406  18.873  65.577  1.00  0.00    -0.149 OA 
ENDBRANCH  27  30
ENDBRANCH  26  27
ENDBRANCH  25  26
ENDBRANCH  18  25
ENDBRANCH  11  16
BRANCH  14  41
HETATM   41  S   UNL     1      -9.459  12.066  67.948  1.00  0.00    -0.202 SA 
BRANCH  41  42
HETATM   42  C   UNL     1      -7.816  11.460  68.463  1.00  0.00    -0.140 C  
BRANCH  42  43
HETATM   43  C   UNL     1      -6.757  12.181  67.639  1.00  0.00    -0.118 C  
HETATM   44  C   UNL     1      -6.581  13.620  68.072  1.00  0.00    -0.136 C  
HETATM   45  F   UNL     1      -5.288  13.865  68.390  1.00  0.00    -0.076 F  
HETATM   46  F   UNL     1      -7.332  13.945  69.142  1.00  0.00    -0.112 F  
HETATM   47  F   UNL     1      -6.909  14.465  67.069  1.00  0.00    -0.109 F  
ENDBRANCH  42  43
ENDBRANCH  41  42
ENDBRANCH  14  41
ENDBRANCH   5   7
ENDBRANCH   4   5
ENDBRANCH   3   4
ENDBRANCH   2   3
TORSDOF 12
ENDMDL
MODEL      156
REMARK 921   NORMALIZED FREE ENERGY PREDICTED BY IDOCK:   -3.88 KCAL/MOL
REMARK 922        TOTAL FREE ENERGY PREDICTED BY IDOCK:   -7.61 KCAL/MOL
REMARK 923 INTER-LIGAND FREE ENERGY PREDICTED BY IDOCK:   -7.15 KCAL/MOL
REMARK 924 INTRA-LIGAND FREE ENERGY PREDICTED BY IDOCK:   -0.46 KCAL/MOL
REMARK 927      BINDING AFFINITY PREDICTED BY RF-SCORE:    0.00 PKD
ROOT
HETATM    1  C   UNL     1     -14.309   7.950  72.189  1.00  0.00    -0.307 C  
HETATM    2  S   UNL     1     -12.563   8.213  72.574  1.00  0.00    -0.065 SA 
ENDROOT
BRANCH   2   3
HETATM    3  C   UNL     1     -11.836   6.793  71.671  1.00  0.00    -0.326 C  
BRANCH   3   4
HETATM    4  C   UNL     1     -12.273   6.764  70.191  1.00  0.00     0.052 C  
BRANCH   4   5
HETATM    5  N   UNL     1     -11.246   6.156  69.362  1.00  0.00    -0.415 NA 
HETATM    6  H   UNL     1     -11.471   5.330  68.808  1.00  0.00     0.000 HD 
BRANCH   5   7
HETATM    7  C   UNL     1      -9.967   6.683  69.314  1.00  0.00    -0.158 A  
HETATM    8  C   UNL     1      -9.773   8.059  69.119  1.00  0.00    -0.163 A  
HETATM    9  N   UNL     1     -10.664   9.107  68.990  1.00  0.00    -0.194 NA 
HETATM   10  C   UNL     1      -9.906  10.190  68.916  1.00  0.00    -0.189 A  
HETATM   11  N   UNL     1      -8.562   9.881  68.961  1.00  0.00    -0.139 NA 
HETATM   12  C   UNL     1      -8.467   8.525  69.093  1.00  0.00    -0.125 A  
HETATM   13  N   UNL     1      -8.859   5.896  69.445  1.00  0.00    -0.121 NA 
HETATM   14  C   UNL     1      -7.643   6.473  69.356  1.00  0.00    -0.096 A  
HETATM   15  N   UNL     1      -7.360   7.788  69.197  1.00  0.00    -0.086 NA 
BRANCH  11  16
HETATM   16  C   UNL     1      -7.510  10.868  69.066  1.00  0.00    -0.124 C  
HETATM   17  O   UNL     1      -8.097  12.154  68.832  1.00  0.00    -0.021 OA 
HETATM   18  C   UNL     1      -7.750  12.611  67.514  1.00  0.00    -0.161 C  
HETATM   19  H   UNL     1      -4.380  11.404  68.201  1.00  0.00     0.000 HD 
HETATM   20  O   UNL     1      -5.137  11.435  68.774  1.00  0.00    -0.041 OA 
HETATM   21  C   UNL     1      -6.681  11.677  66.956  1.00  0.00    -0.145 C  
HETATM   22  H   UNL     1      -4.913  11.870  66.114  1.00  0.00     0.000 HD 
HETATM   23  C   UNL     1      -6.285  10.818  68.139  1.00  0.00    -0.057 C  
HETATM   24  O   UNL     1      -5.579  12.451  66.461  1.00  0.00    -0.157 OA 
BRANCH  18  25
HETATM   25  C   UNL     1      -8.969  12.679  66.593  1.00  0.00    -0.164 C  
BRANCH  25  26
HETATM   26  O   UNL     1      -9.104  14.046  66.205  1.00  0.00    -0.160 OA 
BRANCH  26  27
HETATM   27  P   UNL     1     -10.605  14.526  65.901  1.00  0.00    -0.346 P  
HETATM   28  O   UNL     1     -11.044  13.290  64.958  1.00  0.00    -0.294 OA 
HETATM   29  O   UNL     1     -11.500  14.708  67.091  1.00  0.00    -0.344 OA 
BRANCH  27  30
HETATM   30  O   UNL     1     -10.416  15.878  65.003  1.00  0.00    -0.518 OA 
HETATM   31  P   UNL     1      -9.835  17.281  65.831  1.00  0.00     0.043 P  
HETATM   32  C   UNL     1      -9.219  18.766  66.707  1.00  0.00    -0.315 C  
HETATM   33  O   UNL     1     -11.372  17.508  66.389  1.00  0.00     0.588 OA 
HETATM   34  O   UNL     1      -9.081  16.416  66.875  1.00  0.00    -0.200 OA 
HETATM   35 CL   UNL     1      -9.680  18.784  68.477  1.00  0.00    -0.399 Cl 
HETATM   36  P   UNL     1      -7.390  18.729  66.758  1.00  0.00    -0.231 P  
HETATM   37 CL   UNL     1     -10.003  20.215  65.993  1.00  0.00    -0.546 Cl 
HETATM   38  O   UNL     1      -7.339  19.814  65.506  1.00  0.00    -0.323 OA 
HETATM   39  O   UNL     1      -7.344  17.496  65.647  1.00  0.00    -0.436 OA 
HETATM   40  O   UNL     1      -5.843  18.699  66.801  1.00  0.00    -0.150 OA 
ENDBRANCH  27  30
ENDBRANCH  26  27
ENDBRANCH  25  26
ENDBRANCH  18  25
ENDBRANCH  11  16
BRANCH  14  41
HETATM   41  S   UNL     1      -6.206   5.426  69.441  1.00  0.00    -0.030 SA 
BRANCH  41  42
HETATM   42  C   UNL     1      -5.535   5.650  67.759  1.00  0.00    -0.011 C  
BRANCH  42  43
HETATM   43  C   UNL     1      -6.643   5.356  66.755  1.00  0.00    -0.056 C  
HETATM   44  C   UNL     1      -6.846   6.496  65.782  1.00  0.00    -0.053 C  
HETATM   45  F   UNL     1      -6.732   6.056  64.506  1.00  0.00    -0.041 F  
HETATM   46  F   UNL     1      -5.958   7.496  65.947  1.00  0.00    -0.035 F  
HETATM   47  F   UNL     1      -8.084   7.022  65.910  1.00  0.00    -0.095 F  
ENDBRANCH  42  43
ENDBRANCH  41  42
ENDBRANCH  14  41
ENDBRANCH   5   7
ENDBRANCH   4   5
ENDBRANCH   3   4
ENDBRANCH   2   3
TORSDOF 12
ENDMDL
MODEL      157
REMARK 921   NORMALIZED FREE ENERGY PREDICTED BY IDOCK:   -3.87 KCAL/MOL
REMARK 922        TOTAL FREE ENERGY PREDICTED BY IDOCK:   -7.60 KCAL/MOL
REMARK 923 INTER-LIGAND FREE ENERGY PREDICTED BY IDOCK:   -6.61 KCAL/MOL
REMARK 924 INTRA-LIGAND FREE ENERGY PREDICTED BY IDOCK:   -0.99 KCAL/MOL
REMARK 927      BINDING AFFINITY PREDICTED BY RF-SCORE:    0.00 PKD
ROOT
HETATM    1  C   UNL     1     -12.462  13.866  70.738  1.00  0.00    -0.375 C  
HETATM    2  S   UNL     1     -13.058  12.352  71.523  1.00  0.00    -0.140 SA 
ENDROOT
BRANCH   2   3
HETATM    3  C   UNL     1     -12.620  11.141  70.218  1.00  0.00    -0.210 C  
BRANCH   3   4
HETATM    4  C   UNL     1     -11.702  10.021  70.753  1.00  0.00    -0.350 C  
BRANCH   4   5
HETATM    5  N   UNL     1     -11.397   9.061  69.706  1.00  0.00    -0.436 NA 
HETATM    6  H   UNL     1     -11.457   9.346  68.729  1.00  0.00     0.000 HD 
BRANCH   5   7
HETATM    7  C   UNL     1     -11.027   7.764  70.017  1.00  0.00    -0.214 A  
HETATM    8  C   UNL     1     -10.695   6.857  68.998  1.00  0.00    -0.230 A  
HETATM    9  N   UNL     1     -10.613   7.001  67.627  1.00  0.00    -0.235 NA 
HETATM   10  C   UNL     1     -10.169   5.832  67.190  1.00  0.00    -0.207 A  
HETATM   11  N   UNL     1      -9.990   4.932  68.219  1.00  0.00    -0.139 NA 
HETATM   12  C   UNL     1     -10.321   5.576  69.377  1.00  0.00    -0.278 A  
HETATM   13  N   UNL     1     -10.977   7.318  71.306  1.00  0.00    -0.240 NA 
HETATM   14  C   UNL     1     -10.639   6.032  71.533  1.00  0.00    -0.243 A  
HETATM   15  N   UNL     1     -10.279   5.098  70.621  1.00  0.00    -0.253 NA 
BRANCH  11  16
HETATM   16  C   UNL     1      -9.361   3.639  68.061  1.00  0.00    -0.183 C  
HETATM   17  O   UNL     1      -8.011   3.753  68.528  1.00  0.00    -0.070 OA 
HETATM   18  C   UNL     1      -7.115   3.802  67.407  1.00  0.00    -0.059 C  
HETATM   19  H   UNL     1      -9.116   1.130  65.945  1.00  0.00     0.000 HD 
HETATM   20  O   UNL     1      -9.187   1.536  66.801  1.00  0.00    -0.088 OA 
HETATM   21  C   UNL     1      -7.908   3.457  66.151  1.00  0.00    -0.085 C  
HETATM   22  H   UNL     1      -7.718   2.218  64.635  1.00  0.00     0.000 HD 
HETATM   23  C   UNL     1      -9.246   2.980  66.678  1.00  0.00    -0.133 C  
HETATM   24  O   UNL     1      -7.223   2.433  65.417  1.00  0.00    -0.055 OA 
BRANCH  18  25
HETATM   25  C   UNL     1      -6.432   5.165  67.280  1.00  0.00    -0.049 C  
BRANCH  25  26
HETATM   26  O   UNL     1      -7.415   6.060  66.760  1.00  0.00    -0.084 OA 
BRANCH  26  27
HETATM   27  P   UNL     1      -6.872   7.127  65.692  1.00  0.00    -0.054 P  
HETATM   28  O   UNL     1      -6.068   6.097  64.741  1.00  0.00    -0.028 OA 
HETATM   29  O   UNL     1      -7.910   7.922  64.956  1.00  0.00    -0.105 OA 
BRANCH  27  30
HETATM   30  O   UNL     1      -5.820   8.042  66.544  1.00  0.00    -0.039 OA 
HETATM   31  P   UNL     1      -6.504   9.263  67.561  1.00  0.00    -0.064 P  
HETATM   32  C   UNL     1      -7.228  10.553  68.638  1.00  0.00    -0.087 C  
HETATM   33  O   UNL     1      -6.682  10.196  66.211  1.00  0.00    -0.090 OA 
HETATM   34  O   UNL     1      -7.813   8.449  67.745  1.00  0.00    -0.104 OA 
HETATM   35 CL   UNL     1      -8.834  11.172  68.019  1.00  0.00    -0.137 Cl 
HETATM   36  P   UNL     1      -7.665   9.822  70.258  1.00  0.00    -0.035 P  
HETATM   37 CL   UNL     1      -6.134  11.976  68.637  1.00  0.00    -0.051 Cl 
HETATM   38  O   UNL     1      -6.288  10.467  70.915  1.00  0.00    -0.331 OA 
HETATM   39  O   UNL     1      -6.811   8.441  69.909  1.00  0.00    -0.042 OA 
HETATM   40  O   UNL     1      -8.034   9.203  71.628  1.00  0.00    -0.342 OA 
ENDBRANCH  27  30
ENDBRANCH  26  27
ENDBRANCH  25  26
ENDBRANCH  18  25
ENDBRANCH  11  16
BRANCH  14  41
HETATM   41  S   UNL     1     -10.662   5.440  73.211  1.00  0.00    -0.299 SA 
BRANCH  41  42
HETATM   42  C   UNL     1      -8.874   5.426  73.580  1.00  0.00    -0.119 C  
BRANCH  42  43
HETATM   43  C   UNL     1      -8.176   4.553  72.545  1.00  0.00    -0.109 C  
HETATM   44  C   UNL     1      -7.046   5.284  71.854  1.00  0.00    -0.079 C  
HETATM   45  F   UNL     1      -5.888   4.592  71.979  1.00  0.00    -0.012 F  
HETATM   46  F   UNL     1      -6.836   6.520  72.347  1.00  0.00    -0.064 F  
HETATM   47  F   UNL     1      -7.293   5.407  70.531  1.00  0.00    -0.061 F  
ENDBRANCH  42  43
ENDBRANCH  41  42
ENDBRANCH  14  41
ENDBRANCH   5   7
ENDBRANCH   4   5
ENDBRANCH   3   4
ENDBRANCH   2   3
TORSDOF 12
ENDMDL
MODEL      158
REMARK 921   NORMALIZED FREE ENERGY PREDICTED BY IDOCK:   -3.87 KCAL/MOL
REMARK 922        TOTAL FREE ENERGY PREDICTED BY IDOCK:   -7.60 KCAL/MOL
REMARK 923 INTER-LIGAND FREE ENERGY PREDICTED BY IDOCK:   -7.21 KCAL/MOL
REMARK 924 INTRA-LIGAND FREE ENERGY PREDICTED BY IDOCK:   -0.39 KCAL/MOL
REMARK 927      BINDING AFFINITY PREDICTED BY RF-SCORE:    0.00 PKD
ROOT
HETATM    1  C   UNL     1      -6.343   6.682  72.607  1.00  0.00    -0.054 C  
HETATM    2  S   UNL     1      -6.002   8.449  72.443  1.00  0.00    -0.069 SA 
ENDROOT
BRANCH   2   3
HETATM    3  C   UNL     1      -5.586   8.513  70.659  1.00  0.00    -0.028 C  
BRANCH   3   4
HETATM    4  C   UNL     1      -5.187   9.935  70.208  1.00  0.00    -0.037 C  
BRANCH   4   5
HETATM    5  N   UNL     1      -5.206  10.041  68.760  1.00  0.00    -0.036 NA 
HETATM    6  H   UNL     1      -4.331   9.985  68.240  1.00  0.00     0.000 HD 
BRANCH   5   7
HETATM    7  C   UNL     1      -6.396  10.218  68.076  1.00  0.00    -0.056 A  
HETATM    8  C   UNL     1      -7.098  11.430  68.174  1.00  0.00    -0.075 A  
HETATM    9  N   UNL     1      -6.815  12.608  68.836  1.00  0.00    -0.097 NA 
HETATM   10  C   UNL     1      -7.795  13.431  68.497  1.00  0.00    -0.115 A  
HETATM   11  N   UNL     1      -8.715  12.823  67.668  1.00  0.00    -0.169 NA 
HETATM   12  C   UNL     1      -8.278  11.548  67.454  1.00  0.00    -0.149 A  
HETATM   13  N   UNL     1      -6.932   9.234  67.295  1.00  0.00    -0.081 NA 
HETATM   14  C   UNL     1      -8.111   9.465  66.683  1.00  0.00    -0.108 A  
HETATM   15  N   UNL     1      -8.842  10.604  66.698  1.00  0.00    -0.139 NA 
BRANCH  11  16
HETATM   16  C   UNL     1      -9.795  13.524  67.009  1.00  0.00    -0.251 C  
HETATM   17  O   UNL     1     -10.926  13.503  67.890  1.00  0.00    -0.245 OA 
HETATM   18  C   UNL     1     -11.887  12.544  67.419  1.00  0.00    -0.312 C  
HETATM   19  H   UNL     1     -11.250  13.847  64.075  1.00  0.00     0.000 HD 
HETATM   20  O   UNL     1     -10.914  14.146  64.911  1.00  0.00    -0.355 OA 
HETATM   21  C   UNL     1     -11.463  12.095  66.025  1.00  0.00    -0.370 C  
HETATM   22  H   UNL     1     -12.311  11.924  64.258  1.00  0.00     0.000 HD 
HETATM   23  C   UNL     1     -10.339  13.042  65.655  1.00  0.00    -0.285 C  
HETATM   24  O   UNL     1     -12.575  12.204  65.126  1.00  0.00    -0.505 OA 
BRANCH  18  25
HETATM   25  C   UNL     1     -12.024  11.356  68.372  1.00  0.00    -0.200 C  
BRANCH  25  26
HETATM   26  O   UNL     1     -11.989  11.895  69.694  1.00  0.00    -0.304 OA 
BRANCH  26  27
HETATM   27  P   UNL     1     -12.610  10.952  70.834  1.00  0.00    -0.381 P  
HETATM   28  O   UNL     1     -13.201  12.117  71.785  1.00  0.00    -0.448 OA 
HETATM   29  O   UNL     1     -13.651   9.967  70.390  1.00  0.00    -0.006 OA 
BRANCH  27  30
HETATM   30  O   UNL     1     -11.305  10.263  71.534  1.00  0.00    -0.129 OA 
HETATM   31  P   UNL     1     -11.380   8.555  71.799  1.00  0.00    -0.361 P  
HETATM   32  C   UNL     1     -11.459   6.748  72.077  1.00  0.00    -0.282 C  
HETATM   33  O   UNL     1     -12.301   8.868  73.132  1.00  0.00     0.057 OA 
HETATM   34  O   UNL     1     -12.343   8.360  70.598  1.00  0.00    -0.032 OA 
HETATM   35 CL   UNL     1     -13.169   6.143  72.312  1.00  0.00     0.215 Cl 
HETATM   36  P   UNL     1     -10.917   5.873  70.564  1.00  0.00    -0.197 P  
HETATM   37 CL   UNL     1     -10.603   6.370  73.609  1.00  0.00    -0.292 Cl 
HETATM   38  O   UNL     1      -9.432   5.613  71.253  1.00  0.00    -0.146 OA 
HETATM   39  O   UNL     1     -10.329   7.283  69.912  1.00  0.00    -0.208 OA 
HETATM   40  O   UNL     1     -10.457   5.133  69.284  1.00  0.00    -0.219 OA 
ENDBRANCH  27  30
ENDBRANCH  26  27
ENDBRANCH  25  26
ENDBRANCH  18  25
ENDBRANCH  11  16
BRANCH  14  41
HETATM   41  S   UNL     1      -8.842   8.145  65.738  1.00  0.00    -0.098 SA 
BRANCH  41  42
HETATM   42  C   UNL     1      -8.887   6.825  66.998  1.00  0.00    -0.115 C  
BRANCH  42  43
HETATM   43  C   UNL     1      -7.813   5.800  66.660  1.00  0.00    -0.101 C  
HETATM   44  C   UNL     1      -8.395   4.426  66.409  1.00  0.00    -0.105 C  
HETATM   45  F   UNL     1      -8.020   3.968  65.191  1.00  0.00    -0.089 F  
HETATM   46  F   UNL     1      -9.742   4.407  66.454  1.00  0.00    -0.152 F  
HETATM   47  F   UNL     1      -7.943   3.539  67.323  1.00  0.00    -0.080 F  
ENDBRANCH  42  43
ENDBRANCH  41  42
ENDBRANCH  14  41
ENDBRANCH   5   7
ENDBRANCH   4   5
ENDBRANCH   3   4
ENDBRANCH   2   3
TORSDOF 12
ENDMDL
MODEL      159
REMARK 921   NORMALIZED FREE ENERGY PREDICTED BY IDOCK:   -3.83 KCAL/MOL
REMARK 922        TOTAL FREE ENERGY PREDICTED BY IDOCK:   -7.53 KCAL/MOL
REMARK 923 INTER-LIGAND FREE ENERGY PREDICTED BY IDOCK:   -5.86 KCAL/MOL
REMARK 924 INTRA-LIGAND FREE ENERGY PREDICTED BY IDOCK:   -1.67 KCAL/MOL
REMARK 927      BINDING AFFINITY PREDICTED BY RF-SCORE:    0.00 PKD
ROOT
HETATM    1  C   UNL     1     -11.224   2.467  63.056  1.00  0.00    -0.146 C  
HETATM    2  S   UNL     1      -9.465   2.715  62.725  1.00  0.00    -0.092 SA 
ENDROOT
BRANCH   2   3
HETATM    3  C   UNL     1      -9.203   4.282  63.640  1.00  0.00    -0.138 C  
BRANCH   3   4
HETATM    4  C   UNL     1      -8.319   4.082  64.889  1.00  0.00    -0.105 C  
BRANCH   4   5
HETATM    5  N   UNL     1      -8.986   4.582  66.079  1.00  0.00    -0.119 NA 
HETATM    6  H   UNL     1      -9.774   4.064  66.468  1.00  0.00     0.000 HD 
BRANCH   5   7
HETATM    7  C   UNL     1      -8.568   5.750  66.691  1.00  0.00    -0.118 A  
HETATM    8  C   UNL     1      -9.503   6.728  67.066  1.00  0.00    -0.146 A  
HETATM    9  N   UNL     1     -10.881   6.766  66.985  1.00  0.00    -0.376 NA 
HETATM   10  C   UNL     1     -11.224   7.902  67.573  1.00  0.00     0.557 A  
HETATM   11  N   UNL     1     -10.123   8.612  68.003  1.00  0.00    -0.187 NA 
HETATM   12  C   UNL     1      -9.020   7.871  67.687  1.00  0.00    -0.131 A  
HETATM   13  N   UNL     1      -7.250   5.999  66.944  1.00  0.00    -0.070 NA 
HETATM   14  C   UNL     1      -6.912   7.174  67.515  1.00  0.00    -0.079 A  
HETATM   15  N   UNL     1      -7.741   8.160  67.933  1.00  0.00    -0.111 NA 
BRANCH  11  16
HETATM   16  C   UNL     1     -10.198   9.803  68.821  1.00  0.00    -0.194 C  
HETATM   17  O   UNL     1      -9.991   9.407  70.182  1.00  0.00    -0.197 OA 
HETATM   18  C   UNL     1     -11.245   9.415  70.884  1.00  0.00    -0.325 C  
HETATM   19  H   UNL     1     -11.942  12.569  69.197  1.00  0.00     0.000 HD 
HETATM   20  O   UNL     1     -11.154  12.038  69.179  1.00  0.00    -0.232 OA 
HETATM   21  C   UNL     1     -12.283  10.085  69.991  1.00  0.00     0.028 C  
HETATM   22  H   UNL     1     -13.615  11.521  70.176  1.00  0.00     0.000 HD 
HETATM   23  C   UNL     1     -11.472  10.663  68.849  1.00  0.00    -0.265 C  
HETATM   24  O   UNL     1     -12.968  11.103  70.732  1.00  0.00    -0.262 OA 
BRANCH  18  25
HETATM   25  C   UNL     1     -11.682   8.006  71.289  1.00  0.00    -0.282 C  
BRANCH  25  26
HETATM   26  O   UNL     1     -11.189   7.798  72.613  1.00  0.00    -0.325 OA 
BRANCH  26  27
HETATM   27  P   UNL     1     -10.575   6.342  72.893  1.00  0.00    -0.260 P  
HETATM   28  O   UNL     1     -10.228   6.546  74.458  1.00  0.00    -0.358 OA 
HETATM   29  O   UNL     1     -11.483   5.175  72.638  1.00  0.00    -0.229 OA 
BRANCH  27  30
HETATM   30  O   UNL     1      -9.200   6.313  72.012  1.00  0.00    -0.146 OA 
HETATM   31  P   UNL     1      -8.615   4.755  71.541  1.00  0.00    -0.120 P  
HETATM   32  C   UNL     1      -7.996   3.106  71.043  1.00  0.00    -0.054 C  
HETATM   33  O   UNL     1      -7.994   4.601  73.063  1.00  0.00    -0.097 OA 
HETATM   34  O   UNL     1     -10.046   4.156  71.556  1.00  0.00    -0.179 OA 
HETATM   35 CL   UNL     1      -8.469   1.788  72.219  1.00  0.00    -0.053 Cl 
HETATM   36  P   UNL     1      -8.819   2.589  69.492  1.00  0.00    -0.116 P  
HETATM   37 CL   UNL     1      -6.201   3.142  71.060  1.00  0.00    -0.018 Cl 
HETATM   38  O   UNL     1      -7.468   3.025  68.637  1.00  0.00    -0.049 OA 
HETATM   39  O   UNL     1      -9.421   4.119  69.255  1.00  0.00    -0.160 OA 
HETATM   40  O   UNL     1      -9.514   2.152  68.179  1.00  0.00    -0.206 OA 
ENDBRANCH  27  30
ENDBRANCH  26  27
ENDBRANCH  25  26
ENDBRANCH  18  25
ENDBRANCH  11  16
BRANCH  14  41
HETATM   41  S   UNL     1      -5.184   7.524  67.761  1.00  0.00    -0.030 SA 
BRANCH  41  42
HETATM   42  C   UNL     1      -5.185   7.950  69.535  1.00  0.00    -0.023 C  
BRANCH  42  43
HETATM   43  C   UNL     1      -5.210   9.468  69.666  1.00  0.00    -0.034 C  
HETATM   44  C   UNL     1      -6.080   9.925  70.816  1.00  0.00    -0.095 C  
HETATM   45  F   UNL     1      -5.373  10.710  71.663  1.00  0.00    -0.092 F  
HETATM   46  F   UNL     1      -6.586   8.904  71.535  1.00  0.00    -0.065 F  
HETATM   47  F   UNL     1      -7.119  10.664  70.367  1.00  0.00    -0.161 F  
ENDBRANCH  42  43
ENDBRANCH  41  42
ENDBRANCH  14  41
ENDBRANCH   5   7
ENDBRANCH   4   5
ENDBRANCH   3   4
ENDBRANCH   2   3
TORSDOF 12
ENDMDL
MODEL      160
REMARK 921   NORMALIZED FREE ENERGY PREDICTED BY IDOCK:   -3.73 KCAL/MOL
REMARK 922        TOTAL FREE ENERGY PREDICTED BY IDOCK:   -7.35 KCAL/MOL
REMARK 923 INTER-LIGAND FREE ENERGY PREDICTED BY IDOCK:   -5.95 KCAL/MOL
REMARK 924 INTRA-LIGAND FREE ENERGY PREDICTED BY IDOCK:   -1.40 KCAL/MOL
REMARK 927      BINDING AFFINITY PREDICTED BY RF-SCORE:    0.00 PKD
ROOT
HETATM    1  C   UNL     1     -11.431   1.950  62.897  1.00  0.00    -0.156 C  
HETATM    2  S   UNL     1      -9.696   2.262  62.500  1.00  0.00    -0.088 SA 
ENDROOT
BRANCH   2   3
HETATM    3  C   UNL     1      -9.491   3.898  63.301  1.00  0.00    -0.136 C  
BRANCH   3   4
HETATM    4  C   UNL     1      -8.549   3.831  64.522  1.00  0.00    -0.105 C  
BRANCH   4   5
HETATM    5  N   UNL     1      -9.154   4.473  65.676  1.00  0.00    -0.133 NA 
HETATM    6  H   UNL     1      -9.918   4.009  66.166  1.00  0.00     0.000 HD 
BRANCH   5   7
HETATM    7  C   UNL     1      -8.707   5.705  66.119  1.00  0.00    -0.136 A  
HETATM    8  C   UNL     1      -9.585   6.586  66.771  1.00  0.00    -0.161 A  
HETATM    9  N   UNL     1     -10.912   6.464  67.135  1.00  0.00    -0.390 NA 
HETATM   10  C   UNL     1     -11.185   7.576  67.798  1.00  0.00     0.353 A  
HETATM   11  N   UNL     1     -10.099   8.424  67.852  1.00  0.00    -0.192 NA 
HETATM   12  C   UNL     1      -9.072   7.800  67.202  1.00  0.00    -0.134 A  
HETATM   13  N   UNL     1      -7.417   6.112  65.937  1.00  0.00    -0.080 NA 
HETATM   14  C   UNL     1      -7.060   7.340  66.366  1.00  0.00    -0.077 A  
HETATM   15  N   UNL     1      -7.826   8.242  67.026  1.00  0.00    -0.096 NA 
BRANCH  11  16
HETATM   16  C   UNL     1     -10.054   9.631  68.648  1.00  0.00    -0.179 C  
HETATM   17  O   UNL     1      -9.832   9.243  70.010  1.00  0.00    -0.180 OA 
HETATM   18  C   UNL     1     -11.058   9.362  70.751  1.00  0.00    -0.300 C  
HETATM   19  H   UNL     1     -11.563  12.532  69.024  1.00  0.00     0.000 HD 
HETATM   20  O   UNL     1     -10.820  11.940  68.992  1.00  0.00    -0.222 OA 
HETATM   21  C   UNL     1     -12.070  10.096  69.878  1.00  0.00    -0.034 C  
HETATM   22  H   UNL     1     -13.279  11.635  70.076  1.00  0.00     0.000 HD 
HETATM   23  C   UNL     1     -11.255  10.588  68.699  1.00  0.00    -0.270 C  
HETATM   24  O   UNL     1     -12.649  11.178  70.620  1.00  0.00    -0.332 OA 
BRANCH  18  25
HETATM   25  C   UNL     1     -11.590   7.999  71.198  1.00  0.00    -0.282 C  
BRANCH  25  26
HETATM   26  O   UNL     1     -11.311   7.898  72.595  1.00  0.00    -0.361 OA 
BRANCH  26  27
HETATM   27  P   UNL     1     -10.227   6.785  72.996  1.00  0.00    -0.263 P  
HETATM   28  O   UNL     1      -8.899   7.673  72.752  1.00  0.00    -0.131 OA 
HETATM   29  O   UNL     1     -10.321   6.234  74.388  1.00  0.00    -0.323 OA 
BRANCH  27  30
HETATM   30  O   UNL     1     -10.368   5.652  71.827  1.00  0.00    -0.201 OA 
HETATM   31  P   UNL     1      -8.898   4.933  71.266  1.00  0.00    -0.137 P  
HETATM   32  C   UNL     1      -7.343   4.173  70.672  1.00  0.00    -0.041 C  
HETATM   33  O   UNL     1      -8.666   6.283  70.344  1.00  0.00    -0.142 OA 
HETATM   34  O   UNL     1      -8.199   5.172  72.630  1.00  0.00    -0.111 OA 
HETATM   35 CL   UNL     1      -5.904   5.290  70.828  1.00  0.00    -0.020 Cl 
HETATM   36  P   UNL     1      -6.895   2.771  71.761  1.00  0.00    -0.027 P  
HETATM   37 CL   UNL     1      -7.504   3.841  68.915  1.00  0.00    -0.054 Cl 
HETATM   38  O   UNL     1      -7.493   1.712  70.635  1.00  0.00    -0.033 OA 
HETATM   39  O   UNL     1      -8.392   2.800  72.480  1.00  0.00    -0.068 OA 
HETATM   40  O   UNL     1      -6.517   1.585  72.682  1.00  0.00    -0.009 OA 
ENDBRANCH  27  30
ENDBRANCH  26  27
ENDBRANCH  25  26
ENDBRANCH  18  25
ENDBRANCH  11  16
BRANCH  14  41
HETATM   41  S   UNL     1      -5.399   7.894  66.046  1.00  0.00    -0.029 SA 
BRANCH  41  42
HETATM   42  C   UNL     1      -5.735   9.488  65.225  1.00  0.00    -0.059 C  
BRANCH  42  43
HETATM   43  C   UNL     1      -6.033   9.219  63.755  1.00  0.00    -0.088 C  
HETATM   44  C   UNL     1      -7.452   9.588  63.385  1.00  0.00    -0.109 C  
HETATM   45  F   UNL     1      -7.461  10.465  62.353  1.00  0.00    -0.127 F  
HETATM   46  F   UNL     1      -8.134  10.150  64.402  1.00  0.00    -0.144 F  
HETATM   47  F   UNL     1      -8.142   8.497  62.984  1.00  0.00    -0.144 F  
ENDBRANCH  42  43
ENDBRANCH  41  42
ENDBRANCH  14  41
ENDBRANCH   5   7
ENDBRANCH   4   5
ENDBRANCH   3   4
ENDBRANCH   2   3
TORSDOF 12
ENDMDL
MODEL      161
REMARK 921   NORMALIZED FREE ENERGY PREDICTED BY IDOCK:   -3.64 KCAL/MOL
REMARK 922        TOTAL FREE ENERGY PREDICTED BY IDOCK:   -7.21 KCAL/MOL
REMARK 923 INTER-LIGAND FREE ENERGY PREDICTED BY IDOCK:   -6.78 KCAL/MOL
REMARK 924 INTRA-LIGAND FREE ENERGY PREDICTED BY IDOCK:   -0.43 KCAL/MOL
REMARK 927      BINDING AFFINITY PREDICTED BY RF-SCORE:    0.00 PKD
ROOT
HETATM    1  C   UNL     1      -6.634  15.108  67.279  1.00  0.00     0.066 C  
HETATM    2  S   UNL     1      -5.152  14.692  68.226  1.00  0.00    -0.117 SA 
ENDROOT
BRANCH   2   3
HETATM    3  C   UNL     1      -5.192  12.866  68.065  1.00  0.00    -0.094 C  
BRANCH   3   4
HETATM    4  C   UNL     1      -5.339  12.168  69.434  1.00  0.00    -0.067 C  
BRANCH   4   5
HETATM    5  N   UNL     1      -5.577  10.745  69.264  1.00  0.00    -0.041 NA 
HETATM    6  H   UNL     1      -4.960  10.200  68.663  1.00  0.00     0.000 HD 
BRANCH   5   7
HETATM    7  C   UNL     1      -6.631  10.119  69.906  1.00  0.00    -0.100 A  
HETATM    8  C   UNL     1      -7.956  10.422  69.557  1.00  0.00    -0.144 A  
HETATM    9  N   UNL     1      -8.488  11.260  68.595  1.00  0.00    -0.154 NA 
HETATM   10  C   UNL     1      -9.797  11.074  68.670  1.00  0.00    -0.193 A  
HETATM   11  N   UNL     1     -10.133  10.174  69.660  1.00  0.00    -0.229 NA 
HETATM   12  C   UNL     1      -8.967   9.751  70.229  1.00  0.00    -0.150 A  
HETATM   13  N   UNL     1      -6.429   9.200  70.895  1.00  0.00    -0.066 NA 
HETATM   14  C   UNL     1      -7.503   8.653  71.500  1.00  0.00    -0.101 A  
HETATM   15  N   UNL     1      -8.810   8.863  71.213  1.00  0.00    -0.224 NA 
BRANCH  11  16
HETATM   16  C   UNL     1     -11.469   9.655  69.859  1.00  0.00    -0.100 C  
HETATM   17  O   UNL     1     -12.390  10.729  69.634  1.00  0.00    -0.316 OA 
HETATM   18  C   UNL     1     -12.894  11.204  70.893  1.00  0.00    -0.282 C  
HETATM   19  H   UNL     1     -13.206   7.705  71.862  1.00  0.00     0.000 HD 
HETATM   20  O   UNL     1     -12.947   8.078  71.028  1.00  0.00    -0.135 OA 
HETATM   21  C   UNL     1     -12.460  10.224  71.977  1.00  0.00    -0.118 C  
HETATM   22  H   UNL     1     -13.326   9.236  73.442  1.00  0.00     0.000 HD 
HETATM   23  C   UNL     1     -11.888   9.051  71.209  1.00  0.00    -0.312 C  
HETATM   24  O   UNL     1     -13.596   9.847  72.767  1.00  0.00    -0.068 OA 
BRANCH  18  25
HETATM   25  C   UNL     1     -12.418  12.625  71.200  1.00  0.00    -0.228 C  
BRANCH  25  26
HETATM   26  O   UNL     1     -11.951  13.168  69.965  1.00  0.00    -0.328 OA 
BRANCH  26  27
HETATM   27  P   UNL     1     -11.417  14.680  70.041  1.00  0.00    -0.228 P  
HETATM   28  O   UNL     1     -12.769  15.416  69.548  1.00  0.00    -0.060 OA 
HETATM   29  O   UNL     1     -10.944  15.153  71.383  1.00  0.00    -0.272 OA 
BRANCH  27  30
HETATM   30  O   UNL     1     -10.277  14.758  68.873  1.00  0.00    -0.227 OA 
HETATM   31  P   UNL     1      -9.953  16.322  68.211  1.00  0.00    -0.253 P  
HETATM   32  C   UNL     1      -9.611  17.979  67.512  1.00  0.00    -0.273 C  
HETATM   33  O   UNL     1     -11.310  16.140  67.289  1.00  0.00    -0.084 OA 
HETATM   34  O   UNL     1     -10.374  17.024  69.530  1.00  0.00    -0.262 OA 
HETATM   35 CL   UNL     1     -11.061  19.091  67.584  1.00  0.00    -0.312 Cl 
HETATM   36  P   UNL     1      -8.380  18.840  68.557  1.00  0.00    -0.311 P  
HETATM   37 CL   UNL     1      -9.236  17.793  65.766  1.00  0.00     0.136 Cl 
HETATM   38  O   UNL     1      -7.195  18.461  67.462  1.00  0.00    -0.207 OA 
HETATM   39  O   UNL     1      -8.030  17.435  69.371  1.00  0.00     0.033 OA 
HETATM   40  O   UNL     1      -7.338  19.568  69.440  1.00  0.00    -0.332 OA 
ENDBRANCH  27  30
ENDBRANCH  26  27
ENDBRANCH  25  26
ENDBRANCH  18  25
ENDBRANCH  11  16
BRANCH  14  41
HETATM   41  S   UNL     1      -7.227   7.523  72.846  1.00  0.00    -0.077 SA 
BRANCH  41  42
HETATM   42  C   UNL     1      -7.249   5.933  71.951  1.00  0.00    -0.092 C  
BRANCH  42  43
HETATM   43  C   UNL     1      -8.420   5.945  70.976  1.00  0.00    -0.124 C  
HETATM   44  C   UNL     1      -8.102   5.204  69.696  1.00  0.00    -0.089 C  
HETATM   45  F   UNL     1      -9.020   4.235  69.469  1.00  0.00    -0.107 F  
HETATM   46  F   UNL     1      -6.888   4.619  69.712  1.00  0.00    -0.039 F  
HETATM   47  F   UNL     1      -8.139   6.041  68.635  1.00  0.00    -0.101 F  
ENDBRANCH  42  43
ENDBRANCH  41  42
ENDBRANCH  14  41
ENDBRANCH   5   7
ENDBRANCH   4   5
ENDBRANCH   3   4
ENDBRANCH   2   3
TORSDOF 12
ENDMDL
MODEL      162
REMARK 921   NORMALIZED FREE ENERGY PREDICTED BY IDOCK:   -3.64 KCAL/MOL
REMARK 922        TOTAL FREE ENERGY PREDICTED BY IDOCK:   -7.20 KCAL/MOL
REMARK 923 INTER-LIGAND FREE ENERGY PREDICTED BY IDOCK:   -8.90 KCAL/MOL
REMARK 924 INTRA-LIGAND FREE ENERGY PREDICTED BY IDOCK:    1.70 KCAL/MOL
REMARK 927      BINDING AFFINITY PREDICTED BY RF-SCORE:    0.00 PKD
ROOT
HETATM    1  C   UNL     1      -9.182   4.063  71.275  1.00  0.00    -0.131 C  
HETATM    2  S   UNL     1      -9.899   5.655  71.739  1.00  0.00    -0.172 SA 
ENDROOT
BRANCH   2   3
HETATM    3  C   UNL     1     -10.354   6.279  70.077  1.00  0.00    -0.199 C  
BRANCH   3   4
HETATM    4  C   UNL     1     -11.787   6.852  70.047  1.00  0.00    -0.153 C  
BRANCH   4   5
HETATM    5  N   UNL     1     -11.904   7.994  70.936  1.00  0.00    -0.400 NA 
HETATM    6  H   UNL     1     -12.259   7.860  71.883  1.00  0.00     0.000 HD 
BRANCH   5   7
HETATM    7  C   UNL     1     -11.542   9.262  70.518  1.00  0.00    -0.217 A  
HETATM    8  C   UNL     1     -12.302  10.380  70.897  1.00  0.00    -0.381 A  
HETATM    9  N   UNL     1     -13.416  10.506  71.704  1.00  0.00    -0.272 NA 
HETATM   10  C   UNL     1     -13.642  11.809  71.768  1.00  0.00     0.099 A  
HETATM   11  N   UNL     1     -12.739  12.526  71.012  1.00  0.00    -0.291 NA 
HETATM   12  C   UNL     1     -11.878  11.624  70.454  1.00  0.00    -0.293 A  
HETATM   13  N   UNL     1     -10.451   9.475  69.725  1.00  0.00    -0.217 NA 
HETATM   14  C   UNL     1     -10.175  10.734  69.328  1.00  0.00    -0.194 A  
HETATM   15  N   UNL     1     -10.832  11.870  69.664  1.00  0.00     0.047 NA 
BRANCH  11  16
HETATM   16  C   UNL     1     -12.640  13.970  71.024  1.00  0.00    -0.366 C  
HETATM   17  O   UNL     1     -13.069  14.444  69.742  1.00  0.00     0.148 OA 
HETATM   18  C   UNL     1     -11.926  14.843  68.968  1.00  0.00    -0.272 C  
HETATM   19  H   UNL     1     -10.665  16.413  72.006  1.00  0.00     0.000 HD 
HETATM   20  O   UNL     1     -11.498  15.982  71.851  1.00  0.00    -0.411 OA 
HETATM   21  C   UNL     1     -10.711  14.852  69.888  1.00  0.00    -0.175 C  
HETATM   22  H   UNL     1      -9.264  16.109  70.333  1.00  0.00     0.000 HD 
HETATM   23  C   UNL     1     -11.294  14.667  71.274  1.00  0.00     0.014 C  
HETATM   24  O   UNL     1     -10.021  16.103  69.759  1.00  0.00    -0.230 OA 
BRANCH  18  25
HETATM   25  C   UNL     1     -11.706  13.928  67.761  1.00  0.00    -0.366 C  
BRANCH  25  26
HETATM   26  O   UNL     1     -12.028  14.704  66.606  1.00  0.00    -0.368 OA 
BRANCH  26  27
HETATM   27  P   UNL     1     -10.785  15.063  65.656  1.00  0.00    -0.405 P  
HETATM   28  O   UNL     1     -10.597  13.606  64.981  1.00  0.00    -0.337 OA 
HETATM   29  O   UNL     1     -11.007  16.154  64.651  1.00  0.00    -0.642 OA 
BRANCH  27  30
HETATM   30  O   UNL     1      -9.562  15.362  66.697  1.00  0.00    -0.231 OA 
HETATM   31  P   UNL     1      -9.091  17.015  66.882  1.00  0.00    -0.258 P  
HETATM   32  C   UNL     1      -8.592  18.765  67.077  1.00  0.00    -0.282 C  
HETATM   33  O   UNL     1      -8.248  16.864  65.470  1.00  0.00    -0.144 OA 
HETATM   34  O   UNL     1     -10.515  17.515  66.525  1.00  0.00    -0.326 OA 
HETATM   35 CL   UNL     1      -8.909  19.763  65.578  1.00  0.00     0.234 Cl 
HETATM   36  P   UNL     1      -9.654  19.565  68.336  1.00  0.00    -0.404 P  
HETATM   37 CL   UNL     1      -6.816  18.828  67.328  1.00  0.00    -0.203 Cl 
HETATM   38  O   UNL     1      -8.441  19.405  69.453  1.00  0.00    -0.140 OA 
HETATM   39  O   UNL     1     -10.251  18.094  68.824  1.00  0.00    -0.378 OA 
HETATM   40  O   UNL     1     -10.551  20.241  69.401  1.00  0.00    -0.047 OA 
ENDBRANCH  27  30
ENDBRANCH  26  27
ENDBRANCH  25  26
ENDBRANCH  18  25
ENDBRANCH  11  16
BRANCH  14  41
HETATM   41  S   UNL     1      -8.802  10.988  68.224  1.00  0.00    -0.150 SA 
BRANCH  41  42
HETATM   42  C   UNL     1      -8.216  12.618  68.797  1.00  0.00     0.119 C  
BRANCH  42  43
HETATM   43  C   UNL     1      -7.434  13.274  67.667  1.00  0.00    -0.173 C  
HETATM   44  C   UNL     1      -5.939  13.166  67.872  1.00  0.00    -0.134 C  
HETATM   45  F   UNL     1      -5.355  12.579  66.800  1.00  0.00    -0.037 F  
HETATM   46  F   UNL     1      -5.606  12.447  68.961  1.00  0.00    -0.061 F  
HETATM   47  F   UNL     1      -5.384  14.391  68.004  1.00  0.00    -0.100 F  
ENDBRANCH  42  43
ENDBRANCH  41  42
ENDBRANCH  14  41
ENDBRANCH   5   7
ENDBRANCH   4   5
ENDBRANCH   3   4
ENDBRANCH   2   3
TORSDOF 12
ENDMDL
MODEL      163
REMARK 921   NORMALIZED FREE ENERGY PREDICTED BY IDOCK:   -3.59 KCAL/MOL
REMARK 922        TOTAL FREE ENERGY PREDICTED BY IDOCK:   -7.11 KCAL/MOL
REMARK 923 INTER-LIGAND FREE ENERGY PREDICTED BY IDOCK:   -7.23 KCAL/MOL
REMARK 924 INTRA-LIGAND FREE ENERGY PREDICTED BY IDOCK:    0.12 KCAL/MOL
REMARK 927      BINDING AFFINITY PREDICTED BY RF-SCORE:    0.00 PKD
ROOT
HETATM    1  C   UNL     1     -10.109  12.293  64.384  1.00  0.00    -0.270 C  
HETATM    2  S   UNL     1     -10.348  10.878  63.286  1.00  0.00    -0.033 SA 
ENDROOT
BRANCH   2   3
HETATM    3  C   UNL     1      -8.696  10.823  62.495  1.00  0.00    -0.279 C  
BRANCH   3   4
HETATM    4  C   UNL     1      -7.845   9.645  63.014  1.00  0.00    -0.127 C  
BRANCH   4   5
HETATM    5  N   UNL     1      -8.645   8.753  63.836  1.00  0.00    -0.390 NA 
HETATM    6  H   UNL     1      -9.210   8.031  63.391  1.00  0.00     0.000 HD 
BRANCH   5   7
HETATM    7  C   UNL     1      -8.650   8.871  65.214  1.00  0.00    -0.184 A  
HETATM    8  C   UNL     1      -7.747   9.732  65.857  1.00  0.00    -0.105 A  
HETATM    9  N   UNL     1      -6.788  10.597  65.365  1.00  0.00    -0.073 NA 
HETATM   10  C   UNL     1      -6.304  11.210  66.434  1.00  0.00    -0.116 A  
HETATM   11  N   UNL     1      -6.889  10.755  67.598  1.00  0.00    -0.072 NA 
HETATM   12  C   UNL     1      -7.812   9.814  67.240  1.00  0.00    -0.098 A  
HETATM   13  N   UNL     1      -9.517   8.161  65.995  1.00  0.00    -0.140 NA 
HETATM   14  C   UNL     1      -9.445   8.302  67.334  1.00  0.00    -0.151 A  
HETATM   15  N   UNL     1      -8.629   9.123  68.037  1.00  0.00    -0.125 NA 
BRANCH  11  16
HETATM   16  C   UNL     1      -6.678  11.356  68.897  1.00  0.00    -0.080 C  
HETATM   17  O   UNL     1      -7.903  11.992  69.283  1.00  0.00     0.160 OA 
HETATM   18  C   UNL     1      -7.777  13.415  69.126  1.00  0.00     0.260 C  
HETATM   19  H   UNL     1      -4.465  13.086  70.611  1.00  0.00     0.000 HD 
HETATM   20  O   UNL     1      -5.135  12.425  70.482  1.00  0.00    -0.092 OA 
HETATM   21  C   UNL     1      -6.311  13.734  68.853  1.00  0.00    -0.096 C  
HETATM   22  H   UNL     1      -4.958  14.967  69.574  1.00  0.00     0.000 HD 
HETATM   23  C   UNL     1      -5.594  12.424  69.106  1.00  0.00    -0.071 C  
HETATM   24  O   UNL     1      -5.871  14.768  69.744  1.00  0.00    -0.099 OA 
BRANCH  18  25
HETATM   25  C   UNL     1      -8.682  13.950  68.015  1.00  0.00    -0.183 C  
BRANCH  25  26
HETATM   26  O   UNL     1      -9.985  14.081  68.586  1.00  0.00    -0.227 OA 
BRANCH  26  27
HETATM   27  P   UNL     1     -10.976  15.074  67.807  1.00  0.00    -0.316 P  
HETATM   28  O   UNL     1     -11.809  13.955  66.989  1.00  0.00    -0.369 OA 
HETATM   29  O   UNL     1     -11.845  15.952  68.657  1.00  0.00    -0.388 OA 
BRANCH  27  30
HETATM   30  O   UNL     1      -9.996  15.897  66.791  1.00  0.00    -0.235 OA 
HETATM   31  P   UNL     1      -9.516  17.481  67.294  1.00  0.00    -0.266 P  
HETATM   32  C   UNL     1      -9.009  19.157  67.828  1.00  0.00    -0.296 C  
HETATM   33  O   UNL     1     -10.991  18.019  66.784  1.00  0.00    -0.120 OA 
HETATM   34  O   UNL     1      -9.649  17.102  68.793  1.00  0.00    -0.266 OA 
HETATM   35 CL   UNL     1     -10.244  19.959  68.912  1.00  0.00    -0.498 Cl 
HETATM   36  P   UNL     1      -7.534  19.034  68.905  1.00  0.00    -0.254 P  
HETATM   37 CL   UNL     1      -8.893  20.206  66.376  1.00  0.00    -0.358 Cl 
HETATM   38  O   UNL     1      -6.572  19.473  67.628  1.00  0.00    -0.213 OA 
HETATM   39  O   UNL     1      -7.309  17.443  68.482  1.00  0.00    -0.217 OA 
HETATM   40  O   UNL     1      -6.285  18.930  69.815  1.00  0.00    -0.266 OA 
ENDBRANCH  27  30
ENDBRANCH  26  27
ENDBRANCH  25  26
ENDBRANCH  18  25
ENDBRANCH  11  16
BRANCH  14  41
HETATM   41  S   UNL     1     -10.520   7.306  68.344  1.00  0.00    -0.174 SA 
BRANCH  41  42
HETATM   42  C   UNL     1      -9.408   5.914  68.736  1.00  0.00    -0.122 C  
BRANCH  42  43
HETATM   43  C   UNL     1      -8.384   5.785  67.615  1.00  0.00    -0.104 C  
HETATM   44  C   UNL     1      -6.988   5.541  68.145  1.00  0.00    -0.065 C  
HETATM   45  F   UNL     1      -6.467   4.414  67.605  1.00  0.00    -0.037 F  
HETATM   46  F   UNL     1      -6.948   5.406  69.485  1.00  0.00    -0.053 F  
HETATM   47  F   UNL     1      -6.164   6.558  67.810  1.00  0.00    -0.025 F  
ENDBRANCH  42  43
ENDBRANCH  41  42
ENDBRANCH  14  41
ENDBRANCH   5   7
ENDBRANCH   4   5
ENDBRANCH   3   4
ENDBRANCH   2   3
TORSDOF 12
ENDMDL
MODEL      164
REMARK 921   NORMALIZED FREE ENERGY PREDICTED BY IDOCK:   -3.55 KCAL/MOL
REMARK 922        TOTAL FREE ENERGY PREDICTED BY IDOCK:   -7.06 KCAL/MOL
REMARK 923 INTER-LIGAND FREE ENERGY PREDICTED BY IDOCK:   -8.42 KCAL/MOL
REMARK 924 INTRA-LIGAND FREE ENERGY PREDICTED BY IDOCK:    1.36 KCAL/MOL
REMARK 927      BINDING AFFINITY PREDICTED BY RF-SCORE:    0.00 PKD
ROOT
HETATM    1  C   UNL     1      -5.259   7.433  72.295  1.00  0.00    -0.036 C  
HETATM    2  S   UNL     1      -5.696   5.838  71.569  1.00  0.00    -0.022 SA 
ENDROOT
BRANCH   2   3
HETATM    3  C   UNL     1      -6.771   5.181  72.900  1.00  0.00    -0.067 C  
BRANCH   3   4
HETATM    4  C   UNL     1      -7.981   6.100  73.172  1.00  0.00    -0.107 C  
BRANCH   4   5
HETATM    5  N   UNL     1      -8.852   6.164  72.011  1.00  0.00    -0.139 NA 
HETATM    6  H   UNL     1      -9.172   5.300  71.575  1.00  0.00     0.000 HD 
BRANCH   5   7
HETATM    7  C   UNL     1      -9.251   7.381  71.488  1.00  0.00    -0.140 A  
HETATM    8  C   UNL     1     -10.589   7.794  71.591  1.00  0.00    -0.214 A  
HETATM    9  N   UNL     1     -11.689   7.213  72.191  1.00  0.00    -0.283 NA 
HETATM   10  C   UNL     1     -12.662   8.099  72.044  1.00  0.00    -0.323 A  
HETATM   11  N   UNL     1     -12.243   9.213  71.349  1.00  0.00    -0.319 NA 
HETATM   12  C   UNL     1     -10.922   9.030  71.057  1.00  0.00    -0.284 A  
HETATM   13  N   UNL     1      -8.376   8.215  70.853  1.00  0.00    -0.116 NA 
HETATM   14  C   UNL     1      -8.841   9.372  70.339  1.00  0.00    -0.249 A  
HETATM   15  N   UNL     1     -10.101   9.862  70.414  1.00  0.00    -0.250 NA 
BRANCH  11  16
HETATM   16  C   UNL     1     -13.040  10.410  71.183  1.00  0.00    -0.383 C  
HETATM   17  O   UNL     1     -13.299  10.567  69.783  1.00  0.00     0.092 OA 
HETATM   18  C   UNL     1     -12.469  11.613  69.253  1.00  0.00     0.172 C  
HETATM   19  H   UNL     1     -13.291  13.512  72.254  1.00  0.00     0.000 HD 
HETATM   20  O   UNL     1     -13.615  12.666  71.969  1.00  0.00    -0.456 OA 
HETATM   21  C   UNL     1     -11.812  12.335  70.424  1.00  0.00    -0.170 C  
HETATM   22  H   UNL     1     -11.601  14.199  71.018  1.00  0.00     0.000 HD 
HETATM   23  C   UNL     1     -12.515  11.778  71.645  1.00  0.00    -0.017 C  
HETATM   24  O   UNL     1     -12.010  13.749  70.288  1.00  0.00    -0.313 OA 
BRANCH  18  25
HETATM   25  C   UNL     1     -11.427  11.075  68.271  1.00  0.00    -0.304 C  
BRANCH  25  26
HETATM   26  O   UNL     1     -11.989  11.221  66.967  1.00  0.00    -0.401 OA 
BRANCH  26  27
HETATM   27  P   UNL     1     -11.747  12.649  66.275  1.00  0.00    -0.367 P  
HETATM   28  O   UNL     1     -11.780  12.156  64.736  1.00  0.00    -0.352 OA 
HETATM   29  O   UNL     1     -12.759  13.715  66.574  1.00  0.00    -0.255 OA 
BRANCH  27  30
HETATM   30  O   UNL     1     -10.222  13.046  66.705  1.00  0.00    -0.240 OA 
HETATM   31  P   UNL     1      -9.851  14.734  66.769  1.00  0.00    -0.277 P  
HETATM   32  C   UNL     1      -9.459  16.520  66.836  1.00  0.00    -0.237 C  
HETATM   33  O   UNL     1      -9.695  14.694  65.126  1.00  0.00    -0.213 OA 
HETATM   34  O   UNL     1     -11.324  15.098  67.090  1.00  0.00    -0.338 OA 
HETATM   35 CL   UNL     1     -10.473  17.511  65.682  1.00  0.00    -0.250 Cl 
HETATM   36  P   UNL     1      -9.930  17.187  68.475  1.00  0.00    -0.345 P  
HETATM   37 CL   UNL     1      -7.760  16.751  66.302  1.00  0.00    -0.341 Cl 
HETATM   38  O   UNL     1      -8.343  17.125  68.950  1.00  0.00    -0.252 OA 
HETATM   39  O   UNL     1     -10.136  15.655  69.082  1.00  0.00    -0.207 OA 
HETATM   40  O   UNL     1     -10.327  17.750  69.861  1.00  0.00     0.198 OA 
ENDBRANCH  27  30
ENDBRANCH  26  27
ENDBRANCH  25  26
ENDBRANCH  18  25
ENDBRANCH  11  16
BRANCH  14  41
HETATM   41  S   UNL     1      -7.710  10.409  69.438  1.00  0.00    -0.155 SA 
BRANCH  41  42
HETATM   42  C   UNL     1      -7.294   9.309  68.043  1.00  0.00    -0.080 C  
BRANCH  42  43
HETATM   43  C   UNL     1      -6.721   8.014  68.604  1.00  0.00    -0.062 C  
HETATM   44  C   UNL     1      -7.275   6.794  67.901  1.00  0.00    -0.091 C  
HETATM   45  F   UNL     1      -6.268   6.034  67.407  1.00  0.00    -0.027 F  
HETATM   46  F   UNL     1      -8.093   7.102  66.876  1.00  0.00    -0.108 F  
HETATM   47  F   UNL     1      -7.970   6.019  68.762  1.00  0.00    -0.097 F  
ENDBRANCH  42  43
ENDBRANCH  41  42
ENDBRANCH  14  41
ENDBRANCH   5   7
ENDBRANCH   4   5
ENDBRANCH   3   4
ENDBRANCH   2   3
TORSDOF 12
ENDMDL
MODEL      165
REMARK 921   NORMALIZED FREE ENERGY PREDICTED BY IDOCK:   -3.55 KCAL/MOL
REMARK 922        TOTAL FREE ENERGY PREDICTED BY IDOCK:   -7.05 KCAL/MOL
REMARK 923 INTER-LIGAND FREE ENERGY PREDICTED BY IDOCK:   -6.80 KCAL/MOL
REMARK 924 INTRA-LIGAND FREE ENERGY PREDICTED BY IDOCK:   -0.24 KCAL/MOL
REMARK 927      BINDING AFFINITY PREDICTED BY RF-SCORE:    0.00 PKD
ROOT
HETATM    1  C   UNL     1     -12.786  16.145  73.658  1.00  0.00    -0.579 C  
HETATM    2  S   UNL     1     -12.637  14.817  72.442  1.00  0.00    -0.334 SA 
ENDROOT
BRANCH   2   3
HETATM    3  C   UNL     1     -13.260  15.694  70.958  1.00  0.00    -0.372 C  
BRANCH   3   4
HETATM    4  C   UNL     1     -12.200  15.759  69.837  1.00  0.00    -0.248 C  
BRANCH   4   5
HETATM    5  N   UNL     1     -10.874  15.491  70.365  1.00  0.00    -0.324 NA 
HETATM    6  H   UNL     1     -10.754  15.327  71.365  1.00  0.00     0.000 HD 
BRANCH   5   7
HETATM    7  C   UNL     1      -9.770  15.455  69.531  1.00  0.00    -0.257 A  
HETATM    8  C   UNL     1      -9.393  14.256  68.905  1.00  0.00    -0.053 A  
HETATM    9  N   UNL     1      -9.958  12.996  68.908  1.00  0.00     0.011 NA 
HETATM   10  C   UNL     1      -9.217  12.290  68.069  1.00  0.00    -0.195 A  
HETATM   11  N   UNL     1      -8.180  13.034  67.546  1.00  0.00    -0.170 NA 
HETATM   12  C   UNL     1      -8.285  14.290  68.071  1.00  0.00    -0.153 A  
HETATM   13  N   UNL     1      -9.010  16.563  69.293  1.00  0.00    -0.155 NA 
HETATM   14  C   UNL     1      -7.929  16.447  68.495  1.00  0.00    -0.203 A  
HETATM   15  N   UNL     1      -7.506  15.346  67.829  1.00  0.00    -0.141 NA 
BRANCH  11  16
HETATM   16  C   UNL     1      -7.313  12.575  66.483  1.00  0.00     0.715 C  
HETATM   17  O   UNL     1      -8.144  12.036  65.448  1.00  0.00     0.909 OA 
HETATM   18  C   UNL     1      -8.083  10.600  65.479  1.00  0.00    -0.129 C  
HETATM   19  H   UNL     1      -4.490  10.964  65.969  1.00  0.00     0.000 HD 
HETATM   20  O   UNL     1      -5.146  11.631  65.810  1.00  0.00    -0.290 OA 
HETATM   21  C   UNL     1      -6.963  10.195  66.430  1.00  0.00    -0.105 C  
HETATM   22  H   UNL     1      -5.401   8.999  66.374  1.00  0.00     0.000 HD 
HETATM   23  C   UNL     1      -6.250  11.496  66.740  1.00  0.00    -0.140 C  
HETATM   24  O   UNL     1      -6.100   9.251  65.781  1.00  0.00    -0.054 OA 
BRANCH  18  25
HETATM   25  C   UNL     1      -9.419   9.980  65.891  1.00  0.00    -0.205 C  
BRANCH  25  26
HETATM   26  O   UNL     1      -9.158   8.599  66.146  1.00  0.00    -0.174 OA 
BRANCH  26  27
HETATM   27  P   UNL     1     -10.159   7.896  67.185  1.00  0.00    -0.311 P  
HETATM   28  O   UNL     1     -10.911   9.229  67.704  1.00  0.00    -0.250 OA 
HETATM   29  O   UNL     1     -11.097   6.872  66.618  1.00  0.00    -0.207 OA 
BRANCH  27  30
HETATM   30  O   UNL     1      -9.175   7.315  68.353  1.00  0.00    -0.138 OA 
HETATM   31  P   UNL     1      -8.734   5.647  68.234  1.00  0.00    -0.104 P  
HETATM   32  C   UNL     1      -8.268   3.881  68.108  1.00  0.00    -0.087 C  
HETATM   33  O   UNL     1     -10.209   5.279  68.879  1.00  0.00    -0.191 OA 
HETATM   34  O   UNL     1      -8.889   5.662  66.690  1.00  0.00    -0.116 OA 
HETATM   35 CL   UNL     1      -9.537   2.873  67.263  1.00  0.00    -0.095 Cl 
HETATM   36  P   UNL     1      -6.811   3.712  67.012  1.00  0.00    -0.051 P  
HETATM   37 CL   UNL     1      -8.143   3.205  69.766  1.00  0.00    -0.055 Cl 
HETATM   38  O   UNL     1      -5.834   3.567  68.342  1.00  0.00    -0.021 OA 
HETATM   39  O   UNL     1      -6.550   5.352  67.040  1.00  0.00    -0.050 OA 
HETATM   40  O   UNL     1      -5.579   3.569  66.086  1.00  0.00    -0.016 OA 
ENDBRANCH  27  30
ENDBRANCH  26  27
ENDBRANCH  25  26
ENDBRANCH  18  25
ENDBRANCH  11  16
BRANCH  14  41
HETATM   41  S   UNL     1      -6.897  17.879  68.261  1.00  0.00    -0.219 SA 
BRANCH  41  42
HETATM   42  C   UNL     1      -8.148  19.204  68.354  1.00  0.00    -0.343 C  
BRANCH  42  43
HETATM   43  C   UNL     1      -8.620  19.520  66.940  1.00  0.00    -0.341 C  
HETATM   44  C   UNL     1     -10.050  19.083  66.707  1.00  0.00    -0.379 C  
HETATM   45  F   UNL     1     -10.802  20.127  66.283  1.00  0.00    -0.501 F  
HETATM   46  F   UNL     1     -10.636  18.582  67.812  1.00  0.00    -0.383 F  
HETATM   47  F   UNL     1     -10.110  18.135  65.746  1.00  0.00    -0.296 F  
ENDBRANCH  42  43
ENDBRANCH  41  42
ENDBRANCH  14  41
ENDBRANCH   5   7
ENDBRANCH   4   5
ENDBRANCH   3   4
ENDBRANCH   2   3
TORSDOF 12
ENDMDL
MODEL      166
REMARK 921   NORMALIZED FREE ENERGY PREDICTED BY IDOCK:   -3.48 KCAL/MOL
REMARK 922        TOTAL FREE ENERGY PREDICTED BY IDOCK:   -6.93 KCAL/MOL
REMARK 923 INTER-LIGAND FREE ENERGY PREDICTED BY IDOCK:   -6.90 KCAL/MOL
REMARK 924 INTRA-LIGAND FREE ENERGY PREDICTED BY IDOCK:   -0.04 KCAL/MOL
REMARK 927      BINDING AFFINITY PREDICTED BY RF-SCORE:    0.00 PKD
ROOT
HETATM    1  C   UNL     1     -10.149   7.271  66.118  1.00  0.00     0.343 C  
HETATM    2  S   UNL     1      -8.374   7.160  65.803  1.00  0.00    -0.143 SA 
ENDROOT
BRANCH   2   3
HETATM    3  C   UNL     1      -8.149   5.348  65.961  1.00  0.00    -0.107 C  
BRANCH   3   4
HETATM    4  C   UNL     1      -9.419   4.570  65.557  1.00  0.00    -0.173 C  
BRANCH   4   5
HETATM    5  N   UNL     1      -9.915   3.779  66.669  1.00  0.00    -0.375 NA 
HETATM    6  H   UNL     1     -10.596   3.039  66.496  1.00  0.00     0.000 HD 
BRANCH   5   7
HETATM    7  C   UNL     1      -9.478   4.015  67.961  1.00  0.00    -0.165 A  
HETATM    8  C   UNL     1     -10.110   4.981  68.759  1.00  0.00    -0.130 A  
HETATM    9  N   UNL     1     -11.200   5.798  68.528  1.00  0.00     0.031 NA 
HETATM   10  C   UNL     1     -11.391   6.439  69.671  1.00  0.00    -0.412 A  
HETATM   11  N   UNL     1     -10.451   6.092  70.619  1.00  0.00    -0.231 NA 
HETATM   12  C   UNL     1      -9.632   5.161  70.048  1.00  0.00    -0.181 A  
HETATM   13  N   UNL     1      -8.426   3.333  68.501  1.00  0.00    -0.080 NA 
HETATM   14  C   UNL     1      -8.033   3.638  69.755  1.00  0.00    -0.050 A  
HETATM   15  N   UNL     1      -8.596   4.530  70.604  1.00  0.00    -0.092 NA 
BRANCH  11  16
HETATM   16  C   UNL     1     -10.510   6.506  72.004  1.00  0.00    -0.202 C  
HETATM   17  O   UNL     1     -10.661   7.931  72.024  1.00  0.00    -0.217 OA 
HETATM   18  C   UNL     1      -9.412   8.544  72.384  1.00  0.00    -0.280 C  
HETATM   19  H   UNL     1      -9.100   5.950  74.925  1.00  0.00     0.000 HD 
HETATM   20  O   UNL     1      -9.820   6.128  74.332  1.00  0.00    -0.218 OA 
HETATM   21  C   UNL     1      -8.465   7.446  72.857  1.00  0.00    -0.114 C  
HETATM   22  H   UNL     1      -7.309   7.130  74.417  1.00  0.00     0.000 HD 
HETATM   23  C   UNL     1      -9.346   6.218  72.965  1.00  0.00    -0.138 C  
HETATM   24  O   UNL     1      -7.899   7.813  74.122  1.00  0.00    -0.151 OA 
BRANCH  18  25
HETATM   25  C   UNL     1      -8.811   9.339  71.223  1.00  0.00     0.013 C  
BRANCH  25  26
HETATM   26  O   UNL     1      -9.890   9.630  70.334  1.00  0.00    -0.248 OA 
BRANCH  26  27
HETATM   27  P   UNL     1      -9.456  10.186  68.893  1.00  0.00    -0.201 P  
HETATM   28  O   UNL     1      -8.997  11.665  69.357  1.00  0.00     0.391 OA 
HETATM   29  O   UNL     1      -8.373   9.428  68.184  1.00  0.00    -0.117 OA 
BRANCH  27  30
HETATM   30  O   UNL     1     -10.859  10.269  68.060  1.00  0.00    -0.236 OA 
HETATM   31  P   UNL     1     -10.932  11.429  66.779  1.00  0.00    -0.233 P  
HETATM   32  C   UNL     1     -11.007  12.657  65.424  1.00  0.00    -0.286 C  
HETATM   33  O   UNL     1     -11.201  12.583  67.929  1.00  0.00    -0.232 OA 
HETATM   34  O   UNL     1      -9.399  11.346  66.548  1.00  0.00    -0.179 OA 
HETATM   35 CL   UNL     1      -9.917  14.096  65.712  1.00  0.00    -0.336 Cl 
HETATM   36  P   UNL     1     -10.322  11.920  63.895  1.00  0.00    -0.467 P  
HETATM   37 CL   UNL     1     -12.673  13.323  65.352  1.00  0.00    -0.521 Cl 
HETATM   38  O   UNL     1     -11.860  11.655  63.340  1.00  0.00    -0.415 OA 
HETATM   39  O   UNL     1     -10.340  10.403  64.570  1.00  0.00    -0.311 OA 
HETATM   40  O   UNL     1      -9.743  11.297  62.601  1.00  0.00    -0.283 OA 
ENDBRANCH  27  30
ENDBRANCH  26  27
ENDBRANCH  25  26
ENDBRANCH  18  25
ENDBRANCH  11  16
BRANCH  14  41
HETATM   41  S   UNL     1      -6.607   2.804  70.417  1.00  0.00    -0.033 SA 
BRANCH  41  42
HETATM   42  C   UNL     1      -6.336   1.541  69.128  1.00  0.00    -0.025 C  
BRANCH  42  43
HETATM   43  C   UNL     1      -5.223   2.023  68.207  1.00  0.00    -0.012 C  
HETATM   44  C   UNL     1      -5.723   2.299  66.806  1.00  0.00    -0.018 C  
HETATM   45  F   UNL     1      -5.424   3.568  66.437  1.00  0.00    -0.014 F  
HETATM   46  F   UNL     1      -7.055   2.142  66.680  1.00  0.00    -0.047 F  
HETATM   47  F   UNL     1      -5.127   1.477  65.914  1.00  0.00    -0.004 F  
ENDBRANCH  42  43
ENDBRANCH  41  42
ENDBRANCH  14  41
ENDBRANCH   5   7
ENDBRANCH   4   5
ENDBRANCH   3   4
ENDBRANCH   2   3
TORSDOF 12
ENDMDL
MODEL      167
REMARK 921   NORMALIZED FREE ENERGY PREDICTED BY IDOCK:   -3.46 KCAL/MOL
REMARK 922        TOTAL FREE ENERGY PREDICTED BY IDOCK:   -6.90 KCAL/MOL
REMARK 923 INTER-LIGAND FREE ENERGY PREDICTED BY IDOCK:   -7.20 KCAL/MOL
REMARK 924 INTRA-LIGAND FREE ENERGY PREDICTED BY IDOCK:    0.30 KCAL/MOL
REMARK 927      BINDING AFFINITY PREDICTED BY RF-SCORE:    0.00 PKD
ROOT
HETATM    1  C   UNL     1      -6.395  20.040  70.678  1.00  0.00    -0.219 C  
HETATM    2  S   UNL     1      -5.129  18.758  70.800  1.00  0.00    -0.255 SA 
ENDROOT
BRANCH   2   3
HETATM    3  C   UNL     1      -5.804  17.549  69.599  1.00  0.00    -0.243 C  
BRANCH   3   4
HETATM    4  C   UNL     1      -6.558  16.397  70.299  1.00  0.00     0.477 C  
BRANCH   4   5
HETATM    5  N   UNL     1      -6.444  15.167  69.535  1.00  0.00    -0.139 NA 
HETATM    6  H   UNL     1      -5.595  14.608  69.606  1.00  0.00     0.000 HD 
BRANCH   5   7
HETATM    7  C   UNL     1      -7.472  14.744  68.711  1.00  0.00    -0.133 A  
HETATM    8  C   UNL     1      -7.390  13.509  68.050  1.00  0.00    -0.133 A  
HETATM    9  N   UNL     1      -6.433  12.512  68.074  1.00  0.00    -0.076 NA 
HETATM   10  C   UNL     1      -6.933  11.545  67.321  1.00  0.00    -0.125 A  
HETATM   11  N   UNL     1      -8.158  11.888  66.788  1.00  0.00    -0.144 NA 
HETATM   12  C   UNL     1      -8.459  13.137  67.249  1.00  0.00    -0.198 A  
HETATM   13  N   UNL     1      -8.589  15.502  68.505  1.00  0.00    -0.168 NA 
HETATM   14  C   UNL     1      -9.537  15.041  67.664  1.00  0.00    -0.203 A  
HETATM   15  N   UNL     1      -9.556  13.857  67.007  1.00  0.00    -0.245 NA 
BRANCH  11  16
HETATM   16  C   UNL     1      -9.010  10.969  66.065  1.00  0.00    -0.197 C  
HETATM   17  O   UNL     1      -9.998  10.482  66.981  1.00  0.00    -0.186 OA 
HETATM   18  C   UNL     1      -9.674   9.137  67.370  1.00  0.00    -0.162 C  
HETATM   19  H   UNL     1      -8.889   8.524  63.864  1.00  0.00     0.000 HD 
HETATM   20  O   UNL     1      -9.247   9.303  64.274  1.00  0.00    -0.133 OA 
HETATM   21  C   UNL     1      -8.548   8.642  66.470  1.00  0.00    -0.116 C  
HETATM   22  H   UNL     1      -8.198   7.058  65.357  1.00  0.00     0.000 HD 
HETATM   23  C   UNL     1      -8.431   9.710  65.401  1.00  0.00    -0.145 C  
HETATM   24  O   UNL     1      -8.900   7.366  65.918  1.00  0.00    -0.164 OA 
BRANCH  18  25
HETATM   25  C   UNL     1      -9.290   9.046  68.848  1.00  0.00    -0.143 C  
BRANCH  25  26
HETATM   26  O   UNL     1     -10.421   8.497  69.525  1.00  0.00    -0.217 OA 
BRANCH  26  27
HETATM   27  P   UNL     1     -10.596   6.908  69.385  1.00  0.00    -0.246 P  
HETATM   28  O   UNL     1     -11.981   6.766  70.206  1.00  0.00    -0.352 OA 
HETATM   29  O   UNL     1     -10.680   6.367  67.988  1.00  0.00    -0.229 OA 
BRANCH  27  30
HETATM   30  O   UNL     1      -9.360   6.294  70.258  1.00  0.00    -0.159 OA 
HETATM   31  P   UNL     1      -8.781   4.733  69.788  1.00  0.00    -0.085 P  
HETATM   32  C   UNL     1      -8.169   3.082  69.290  1.00  0.00    -0.058 C  
HETATM   33  O   UNL     1     -10.066   4.086  70.597  1.00  0.00    -0.143 OA 
HETATM   34  O   UNL     1      -9.219   4.957  68.317  1.00  0.00    -0.113 OA 
HETATM   35 CL   UNL     1      -9.464   2.053  68.510  1.00  0.00    -0.242 Cl 
HETATM   36  P   UNL     1      -6.931   3.267  67.955  1.00  0.00    -0.051 P  
HETATM   37 CL   UNL     1      -7.672   2.189  70.767  1.00  0.00    -0.039 Cl 
HETATM   38  O   UNL     1      -5.715   3.055  69.061  1.00  0.00    -0.021 OA 
HETATM   39  O   UNL     1      -6.837   4.905  68.216  1.00  0.00    -0.053 OA 
HETATM   40  O   UNL     1      -5.882   3.424  66.826  1.00  0.00    -0.022 OA 
ENDBRANCH  27  30
ENDBRANCH  26  27
ENDBRANCH  25  26
ENDBRANCH  18  25
ENDBRANCH  11  16
BRANCH  14  41
HETATM   41  S   UNL     1     -10.947  16.077  67.336  1.00  0.00    -0.175 SA 
BRANCH  41  42
HETATM   42  C   UNL     1     -10.308  17.073  65.947  1.00  0.00    -0.298 C  
BRANCH  42  43
HETATM   43  C   UNL     1     -10.899  18.473  66.046  1.00  0.00    -0.077 C  
HETATM   44  C   UNL     1      -9.839  19.520  66.313  1.00  0.00    -0.429 C  
HETATM   45  F   UNL     1      -9.879  20.487  65.366  1.00  0.00    -0.361 F  
HETATM   46  F   UNL     1      -8.590  19.016  66.327  1.00  0.00    -0.292 F  
HETATM   47  F   UNL     1     -10.051  20.123  67.504  1.00  0.00    -0.484 F  
ENDBRANCH  42  43
ENDBRANCH  41  42
ENDBRANCH  14  41
ENDBRANCH   5   7
ENDBRANCH   4   5
ENDBRANCH   3   4
ENDBRANCH   2   3
TORSDOF 12
ENDMDL
MODEL      168
REMARK 921   NORMALIZED FREE ENERGY PREDICTED BY IDOCK:   -3.43 KCAL/MOL
REMARK 922        TOTAL FREE ENERGY PREDICTED BY IDOCK:   -6.84 KCAL/MOL
REMARK 923 INTER-LIGAND FREE ENERGY PREDICTED BY IDOCK:   -8.09 KCAL/MOL
REMARK 924 INTRA-LIGAND FREE ENERGY PREDICTED BY IDOCK:    1.25 KCAL/MOL
REMARK 927      BINDING AFFINITY PREDICTED BY RF-SCORE:    0.00 PKD
ROOT
HETATM    1  C   UNL     1      -6.442  18.733  67.436  1.00  0.00    -0.193 C  
HETATM    2  S   UNL     1      -6.625  19.815  68.872  1.00  0.00    -0.329 SA 
ENDROOT
BRANCH   2   3
HETATM    3  C   UNL     1      -8.404  19.550  69.226  1.00  0.00     0.015 C  
BRANCH   3   4
HETATM    4  C   UNL     1      -8.919  18.218  68.640  1.00  0.00    -0.285 C  
BRANCH   4   5
HETATM    5  N   UNL     1      -8.150  17.097  69.154  1.00  0.00    -0.101 NA 
HETATM    6  H   UNL     1      -7.516  17.241  69.939  1.00  0.00     0.000 HD 
BRANCH   5   7
HETATM    7  C   UNL     1      -8.266  15.838  68.591  1.00  0.00    -0.174 A  
HETATM    8  C   UNL     1      -9.482  15.423  68.026  1.00  0.00    -0.201 A  
HETATM    9  N   UNL     1     -10.691  16.071  67.859  1.00  0.00    -0.307 NA 
HETATM   10  C   UNL     1     -11.444  15.215  67.186  1.00  0.00    -0.250 A  
HETATM   11  N   UNL     1     -10.782  14.031  66.938  1.00  0.00    -0.284 NA 
HETATM   12  C   UNL     1      -9.530  14.154  67.468  1.00  0.00    -0.210 A  
HETATM   13  N   UNL     1      -7.222  14.959  68.570  1.00  0.00    -0.108 NA 
HETATM   14  C   UNL     1      -7.417  13.737  68.034  1.00  0.00    -0.139 A  
HETATM   15  N   UNL     1      -8.539  13.261  67.445  1.00  0.00    -0.194 NA 
BRANCH  11  16
HETATM   16  C   UNL     1     -11.296  12.982  66.084  1.00  0.00    -0.314 C  
HETATM   17  O   UNL     1     -12.046  12.081  66.909  1.00  0.00    -0.608 OA 
HETATM   18  C   UNL     1     -11.286  10.882  67.131  1.00  0.00    -0.088 C  
HETATM   19  H   UNL     1     -10.414  11.019  63.594  1.00  0.00     0.000 HD 
HETATM   20  O   UNL     1     -11.002  11.575  64.091  1.00  0.00    -0.347 OA 
HETATM   21  C   UNL     1     -10.078  10.909  66.201  1.00  0.00    -0.239 C  
HETATM   22  H   UNL     1      -9.245   9.687  64.904  1.00  0.00     0.000 HD 
HETATM   23  C   UNL     1     -10.345  12.082  65.280  1.00  0.00    -0.275 C  
HETATM   24  O   UNL     1      -9.997   9.670  65.483  1.00  0.00    -0.311 OA 
BRANCH  18  25
HETATM   25  C   UNL     1     -10.863  10.736  68.594  1.00  0.00    -0.220 C  
BRANCH  25  26
HETATM   26  O   UNL     1     -10.177   9.488  68.690  1.00  0.00    -0.181 OA 
BRANCH  26  27
HETATM   27  P   UNL     1     -10.254   8.776  70.127  1.00  0.00    -0.208 P  
HETATM   28  O   UNL     1     -10.795  10.043  70.971  1.00  0.00    -0.298 OA 
HETATM   29  O   UNL     1     -11.146   7.574  70.228  1.00  0.00    -0.257 OA 
BRANCH  27  30
HETATM   30  O   UNL     1      -8.693   8.474  70.504  1.00  0.00    -0.136 OA 
HETATM   31  P   UNL     1      -8.411   7.389  71.821  1.00  0.00    -0.109 P  
HETATM   32  C   UNL     1      -8.115   6.240  73.214  1.00  0.00    -0.109 C  
HETATM   33  O   UNL     1      -8.725   8.649  72.841  1.00  0.00    -0.384 OA 
HETATM   34  O   UNL     1      -9.751   6.649  71.565  1.00  0.00    -0.165 OA 
HETATM   35 CL   UNL     1      -9.467   6.256  74.445  1.00  0.00    -0.199 Cl 
HETATM   36  P   UNL     1      -8.138   4.516  72.599  1.00  0.00    -0.100 P  
HETATM   37 CL   UNL     1      -6.652   6.786  74.102  1.00  0.00    -0.079 Cl 
HETATM   38  O   UNL     1      -6.481   4.493  72.617  1.00  0.00    -0.036 OA 
HETATM   39  O   UNL     1      -8.080   5.036  71.023  1.00  0.00    -0.096 OA 
HETATM   40  O   UNL     1      -8.157   3.058  72.079  1.00  0.00    -0.057 OA 
ENDBRANCH  27  30
ENDBRANCH  26  27
ENDBRANCH  25  26
ENDBRANCH  18  25
ENDBRANCH  11  16
BRANCH  14  41
HETATM   41  S   UNL     1      -6.074  12.570  68.090  1.00  0.00    -0.080 SA 
BRANCH  41  42
HETATM   42  C   UNL     1      -6.912  11.141  68.856  1.00  0.00    -0.095 C  
BRANCH  42  43
HETATM   43  C   UNL     1      -6.174   9.873  68.446  1.00  0.00    -0.050 C  
HETATM   44  C   UNL     1      -6.604   9.381  67.081  1.00  0.00    -0.071 C  
HETATM   45  F   UNL     1      -5.532   9.257  66.262  1.00  0.00    -0.041 F  
HETATM   46  F   UNL     1      -7.484  10.203  66.477  1.00  0.00    -0.098 F  
HETATM   47  F   UNL     1      -7.177   8.161  67.170  1.00  0.00    -0.076 F  
ENDBRANCH  42  43
ENDBRANCH  41  42
ENDBRANCH  14  41
ENDBRANCH   5   7
ENDBRANCH   4   5
ENDBRANCH   3   4
ENDBRANCH   2   3
TORSDOF 12
ENDMDL
MODEL      169
REMARK 921   NORMALIZED FREE ENERGY PREDICTED BY IDOCK:   -3.42 KCAL/MOL
REMARK 922        TOTAL FREE ENERGY PREDICTED BY IDOCK:   -6.84 KCAL/MOL
REMARK 923 INTER-LIGAND FREE ENERGY PREDICTED BY IDOCK:   -8.50 KCAL/MOL
REMARK 924 INTRA-LIGAND FREE ENERGY PREDICTED BY IDOCK:    1.66 KCAL/MOL
REMARK 927      BINDING AFFINITY PREDICTED BY RF-SCORE:    0.00 PKD
ROOT
HETATM    1  C   UNL     1      -8.822   3.758  70.507  1.00  0.00    -0.082 C  
HETATM    2  S   UNL     1      -9.380   5.402  71.008  1.00  0.00    -0.153 SA 
ENDROOT
BRANCH   2   3
HETATM    3  C   UNL     1     -10.500   5.782  69.608  1.00  0.00    -0.293 C  
BRANCH   3   4
HETATM    4  C   UNL     1     -11.647   6.727  70.025  1.00  0.00    -0.310 C  
BRANCH   4   5
HETATM    5  N   UNL     1     -11.182   7.710  70.987  1.00  0.00    -0.262 NA 
HETATM    6  H   UNL     1     -10.842   7.401  71.897  1.00  0.00     0.000 HD 
BRANCH   5   7
HETATM    7  C   UNL     1     -11.193   9.061  70.686  1.00  0.00    -0.270 A  
HETATM    8  C   UNL     1     -12.186   9.898  71.219  1.00  0.00    -0.387 A  
HETATM    9  N   UNL     1     -13.230   9.653  72.090  1.00  0.00    -0.441 NA 
HETATM   10  C   UNL     1     -13.780  10.838  72.302  1.00  0.00     0.253 A  
HETATM   11  N   UNL     1     -13.154  11.833  71.581  1.00  0.00    -0.415 NA 
HETATM   12  C   UNL     1     -12.135  11.245  70.889  1.00  0.00    -0.301 A  
HETATM   13  N   UNL     1     -10.259   9.625  69.866  1.00  0.00    -0.228 NA 
HETATM   14  C   UNL     1     -10.350  10.942  69.591  1.00  0.00    -0.038 A  
HETATM   15  N   UNL     1     -11.251  11.828  70.077  1.00  0.00    -0.041 NA 
BRANCH  11  16
HETATM   16  C   UNL     1     -13.432  13.244  71.741  1.00  0.00    -0.354 C  
HETATM   17  O   UNL     1     -13.655  13.792  70.436  1.00  0.00     0.371 OA 
HETATM   18  C   UNL     1     -12.502  14.546  70.026  1.00  0.00    -0.298 C  
HETATM   19  H   UNL     1     -12.432  15.898  73.410  1.00  0.00     0.000 HD 
HETATM   20  O   UNL     1     -13.067  15.318  73.006  1.00  0.00    -0.421 OA 
HETATM   21  C   UNL     1     -11.581  14.694  71.232  1.00  0.00    -0.192 C  
HETATM   22  H   UNL     1     -10.648  16.166  72.145  1.00  0.00     0.000 HD 
HETATM   23  C   UNL     1     -12.406  14.182  72.394  1.00  0.00    -0.018 C  
HETATM   24  O   UNL     1     -11.222  16.073  71.394  1.00  0.00    -0.324 OA 
BRANCH  18  25
HETATM   25  C   UNL     1     -11.780  13.891  68.847  1.00  0.00    -0.337 C  
BRANCH  25  26
HETATM   26  O   UNL     1     -12.614  14.089  67.705  1.00  0.00     0.008 OA 
BRANCH  26  27
HETATM   27  P   UNL     1     -11.854  14.067  66.292  1.00  0.00    -0.446 P  
HETATM   28  O   UNL     1     -12.035  12.494  65.969  1.00  0.00    -0.481 OA 
HETATM   29  O   UNL     1     -12.411  14.958  65.221  1.00  0.00    -0.131 OA 
BRANCH  27  30
HETATM   30  O   UNL     1     -10.297  14.386  66.673  1.00  0.00    -0.268 OA 
HETATM   31  P   UNL     1      -9.811  16.045  66.615  1.00  0.00    -0.296 P  
HETATM   32  C   UNL     1      -9.298  17.801  66.554  1.00  0.00    -0.279 C  
HETATM   33  O   UNL     1      -9.688  15.884  64.977  1.00  0.00    -0.270 OA 
HETATM   34  O   UNL     1     -11.250  16.531  66.931  1.00  0.00     0.054 OA 
HETATM   35 CL   UNL     1     -10.264  18.779  65.349  1.00  0.00     0.306 Cl 
HETATM   36  P   UNL     1      -9.692  18.607  68.149  1.00  0.00    -0.376 P  
HETATM   37 CL   UNL     1      -7.598  17.878  65.982  1.00  0.00    -0.284 Cl 
HETATM   38  O   UNL     1      -8.105  18.469  68.606  1.00  0.00    -0.321 OA 
HETATM   39  O   UNL     1      -9.991  17.138  68.864  1.00  0.00    -0.286 OA 
HETATM   40  O   UNL     1     -10.025  19.290  69.499  1.00  0.00    -0.241 OA 
ENDBRANCH  27  30
ENDBRANCH  26  27
ENDBRANCH  25  26
ENDBRANCH  18  25
ENDBRANCH  11  16
BRANCH  14  41
HETATM   41  S   UNL     1      -9.178  11.648  68.452  1.00  0.00    -0.159 SA 
BRANCH  41  42
HETATM   42  C   UNL     1      -8.816  10.194  67.410  1.00  0.00    -0.131 C  
BRANCH  42  43
HETATM   43  C   UNL     1      -7.304  10.023  67.332  1.00  0.00    -0.090 C  
HETATM   44  C   UNL     1      -6.885   8.580  67.508  1.00  0.00    -0.071 C  
HETATM   45  F   UNL     1      -6.137   8.172  66.456  1.00  0.00    -0.044 F  
HETATM   46  F   UNL     1      -7.930   7.736  67.615  1.00  0.00    -0.113 F  
HETATM   47  F   UNL     1      -6.125   8.432  68.616  1.00  0.00    -0.041 F  
ENDBRANCH  42  43
ENDBRANCH  41  42
ENDBRANCH  14  41
ENDBRANCH   5   7
ENDBRANCH   4   5
ENDBRANCH   3   4
ENDBRANCH   2   3
TORSDOF 12
ENDMDL
MODEL      170
REMARK 921   NORMALIZED FREE ENERGY PREDICTED BY IDOCK:   -3.31 KCAL/MOL
REMARK 922        TOTAL FREE ENERGY PREDICTED BY IDOCK:   -6.64 KCAL/MOL
REMARK 923 INTER-LIGAND FREE ENERGY PREDICTED BY IDOCK:   -6.14 KCAL/MOL
REMARK 924 INTRA-LIGAND FREE ENERGY PREDICTED BY IDOCK:   -0.51 KCAL/MOL
REMARK 927      BINDING AFFINITY PREDICTED BY RF-SCORE:    0.00 PKD
ROOT
HETATM    1  C   UNL     1     -10.785  19.495  65.584  1.00  0.00    -0.325 C  
HETATM    2  S   UNL     1     -10.487  19.733  67.350  1.00  0.00    -0.423 SA 
ENDROOT
BRANCH   2   3
HETATM    3  C   UNL     1     -10.904  18.055  67.957  1.00  0.00    -0.176 C  
BRANCH   3   4
HETATM    4  C   UNL     1     -10.588  16.965  66.910  1.00  0.00    -0.214 C  
BRANCH   4   5
HETATM    5  N   UNL     1     -10.658  15.642  67.505  1.00  0.00    -0.291 NA 
HETATM    6  H   UNL     1     -11.516  15.342  67.966  1.00  0.00     0.000 HD 
BRANCH   5   7
HETATM    7  C   UNL     1      -9.574  14.783  67.457  1.00  0.00    -0.208 A  
HETATM    8  C   UNL     1      -9.719  13.487  66.938  1.00  0.00    -0.261 A  
HETATM    9  N   UNL     1     -10.799  12.833  66.378  1.00  0.00    -0.267 NA 
HETATM   10  C   UNL     1     -10.322  11.660  65.989  1.00  0.00    -0.243 A  
HETATM   11  N   UNL     1      -8.986  11.519  66.303  1.00  0.00    -0.197 NA 
HETATM   12  C   UNL     1      -8.591  12.679  66.906  1.00  0.00    -0.151 A  
HETATM   13  N   UNL     1      -8.341  15.152  67.911  1.00  0.00    -0.145 NA 
HETATM   14  C   UNL     1      -7.337  14.251  67.862  1.00  0.00    -0.156 A  
HETATM   15  N   UNL     1      -7.377  12.996  67.357  1.00  0.00    -0.142 NA 
BRANCH  11  16
HETATM   16  C   UNL     1      -8.163  10.416  65.855  1.00  0.00    -0.150 C  
HETATM   17  O   UNL     1      -8.996   9.252  65.793  1.00  0.00    -0.165 OA 
HETATM   18  C   UNL     1      -8.712   8.395  66.911  1.00  0.00    -0.130 C  
HETATM   19  H   UNL     1      -5.187   9.078  66.282  1.00  0.00     0.000 HD 
HETATM   20  O   UNL     1      -5.951   9.349  65.787  1.00  0.00    -0.053 OA 
HETATM   21  C   UNL     1      -7.458   8.919  67.602  1.00  0.00    -0.092 C  
HETATM   22  H   UNL     1      -5.744   8.170  68.212  1.00  0.00     0.000 HD 
HETATM   23  C   UNL     1      -6.928   9.977  66.656  1.00  0.00    -0.087 C  
HETATM   24  O   UNL     1      -6.525   7.844  67.782  1.00  0.00    -0.050 OA 
BRANCH  18  25
HETATM   25  C   UNL     1      -9.892   8.312  67.882  1.00  0.00    -0.169 C  
BRANCH  25  26
HETATM   26  O   UNL     1      -9.588   7.254  68.792  1.00  0.00    -0.142 OA 
BRANCH  26  27
HETATM   27  P   UNL     1     -10.221   5.827  68.417  1.00  0.00    -0.209 P  
HETATM   28  O   UNL     1     -11.465   6.364  67.535  1.00  0.00    -0.146 OA 
HETATM   29  O   UNL     1      -9.332   4.880  67.668  1.00  0.00    -0.120 OA 
BRANCH  27  30
HETATM   30  O   UNL     1     -10.756   5.242  69.845  1.00  0.00    -0.291 OA 
HETATM   31  P   UNL     1      -9.584   4.464  70.851  1.00  0.00    -0.205 P  
HETATM   32  C   UNL     1      -8.342   3.642  71.914  1.00  0.00    -0.078 C  
HETATM   33  O   UNL     1      -9.753   3.126  69.900  1.00  0.00    -0.124 OA 
HETATM   34  O   UNL     1      -8.432   5.318  70.257  1.00  0.00    -0.106 OA 
HETATM   35 CL   UNL     1      -6.982   2.881  70.957  1.00  0.00    -0.032 Cl 
HETATM   36  P   UNL     1      -7.479   4.898  72.928  1.00  0.00    -0.094 P  
HETATM   37 CL   UNL     1      -9.140   2.283  72.776  1.00  0.00    -0.092 Cl 
HETATM   38  O   UNL     1      -8.424   4.491  74.227  1.00  0.00    -0.103 OA 
HETATM   39  O   UNL     1      -8.599   6.054  72.519  1.00  0.00    -0.120 OA 
HETATM   40  O   UNL     1      -6.750   5.960  73.787  1.00  0.00    -0.077 OA 
ENDBRANCH  27  30
ENDBRANCH  26  27
ENDBRANCH  25  26
ENDBRANCH  18  25
ENDBRANCH  11  16
BRANCH  14  41
HETATM   41  S   UNL     1      -5.757  14.715  68.536  1.00  0.00    -0.107 SA 
BRANCH  41  42
HETATM   42  C   UNL     1      -5.710  16.481  68.082  1.00  0.00    -0.117 C  
BRANCH  42  43
HETATM   43  C   UNL     1      -5.141  17.266  69.257  1.00  0.00    -0.149 C  
HETATM   44  C   UNL     1      -6.174  18.170  69.891  1.00  0.00    -0.101 C  
HETATM   45  F   UNL     1      -6.286  17.906  71.215  1.00  0.00     0.825 F  
HETATM   46  F   UNL     1      -7.399  18.037  69.346  1.00  0.00    -0.212 F  
HETATM   47  F   UNL     1      -5.813  19.467  69.776  1.00  0.00    -0.241 F  
ENDBRANCH  42  43
ENDBRANCH  41  42
ENDBRANCH  14  41
ENDBRANCH   5   7
ENDBRANCH   4   5
ENDBRANCH   3   4
ENDBRANCH   2   3
TORSDOF 12
ENDMDL
MODEL      171
REMARK 921   NORMALIZED FREE ENERGY PREDICTED BY IDOCK:   -3.30 KCAL/MOL
REMARK 922        TOTAL FREE ENERGY PREDICTED BY IDOCK:   -6.62 KCAL/MOL
REMARK 923 INTER-LIGAND FREE ENERGY PREDICTED BY IDOCK:   -6.60 KCAL/MOL
REMARK 924 INTRA-LIGAND FREE ENERGY PREDICTED BY IDOCK:   -0.02 KCAL/MOL
REMARK 927      BINDING AFFINITY PREDICTED BY RF-SCORE:    0.00 PKD
ROOT
HETATM    1  C   UNL     1     -10.538  17.677  67.267  1.00  0.00    -0.296 C  
HETATM    2  S   UNL     1     -10.721  17.444  69.049  1.00  0.00     0.058 SA 
ENDROOT
BRANCH   2   3
HETATM    3  C   UNL     1     -12.007  16.137  69.054  1.00  0.00    -0.053 C  
BRANCH   3   4
HETATM    4  C   UNL     1     -11.636  14.964  69.986  1.00  0.00    -0.289 C  
BRANCH   4   5
HETATM    5  N   UNL     1     -10.197  14.890  70.175  1.00  0.00    -0.482 NA 
HETATM    6  H   UNL     1      -9.772  15.351  70.979  1.00  0.00     0.000 HD 
BRANCH   5   7
HETATM    7  C   UNL     1      -9.396  14.204  69.279  1.00  0.00     0.324 A  
HETATM    8  C   UNL     1      -9.856  13.023  68.677  1.00  0.00    -0.068 A  
HETATM    9  N   UNL     1     -11.062  12.353  68.761  1.00  0.00    -0.249 NA 
HETATM   10  C   UNL     1     -10.952  11.348  67.906  1.00  0.00    -0.240 A  
HETATM   11  N   UNL     1      -9.715  11.324  67.296  1.00  0.00    -0.173 NA 
HETATM   12  C   UNL     1      -9.010  12.389  67.778  1.00  0.00    -0.182 A  
HETATM   13  N   UNL     1      -8.143  14.637  68.956  1.00  0.00    -0.140 NA 
HETATM   14  C   UNL     1      -7.405  13.900  68.099  1.00  0.00    -0.123 A  
HETATM   15  N   UNL     1      -7.773  12.769  67.452  1.00  0.00    -0.170 NA 
BRANCH  11  16
HETATM   16  C   UNL     1      -9.371  10.443  66.201  1.00  0.00    -0.172 C  
HETATM   17  O   UNL     1     -10.316   9.366  66.199  1.00  0.00    -0.232 OA 
HETATM   18  C   UNL     1      -9.697   8.181  66.727  1.00  0.00    -0.235 C  
HETATM   19  H   UNL     1      -6.780   9.052  64.724  1.00  0.00     0.000 HD 
HETATM   20  O   UNL     1      -7.631   9.473  64.764  1.00  0.00    -0.104 OA 
HETATM   21  C   UNL     1      -8.201   8.444  66.853  1.00  0.00    -0.103 C  
HETATM   22  H   UNL     1      -6.540   7.540  66.309  1.00  0.00     0.000 HD 
HETATM   23  C   UNL     1      -7.995   9.763  66.137  1.00  0.00    -0.110 C  
HETATM   24  O   UNL     1      -7.472   7.376  66.231  1.00  0.00    -0.080 OA 
BRANCH  18  25
HETATM   25  C   UNL     1     -10.307   7.767  68.068  1.00  0.00    -0.209 C  
BRANCH  25  26
HETATM   26  O   UNL     1      -9.351   8.118  69.069  1.00  0.00    -0.148 OA 
BRANCH  26  27
HETATM   27  P   UNL     1      -9.869   7.994  70.582  1.00  0.00    -0.186 P  
HETATM   28  O   UNL     1      -9.741   9.554  70.987  1.00  0.00    -0.250 OA 
HETATM   29  O   UNL     1     -11.253   7.448  70.770  1.00  0.00    -0.260 OA 
BRANCH  27  30
HETATM   30  O   UNL     1      -8.707   7.123  71.330  1.00  0.00    -0.124 OA 
HETATM   31  P   UNL     1      -9.228   5.714  72.189  1.00  0.00    -0.145 P  
HETATM   32  C   UNL     1      -9.781   4.224  73.096  1.00  0.00    -0.128 C  
HETATM   33  O   UNL     1      -9.687   6.715  73.419  1.00  0.00    -0.162 OA 
HETATM   34  O   UNL     1     -10.452   5.533  71.252  1.00  0.00    -0.225 OA 
HETATM   35 CL   UNL     1     -11.494   4.370  73.720  1.00  0.00    -0.212 Cl 
HETATM   36  P   UNL     1      -9.883   2.809  71.940  1.00  0.00    -0.090 P  
HETATM   37 CL   UNL     1      -8.754   4.033  74.556  1.00  0.00    -0.094 Cl 
HETATM   38  O   UNL     1      -8.429   2.249  72.505  1.00  0.00    -0.061 OA 
HETATM   39  O   UNL     1      -9.064   3.655  70.769  1.00  0.00    -0.091 OA 
HETATM   40  O   UNL     1      -9.968   1.611  70.962  1.00  0.00    -0.096 OA 
ENDBRANCH  27  30
ENDBRANCH  26  27
ENDBRANCH  25  26
ENDBRANCH  18  25
ENDBRANCH  11  16
BRANCH  14  41
HETATM   41  S   UNL     1      -5.741  14.428  67.752  1.00  0.00     0.006 SA 
BRANCH  41  42
HETATM   42  C   UNL     1      -5.776  16.111  68.455  1.00  0.00    -0.109 C  
BRANCH  42  43
HETATM   43  C   UNL     1      -5.144  17.066  67.451  1.00  0.00    -0.147 C  
HETATM   44  C   UNL     1      -6.129  18.099  66.950  1.00  0.00    -0.150 C  
HETATM   45  F   UNL     1      -5.653  19.349  67.160  1.00  0.00    -0.169 F  
HETATM   46  F   UNL     1      -7.332  18.017  67.551  1.00  0.00    -0.195 F  
HETATM   47  F   UNL     1      -6.326  17.969  65.619  1.00  0.00    -0.238 F  
ENDBRANCH  42  43
ENDBRANCH  41  42
ENDBRANCH  14  41
ENDBRANCH   5   7
ENDBRANCH   4   5
ENDBRANCH   3   4
ENDBRANCH   2   3
TORSDOF 12
ENDMDL
MODEL      172
REMARK 921   NORMALIZED FREE ENERGY PREDICTED BY IDOCK:   -3.27 KCAL/MOL
REMARK 922        TOTAL FREE ENERGY PREDICTED BY IDOCK:   -6.58 KCAL/MOL
REMARK 923 INTER-LIGAND FREE ENERGY PREDICTED BY IDOCK:   -6.49 KCAL/MOL
REMARK 924 INTRA-LIGAND FREE ENERGY PREDICTED BY IDOCK:   -0.09 KCAL/MOL
REMARK 927      BINDING AFFINITY PREDICTED BY RF-SCORE:    0.00 PKD
ROOT
HETATM    1  C   UNL     1     -10.483   5.264  66.147  1.00  0.00    -0.206 C  
HETATM    2  S   UNL     1      -8.885   5.859  65.550  1.00  0.00    -0.037 SA 
ENDROOT
BRANCH   2   3
HETATM    3  C   UNL     1      -8.723   7.372  66.572  1.00  0.00    -0.140 C  
BRANCH   3   4
HETATM    4  C   UNL     1      -8.432   8.622  65.714  1.00  0.00    -0.151 C  
BRANCH   4   5
HETATM    5  N   UNL     1      -7.277   9.341  66.225  1.00  0.00    -0.087 NA 
HETATM    6  H   UNL     1      -6.476   9.502  65.616  1.00  0.00     0.000 HD 
BRANCH   5   7
HETATM    7  C   UNL     1      -7.251   9.809  67.527  1.00  0.00    -0.089 A  
HETATM    8  C   UNL     1      -6.842  11.124  67.799  1.00  0.00    -0.073 A  
HETATM    9  N   UNL     1      -6.462  12.162  66.971  1.00  0.00    -0.130 NA 
HETATM   10  C   UNL     1      -6.271  13.191  67.783  1.00  0.00    -0.156 A  
HETATM   11  N   UNL     1      -6.482  12.851  69.103  1.00  0.00    -0.104 NA 
HETATM   12  C   UNL     1      -6.850  11.536  69.124  1.00  0.00    -0.112 A  
HETATM   13  N   UNL     1      -7.607   9.022  68.583  1.00  0.00    -0.091 NA 
HETATM   14  C   UNL     1      -7.526   9.534  69.828  1.00  0.00    -0.098 A  
HETATM   15  N   UNL     1      -7.172  10.792  70.183  1.00  0.00    -0.132 NA 
BRANCH  11  16
HETATM   16  C   UNL     1      -6.508  13.807  70.189  1.00  0.00     0.009 C  
HETATM   17  O   UNL     1      -7.599  14.704  69.950  1.00  0.00    -0.018 OA 
HETATM   18  C   UNL     1      -7.094  15.964  69.478  1.00  0.00    -0.184 C  
HETATM   19  H   UNL     1      -4.518  15.664  72.039  1.00  0.00     0.000 HD 
HETATM   20  O   UNL     1      -5.264  15.101  71.866  1.00  0.00    -0.122 OA 
HETATM   21  C   UNL     1      -5.579  15.961  69.651  1.00  0.00    -0.127 C  
HETATM   22  H   UNL     1      -4.228  17.153  70.441  1.00  0.00     0.000 HD 
HETATM   23  C   UNL     1      -5.302  14.716  70.469  1.00  0.00    -0.127 C  
HETATM   24  O   UNL     1      -5.172  17.154  70.333  1.00  0.00    -0.209 OA 
BRANCH  18  25
HETATM   25  C   UNL     1      -7.491  16.231  68.025  1.00  0.00    -0.136 C  
BRANCH  25  26
HETATM   26  O   UNL     1      -8.918  16.295  68.004  1.00  0.00    -0.184 OA 
BRANCH  26  27
HETATM   27  P   UNL     1      -9.556  16.862  66.645  1.00  0.00    -0.297 P  
HETATM   28  O   UNL     1      -9.766  18.392  67.122  1.00  0.00    -0.285 OA 
HETATM   29  O   UNL     1      -8.713  16.738  65.411  1.00  0.00    -0.044 OA 
BRANCH  27  30
HETATM   30  O   UNL     1     -11.000  16.104  66.538  1.00  0.00    -0.205 OA 
HETATM   31  P   UNL     1     -10.959  14.393  66.290  1.00  0.00    -0.331 P  
HETATM   32  C   UNL     1     -10.915  12.582  66.027  1.00  0.00    -0.283 C  
HETATM   33  O   UNL     1     -10.665  14.698  64.694  1.00  0.00    -0.393 OA 
HETATM   34  O   UNL     1      -9.587  14.270  67.003  1.00  0.00    -0.239 OA 
HETATM   35 CL   UNL     1      -9.417  12.033  65.133  1.00  0.00    -0.081 Cl 
HETATM   36  P   UNL     1     -10.764  11.735  67.643  1.00  0.00    -0.240 P  
HETATM   37 CL   UNL     1     -12.296  12.125  64.975  1.00  0.00    -0.309 Cl 
HETATM   38  O   UNL     1     -12.386  11.400  67.612  1.00  0.00    -0.226 OA 
HETATM   39  O   UNL     1     -11.104  13.142  68.457  1.00  0.00    -0.241 OA 
HETATM   40  O   UNL     1     -10.637  11.018  69.009  1.00  0.00    -0.207 OA 
ENDBRANCH  27  30
ENDBRANCH  26  27
ENDBRANCH  25  26
ENDBRANCH  18  25
ENDBRANCH  11  16
BRANCH  14  41
HETATM   41  S   UNL     1      -7.911   8.472  71.203  1.00  0.00    -0.128 SA 
BRANCH  41  42
HETATM   42  C   UNL     1      -6.497   7.319  71.134  1.00  0.00    -0.043 C  
BRANCH  42  43
HETATM   43  C   UNL     1      -6.963   5.956  71.627  1.00  0.00    -0.073 C  
HETATM   44  C   UNL     1      -6.235   5.525  72.881  1.00  0.00    -0.048 C  
HETATM   45  F   UNL     1      -7.117   5.242  73.869  1.00  0.00    -0.076 F  
HETATM   46  F   UNL     1      -5.388   6.463  73.349  1.00  0.00    -0.033 F  
HETATM   47  F   UNL     1      -5.517   4.401  72.658  1.00  0.00    -0.003 F  
ENDBRANCH  42  43
ENDBRANCH  41  42
ENDBRANCH  14  41
ENDBRANCH   5   7
ENDBRANCH   4   5
ENDBRANCH   3   4
ENDBRANCH   2   3
TORSDOF 12
ENDMDL
MODEL      173
REMARK 921   NORMALIZED FREE ENERGY PREDICTED BY IDOCK:   -3.22 KCAL/MOL
REMARK 922        TOTAL FREE ENERGY PREDICTED BY IDOCK:   -6.48 KCAL/MOL
REMARK 923 INTER-LIGAND FREE ENERGY PREDICTED BY IDOCK:   -8.63 KCAL/MOL
REMARK 924 INTRA-LIGAND FREE ENERGY PREDICTED BY IDOCK:    2.15 KCAL/MOL
REMARK 927      BINDING AFFINITY PREDICTED BY RF-SCORE:    0.00 PKD
ROOT
HETATM    1  C   UNL     1     -12.185  16.857  73.532  1.00  0.00    -0.004 C  
HETATM    2  S   UNL     1     -13.736  15.978  73.823  1.00  0.00     0.960 SA 
ENDROOT
BRANCH   2   3
HETATM    3  C   UNL     1     -14.263  15.710  72.088  1.00  0.00    -0.437 C  
BRANCH   3   4
HETATM    4  C   UNL     1     -13.063  15.678  71.117  1.00  0.00    -0.459 C  
BRANCH   4   5
HETATM    5  N   UNL     1     -12.084  14.692  71.540  1.00  0.00    -0.344 NA 
HETATM    6  H   UNL     1     -11.587  14.823  72.420  1.00  0.00     0.000 HD 
BRANCH   5   7
HETATM    7  C   UNL     1     -11.816  13.578  70.763  1.00  0.00    -0.034 A  
HETATM    8  C   UNL     1     -10.811  13.621  69.784  1.00  0.00     0.267 A  
HETATM    9  N   UNL     1      -9.923  14.613  69.417  1.00  0.00    -0.093 NA 
HETATM   10  C   UNL     1      -9.155  14.055  68.494  1.00  0.00    -0.163 A  
HETATM   11  N   UNL     1      -9.530  12.754  68.229  1.00  0.00    -0.216 NA 
HETATM   12  C   UNL     1     -10.584  12.467  69.048  1.00  0.00    -0.049 A  
HETATM   13  N   UNL     1     -12.511  12.413  70.911  1.00  0.00    -0.342 NA 
HETATM   14  C   UNL     1     -12.218  11.377  70.098  1.00  0.00    -0.321 A  
HETATM   15  N   UNL     1     -11.254  11.318  69.149  1.00  0.00    -0.250 NA 
BRANCH  11  16
HETATM   16  C   UNL     1      -8.773  11.849  67.392  1.00  0.00    -0.166 C  
HETATM   17  O   UNL     1      -8.795  12.373  66.058  1.00  0.00     0.012 OA 
HETATM   18  C   UNL     1      -9.706  11.606  65.253  1.00  0.00    -0.229 C  
HETATM   19  H   UNL     1      -8.292   8.642  66.834  1.00  0.00     0.000 HD 
HETATM   20  O   UNL     1      -8.037   9.552  66.924  1.00  0.00    -0.108 OA 
HETATM   21  C   UNL     1     -10.113  10.370  66.048  1.00  0.00    -0.243 C  
HETATM   22  H   UNL     1     -10.189   8.429  65.732  1.00  0.00     0.000 HD 
HETATM   23  C   UNL     1      -9.185  10.376  67.246  1.00  0.00    -0.142 C  
HETATM   24  O   UNL     1      -9.935   9.199  65.238  1.00  0.00     0.010 OA 
BRANCH  18  25
HETATM   25  C   UNL     1     -10.926  12.426  64.832  1.00  0.00    -0.302 C  
BRANCH  25  26
HETATM   26  O   UNL     1     -10.435  13.716  64.463  1.00  0.00    -0.430 OA 
BRANCH  26  27
HETATM   27  P   UNL     1     -11.304  14.955  64.995  1.00  0.00    -0.373 P  
HETATM   28  O   UNL     1     -10.725  16.079  63.988  1.00  0.00     0.020 OA 
HETATM   29  O   UNL     1     -12.795  14.807  64.919  1.00  0.00    -0.412 OA 
BRANCH  27  30
HETATM   30  O   UNL     1     -10.743  15.214  66.508  1.00  0.00    -0.299 OA 
HETATM   31  P   UNL     1      -9.645  16.535  66.710  1.00  0.00    -0.285 P  
HETATM   32  C   UNL     1      -8.483  17.933  66.923  1.00  0.00    -0.244 C  
HETATM   33  O   UNL     1      -8.457  15.553  66.117  1.00  0.00    -0.212 OA 
HETATM   34  O   UNL     1     -10.262  17.300  65.509  1.00  0.00    -0.602 OA 
HETATM   35 CL   UNL     1      -7.515  18.286  65.412  1.00  0.00     0.199 Cl 
HETATM   36  P   UNL     1      -9.429  19.480  67.175  1.00  0.00    -0.377 P  
HETATM   37 CL   UNL     1      -7.275  17.485  68.173  1.00  0.00    -0.208 Cl 
HETATM   38  O   UNL     1      -9.143  19.383  68.804  1.00  0.00    -0.371 OA 
HETATM   39  O   UNL     1     -10.836  18.628  67.405  1.00  0.00    -0.439 OA 
HETATM   40  O   UNL     1     -10.230  20.788  67.389  1.00  0.00    -0.262 OA 
ENDBRANCH  27  30
ENDBRANCH  26  27
ENDBRANCH  25  26
ENDBRANCH  18  25
ENDBRANCH  11  16
BRANCH  14  41
HETATM   41  S   UNL     1     -13.189   9.893  70.242  1.00  0.00     0.570 SA 
BRANCH  41  42
HETATM   42  C   UNL     1     -12.550   9.233  71.819  1.00  0.00    -0.382 C  
BRANCH  42  43
HETATM   43  C   UNL     1     -11.506   8.168  71.507  1.00  0.00    -0.310 C  
HETATM   44  C   UNL     1     -12.136   6.852  71.109  1.00  0.00    -0.381 C  
HETATM   45  F   UNL     1     -11.674   6.452  69.900  1.00  0.00    -0.450 F  
HETATM   46  F   UNL     1     -13.480   6.912  71.031  1.00  0.00    -0.384 F  
HETATM   47  F   UNL     1     -11.819   5.881  71.995  1.00  0.00    -0.346 F  
ENDBRANCH  42  43
ENDBRANCH  41  42
ENDBRANCH  14  41
ENDBRANCH   5   7
ENDBRANCH   4   5
ENDBRANCH   3   4
ENDBRANCH   2   3
TORSDOF 12
ENDMDL
MODEL      174
REMARK 921   NORMALIZED FREE ENERGY PREDICTED BY IDOCK:   -3.14 KCAL/MOL
REMARK 922        TOTAL FREE ENERGY PREDICTED BY IDOCK:   -6.34 KCAL/MOL
REMARK 923 INTER-LIGAND FREE ENERGY PREDICTED BY IDOCK:   -5.70 KCAL/MOL
REMARK 924 INTRA-LIGAND FREE ENERGY PREDICTED BY IDOCK:   -0.64 KCAL/MOL
REMARK 927      BINDING AFFINITY PREDICTED BY RF-SCORE:    0.00 PKD
ROOT
HETATM    1  C   UNL     1     -11.091  16.902  68.175  1.00  0.00    -0.205 C  
HETATM    2  S   UNL     1     -10.051  18.378  68.099  1.00  0.00    -0.397 SA 
ENDROOT
BRANCH   2   3
HETATM    3  C   UNL     1      -8.418  17.616  68.439  1.00  0.00    -0.287 C  
BRANCH   3   4
HETATM    4  C   UNL     1      -7.903  16.793  67.239  1.00  0.00    -0.173 C  
BRANCH   4   5
HETATM    5  N   UNL     1      -7.159  15.631  67.694  1.00  0.00    -0.150 NA 
HETATM    6  H   UNL     1      -6.248  15.758  68.135  1.00  0.00     0.000 HD 
BRANCH   5   7
HETATM    7  C   UNL     1      -7.668  14.354  67.535  1.00  0.00    -0.192 A  
HETATM    8  C   UNL     1      -6.803  13.261  67.369  1.00  0.00    -0.085 A  
HETATM    9  N   UNL     1      -5.425  13.167  67.366  1.00  0.00    -0.348 NA 
HETATM   10  C   UNL     1      -5.174  11.872  67.253  1.00  0.00    -0.109 A  
HETATM   11  N   UNL     1      -6.332  11.129  67.153  1.00  0.00    -0.074 NA 
HETATM   12  C   UNL     1      -7.377  12.005  67.228  1.00  0.00    -0.151 A  
HETATM   13  N   UNL     1      -9.011  14.110  67.527  1.00  0.00    -0.188 NA 
HETATM   14  C   UNL     1      -9.437  12.844  67.336  1.00  0.00    -0.198 A  
HETATM   15  N   UNL     1      -8.682  11.729  67.195  1.00  0.00    -0.162 NA 
BRANCH  11  16
HETATM   16  C   UNL     1      -6.370   9.683  67.185  1.00  0.00    -0.065 C  
HETATM   17  O   UNL     1      -7.622   9.296  67.766  1.00  0.00    -0.084 OA 
HETATM   18  C   UNL     1      -7.410   8.851  69.116  1.00  0.00    -0.072 C  
HETATM   19  H   UNL     1      -4.491   7.067  67.859  1.00  0.00     0.000 HD 
HETATM   20  O   UNL     1      -5.146   7.562  67.381  1.00  0.00    -0.023 OA 
HETATM   21  C   UNL     1      -5.908   8.716  69.339  1.00  0.00    -0.034 C  
HETATM   22  H   UNL     1      -4.685   7.342  70.037  1.00  0.00     0.000 HD 
HETATM   23  C   UNL     1      -5.311   8.882  67.957  1.00  0.00    -0.035 C  
HETATM   24  O   UNL     1      -5.620   7.427  69.898  1.00  0.00    -0.023 OA 
BRANCH  18  25
HETATM   25  C   UNL     1      -8.044   9.799  70.136  1.00  0.00    -0.182 C  
BRANCH  25  26
HETATM   26  O   UNL     1      -8.467   8.986  71.231  1.00  0.00    -0.215 OA 
BRANCH  26  27
HETATM   27  P   UNL     1     -10.033   8.635  71.257  1.00  0.00    -0.301 P  
HETATM   28  O   UNL     1     -10.596  10.149  71.309  1.00  0.00     0.099 OA 
HETATM   29  O   UNL     1     -10.559   7.849  70.093  1.00  0.00    -0.228 OA 
BRANCH  27  30
HETATM   30  O   UNL     1     -10.252   7.904  72.702  1.00  0.00    -0.245 OA 
HETATM   31  P   UNL     1     -10.154   6.178  72.718  1.00  0.00    -0.192 P  
HETATM   32  C   UNL     1     -10.051   4.350  72.735  1.00  0.00    -0.168 C  
HETATM   33  O   UNL     1     -11.698   6.150  72.135  1.00  0.00    -0.309 OA 
HETATM   34  O   UNL     1      -9.193   6.169  71.500  1.00  0.00    -0.146 OA 
HETATM   35 CL   UNL     1     -10.535   3.599  71.140  1.00  0.00     0.410 Cl 
HETATM   36  P   UNL     1      -8.302   3.840  72.916  1.00  0.00    -0.095 P  
HETATM   37 CL   UNL     1     -11.228   3.724  73.937  1.00  0.00    -0.233 Cl 
HETATM   38  O   UNL     1      -8.561   3.543  74.526  1.00  0.00    -0.083 OA 
HETATM   39  O   UNL     1      -7.850   5.389  73.310  1.00  0.00    -0.102 OA 
HETATM   40  O   UNL     1      -6.823   3.409  73.070  1.00  0.00    -0.035 OA 
ENDBRANCH  27  30
ENDBRANCH  26  27
ENDBRANCH  25  26
ENDBRANCH  18  25
ENDBRANCH  11  16
BRANCH  14  41
HETATM   41  S   UNL     1     -11.190  12.551  67.241  1.00  0.00    -0.315 SA 
BRANCH  41  42
HETATM   42  C   UNL     1     -11.531  12.034  68.958  1.00  0.00    -0.300 C  
BRANCH  42  43
HETATM   43  C   UNL     1     -12.820  12.705  69.416  1.00  0.00     1.048 C  
HETATM   44  C   UNL     1     -12.561  13.814  70.411  1.00  0.00    -0.256 C  
HETATM   45  F   UNL     1     -13.107  14.976  69.979  1.00  0.00    -0.244 F  
HETATM   46  F   UNL     1     -11.250  14.037  70.626  1.00  0.00    -0.159 F  
HETATM   47  F   UNL     1     -13.129  13.530  71.604  1.00  0.00    -0.397 F  
ENDBRANCH  42  43
ENDBRANCH  41  42
ENDBRANCH  14  41
ENDBRANCH   5   7
ENDBRANCH   4   5
ENDBRANCH   3   4
ENDBRANCH   2   3
TORSDOF 12
ENDMDL
MODEL      175
REMARK 921   NORMALIZED FREE ENERGY PREDICTED BY IDOCK:   -3.13 KCAL/MOL
REMARK 922        TOTAL FREE ENERGY PREDICTED BY IDOCK:   -6.34 KCAL/MOL
REMARK 923 INTER-LIGAND FREE ENERGY PREDICTED BY IDOCK:   -6.73 KCAL/MOL
REMARK 924 INTRA-LIGAND FREE ENERGY PREDICTED BY IDOCK:    0.39 KCAL/MOL
REMARK 927      BINDING AFFINITY PREDICTED BY RF-SCORE:    0.00 PKD
ROOT
HETATM    1  C   UNL     1      -6.453  20.178  70.800  1.00  0.00    -0.068 C  
HETATM    2  S   UNL     1      -5.132  18.965  71.017  1.00  0.00    -0.277 SA 
ENDROOT
BRANCH   2   3
HETATM    3  C   UNL     1      -5.744  17.647  69.901  1.00  0.00    -0.247 C  
BRANCH   3   4
HETATM    4  C   UNL     1      -6.364  16.468  70.682  1.00  0.00     0.829 C  
BRANCH   4   5
HETATM    5  N   UNL     1      -6.309  15.245  69.900  1.00  0.00    -0.159 NA 
HETATM    6  H   UNL     1      -5.460  14.681  69.908  1.00  0.00     0.000 HD 
BRANCH   5   7
HETATM    7  C   UNL     1      -7.394  14.836  69.144  1.00  0.00    -0.151 A  
HETATM    8  C   UNL     1      -7.300  13.698  68.328  1.00  0.00    -0.119 A  
HETATM    9  N   UNL     1      -6.279  12.790  68.124  1.00  0.00    -0.078 NA 
HETATM   10  C   UNL     1      -6.793  11.878  67.313  1.00  0.00    -0.142 A  
HETATM   11  N   UNL     1      -8.093  12.176  66.961  1.00  0.00    -0.172 NA 
HETATM   12  C   UNL     1      -8.427  13.333  67.605  1.00  0.00    -0.191 A  
HETATM   13  N   UNL     1      -8.577  15.515  69.155  1.00  0.00    -0.230 NA 
HETATM   14  C   UNL     1      -9.582  15.078  68.368  1.00  0.00    -0.212 A  
HETATM   15  N   UNL     1      -9.592  13.981  67.573  1.00  0.00    -0.223 NA 
BRANCH  11  16
HETATM   16  C   UNL     1      -8.956  11.279  66.223  1.00  0.00    -0.197 C  
HETATM   17  O   UNL     1      -9.740  10.551  67.176  1.00  0.00    -0.165 OA 
HETATM   18  C   UNL     1      -9.234   9.211  67.293  1.00  0.00    -0.133 C  
HETATM   19  H   UNL     1      -8.944   9.214  63.660  1.00  0.00     0.000 HD 
HETATM   20  O   UNL     1      -9.307   9.877  64.236  1.00  0.00    -0.266 OA 
HETATM   21  C   UNL     1      -8.218   8.989  66.178  1.00  0.00    -0.115 C  
HETATM   22  H   UNL     1      -7.896   7.636  64.786  1.00  0.00     0.000 HD 
HETATM   23  C   UNL     1      -8.369  10.208  65.291  1.00  0.00    -0.159 C  
HETATM   24  O   UNL     1      -8.529   7.775  65.481  1.00  0.00    -0.142 OA 
BRANCH  18  25
HETATM   25  C   UNL     1      -8.619   8.951  68.670  1.00  0.00    -0.133 C  
BRANCH  25  26
HETATM   26  O   UNL     1      -9.686   8.504  69.508  1.00  0.00    -0.172 OA 
BRANCH  26  27
HETATM   27  P   UNL     1     -10.056   6.949  69.372  1.00  0.00    -0.177 P  
HETATM   28  O   UNL     1     -11.156   6.881  70.554  1.00  0.00    -0.257 OA 
HETATM   29  O   UNL     1     -10.591   6.505  68.042  1.00  0.00    -0.196 OA 
BRANCH  27  30
HETATM   30  O   UNL     1      -8.693   6.174  69.828  1.00  0.00    -0.132 OA 
HETATM   31  P   UNL     1      -8.533   5.817  71.513  1.00  0.00    -0.129 P  
HETATM   32  C   UNL     1      -8.364   5.439  73.296  1.00  0.00    -0.117 C  
HETATM   33  O   UNL     1      -8.070   7.386  71.734  1.00  0.00    -0.100 OA 
HETATM   34  O   UNL     1     -10.072   5.752  71.698  1.00  0.00    -0.184 OA 
HETATM   35 CL   UNL     1      -9.251   6.633  74.359  1.00  0.00    -0.214 Cl 
HETATM   36  P   UNL     1      -9.204   3.855  73.665  1.00  0.00    -0.095 P  
HETATM   37 CL   UNL     1      -6.633   5.587  73.749  1.00  0.00    -0.076 Cl 
HETATM   38  O   UNL     1      -7.738   3.084  73.668  1.00  0.00    -0.058 OA 
HETATM   39  O   UNL     1      -9.346   3.507  72.048  1.00  0.00    -0.108 OA 
HETATM   40  O   UNL     1      -9.914   2.515  73.978  1.00  0.00    -0.093 OA 
ENDBRANCH  27  30
ENDBRANCH  26  27
ENDBRANCH  25  26
ENDBRANCH  18  25
ENDBRANCH  11  16
BRANCH  14  41
HETATM   41  S   UNL     1     -11.090  16.021  68.325  1.00  0.00    -0.343 SA 
BRANCH  41  42
HETATM   42  C   UNL     1     -11.357  16.297  70.109  1.00  0.00    -0.282 C  
BRANCH  42  43
HETATM   43  C   UNL     1     -12.727  15.744  70.482  1.00  0.00    -0.277 C  
HETATM   44  C   UNL     1     -12.625  14.468  71.287  1.00  0.00    -0.345 C  
HETATM   45  F   UNL     1     -13.293  14.592  72.459  1.00  0.00    -0.395 F  
HETATM   46  F   UNL     1     -11.355  14.126  71.578  1.00  0.00    -0.047 F  
HETATM   47  F   UNL     1     -13.185  13.434  70.620  1.00  0.00    -0.189 F  
ENDBRANCH  42  43
ENDBRANCH  41  42
ENDBRANCH  14  41
ENDBRANCH   5   7
ENDBRANCH   4   5
ENDBRANCH   3   4
ENDBRANCH   2   3
TORSDOF 12
ENDMDL
MODEL      176
REMARK 921   NORMALIZED FREE ENERGY PREDICTED BY IDOCK:   -3.13 KCAL/MOL
REMARK 922        TOTAL FREE ENERGY PREDICTED BY IDOCK:   -6.33 KCAL/MOL
REMARK 923 INTER-LIGAND FREE ENERGY PREDICTED BY IDOCK:   -6.71 KCAL/MOL
REMARK 924 INTRA-LIGAND FREE ENERGY PREDICTED BY IDOCK:    0.38 KCAL/MOL
REMARK 927      BINDING AFFINITY PREDICTED BY RF-SCORE:    0.00 PKD
ROOT
HETATM    1  C   UNL     1     -14.029   7.107  71.459  1.00  0.00    -0.312 C  
HETATM    2  S   UNL     1     -12.428   7.134  72.297  1.00  0.00     0.022 SA 
ENDROOT
BRANCH   2   3
HETATM    3  C   UNL     1     -11.493   5.999  71.203  1.00  0.00    -0.176 C  
BRANCH   3   4
HETATM    4  C   UNL     1     -11.784   6.263  69.711  1.00  0.00    -0.087 C  
BRANCH   4   5
HETATM    5  N   UNL     1     -10.682   5.807  68.882  1.00  0.00    -0.271 NA 
HETATM    6  H   UNL     1     -10.819   5.014  68.255  1.00  0.00     0.000 HD 
BRANCH   5   7
HETATM    7  C   UNL     1      -9.449   6.433  68.930  1.00  0.00    -0.128 A  
HETATM    8  C   UNL     1      -9.362   7.833  68.898  1.00  0.00    -0.146 A  
HETATM    9  N   UNL     1     -10.331   8.817  68.863  1.00  0.00    -0.211 NA 
HETATM   10  C   UNL     1      -9.661   9.956  68.934  1.00  0.00    -0.172 A  
HETATM   11  N   UNL     1      -8.298   9.750  68.982  1.00  0.00    -0.120 NA 
HETATM   12  C   UNL     1      -8.097   8.399  68.963  1.00  0.00    -0.116 A  
HETATM   13  N   UNL     1      -8.284   5.725  69.003  1.00  0.00    -0.101 NA 
HETATM   14  C   UNL     1      -7.116   6.400  69.015  1.00  0.00    -0.081 A  
HETATM   15  N   UNL     1      -6.937   7.743  69.015  1.00  0.00    -0.067 NA 
BRANCH  11  16
HETATM   16  C   UNL     1      -7.330  10.797  69.228  1.00  0.00    -0.129 C  
HETATM   17  O   UNL     1      -8.055  11.986  69.566  1.00  0.00     0.565 OA 
HETATM   18  C   UNL     1      -8.048  12.889  68.448  1.00  0.00    -0.130 C  
HETATM   19  H   UNL     1      -4.524  12.046  68.046  1.00  0.00     0.000 HD 
HETATM   20  O   UNL     1      -5.135  11.777  68.723  1.00  0.00    -0.047 OA 
HETATM   21  C   UNL     1      -7.059  12.357  67.416  1.00  0.00    -0.152 C  
HETATM   22  H   UNL     1      -5.544  13.073  66.385  1.00  0.00     0.000 HD 
HETATM   23  C   UNL     1      -6.343  11.232  68.135  1.00  0.00    -0.052 C  
HETATM   24  O   UNL     1      -6.160  13.405  67.028  1.00  0.00    -0.144 OA 
BRANCH  18  25
HETATM   25  C   UNL     1      -9.443  13.066  67.847  1.00  0.00    -0.219 C  
BRANCH  25  26
HETATM   26  O   UNL     1      -9.764  14.452  67.977  1.00  0.00    -0.210 OA 
BRANCH  26  27
HETATM   27  P   UNL     1     -10.644  15.064  66.784  1.00  0.00    -0.311 P  
HETATM   28  O   UNL     1      -9.720  14.572  65.553  1.00  0.00    -0.308 OA 
HETATM   29  O   UNL     1     -12.062  14.584  66.687  1.00  0.00    -0.393 OA 
BRANCH  27  30
HETATM   30  O   UNL     1     -10.506  16.681  66.978  1.00  0.00    -0.305 OA 
HETATM   31  P   UNL     1      -8.940  17.278  67.405  1.00  0.00    -0.227 P  
HETATM   32  C   UNL     1      -7.282  17.909  67.855  1.00  0.00    -0.219 C  
HETATM   33  O   UNL     1      -9.260  16.819  68.958  1.00  0.00    -0.257 OA 
HETATM   34  O   UNL     1      -8.237  16.087  66.700  1.00  0.00    -0.239 OA 
HETATM   35 CL   UNL     1      -6.292  16.691  68.794  1.00  0.00    -0.145 Cl 
HETATM   36  P   UNL     1      -6.292  18.161  66.337  1.00  0.00    -0.251 P  
HETATM   37 CL   UNL     1      -7.486  19.311  68.957  1.00  0.00    -0.390 Cl 
HETATM   38  O   UNL     1      -6.603  19.787  66.411  1.00  0.00    -0.187 OA 
HETATM   39  O   UNL     1      -7.638  17.982  65.381  1.00  0.00    -0.412 OA 
HETATM   40  O   UNL     1      -5.454  18.376  65.052  1.00  0.00    -0.173 OA 
ENDBRANCH  27  30
ENDBRANCH  26  27
ENDBRANCH  25  26
ENDBRANCH  18  25
ENDBRANCH  11  16
BRANCH  14  41
HETATM   41  S   UNL     1      -5.602   5.465  69.023  1.00  0.00    -0.008 SA 
BRANCH  41  42
HETATM   42  C   UNL     1      -5.732   4.642  70.646  1.00  0.00    -0.016 C  
BRANCH  42  43
HETATM   43  C   UNL     1      -6.064   5.696  71.695  1.00  0.00    -0.030 C  
HETATM   44  C   UNL     1      -7.326   5.360  72.459  1.00  0.00    -0.095 C  
HETATM   45  F   UNL     1      -7.080   5.330  73.791  1.00  0.00    -0.076 F  
HETATM   46  F   UNL     1      -7.849   4.166  72.117  1.00  0.00    -0.072 F  
HETATM   47  F   UNL     1      -8.276   6.298  72.253  1.00  0.00    -0.107 F  
ENDBRANCH  42  43
ENDBRANCH  41  42
ENDBRANCH  14  41
ENDBRANCH   5   7
ENDBRANCH   4   5
ENDBRANCH   3   4
ENDBRANCH   2   3
TORSDOF 12
ENDMDL
MODEL      177
REMARK 921   NORMALIZED FREE ENERGY PREDICTED BY IDOCK:   -3.11 KCAL/MOL
REMARK 922        TOTAL FREE ENERGY PREDICTED BY IDOCK:   -6.30 KCAL/MOL
REMARK 923 INTER-LIGAND FREE ENERGY PREDICTED BY IDOCK:   -7.02 KCAL/MOL
REMARK 924 INTRA-LIGAND FREE ENERGY PREDICTED BY IDOCK:    0.72 KCAL/MOL
REMARK 927      BINDING AFFINITY PREDICTED BY RF-SCORE:    0.00 PKD
ROOT
HETATM    1  C   UNL     1     -12.069  15.210  74.424  1.00  0.00    -0.324 C  
HETATM    2  S   UNL     1     -11.865  14.745  72.691  1.00  0.00    -0.001 SA 
ENDROOT
BRANCH   2   3
HETATM    3  C   UNL     1     -13.342  15.566  71.980  1.00  0.00    -0.472 C  
BRANCH   3   4
HETATM    4  C   UNL     1     -13.673  15.039  70.567  1.00  0.00     0.166 C  
BRANCH   4   5
HETATM    5  N   UNL     1     -12.764  13.971  70.189  1.00  0.00    -0.349 NA 
HETATM    6  H   UNL     1     -12.624  13.183  70.820  1.00  0.00     0.000 HD 
BRANCH   5   7
HETATM    7  C   UNL     1     -12.085  14.009  68.983  1.00  0.00    -0.323 A  
HETATM    8  C   UNL     1     -11.698  12.819  68.349  1.00  0.00    -0.339 A  
HETATM    9  N   UNL     1     -11.899  11.492  68.676  1.00  0.00    -0.432 NA 
HETATM   10  C   UNL     1     -11.386  10.811  67.663  1.00  0.00    -0.252 A  
HETATM   11  N   UNL     1     -10.835  11.643  66.710  1.00  0.00    -0.264 NA 
HETATM   12  C   UNL     1     -11.032  12.925  67.137  1.00  0.00    -0.262 A  
HETATM   13  N   UNL     1     -11.762  15.188  68.375  1.00  0.00    -0.333 NA 
HETATM   14  C   UNL     1     -11.071  15.151  67.217  1.00  0.00    -0.332 A  
HETATM   15  N   UNL     1     -10.682  14.056  66.522  1.00  0.00    -0.280 NA 
BRANCH  11  16
HETATM   16  C   UNL     1     -10.353  11.190  65.424  1.00  0.00    -0.271 C  
HETATM   17  O   UNL     1     -10.016   9.803  65.551  1.00  0.00    -0.307 OA 
HETATM   18  C   UNL     1      -8.588   9.657  65.611  1.00  0.00    -0.136 C  
HETATM   19  H   UNL     1      -8.425  12.111  62.921  1.00  0.00     0.000 HD 
HETATM   20  O   UNL     1      -9.186  11.711  63.325  1.00  0.00    -0.192 OA 
HETATM   21  C   UNL     1      -7.960  11.001  65.260  1.00  0.00     0.200 C  
HETATM   22  H   UNL     1      -6.574  11.653  64.024  1.00  0.00     0.000 HD 
HETATM   23  C   UNL     1      -9.123  11.838  64.768  1.00  0.00     0.305 C  
HETATM   24  O   UNL     1      -6.965  10.815  64.243  1.00  0.00     0.165 OA 
BRANCH  18  25
HETATM   25  C   UNL     1      -8.120   9.162  66.980  1.00  0.00    -0.109 C  
BRANCH  25  26
HETATM   26  O   UNL     1      -7.879   7.761  66.840  1.00  0.00    -0.104 OA 
BRANCH  26  27
HETATM   27  P   UNL     1      -6.429   7.371  66.275  1.00  0.00    -0.046 P  
HETATM   28  O   UNL     1      -6.679   7.777  64.730  1.00  0.00    -0.050 OA 
HETATM   29  O   UNL     1      -5.260   8.081  66.890  1.00  0.00    -0.030 OA 
BRANCH  27  30
HETATM   30  O   UNL     1      -6.368   5.745  66.425  1.00  0.00    -0.036 OA 
HETATM   31  P   UNL     1      -7.879   4.905  66.363  1.00  0.00    -0.100 P  
HETATM   32  C   UNL     1      -9.478   4.017  66.298  1.00  0.00    -0.190 C  
HETATM   33  O   UNL     1      -8.110   5.340  67.939  1.00  0.00    -0.099 OA 
HETATM   34  O   UNL     1      -8.515   6.008  65.475  1.00  0.00    -0.145 OA 
HETATM   35 CL   UNL     1     -10.877   5.035  66.890  1.00  0.00    -0.060 Cl 
HETATM   36  P   UNL     1      -9.920   3.685  64.553  1.00  0.00    -0.149 P  
HETATM   37 CL   UNL     1      -9.398   2.615  67.416  1.00  0.00    -0.196 Cl 
HETATM   38  O   UNL     1      -9.399   2.122  64.724  1.00  0.00    -0.136 OA 
HETATM   39  O   UNL     1      -8.395   4.103  64.046  1.00  0.00    -0.091 OA 
HETATM   40  O   UNL     1     -10.294   3.404  63.077  1.00  0.00    -0.151 OA 
ENDBRANCH  27  30
ENDBRANCH  26  27
ENDBRANCH  25  26
ENDBRANCH  18  25
ENDBRANCH  11  16
BRANCH  14  41
HETATM   41  S   UNL     1     -10.582  16.694  66.479  1.00  0.00    -0.139 SA 
BRANCH  41  42
HETATM   42  C   UNL     1      -8.842  16.326  66.070  1.00  0.00    -0.273 C  
BRANCH  42  43
HETATM   43  C   UNL     1      -8.066  17.636  66.041  1.00  0.00    -0.148 C  
HETATM   44  C   UNL     1      -7.252  17.844  67.299  1.00  0.00    -0.184 C  
HETATM   45  F   UNL     1      -5.948  18.044  66.992  1.00  0.00    -0.140 F  
HETATM   46  F   UNL     1      -7.313  16.798  68.146  1.00  0.00    -0.155 F  
HETATM   47  F   UNL     1      -7.674  18.939  67.968  1.00  0.00    -0.261 F  
ENDBRANCH  42  43
ENDBRANCH  41  42
ENDBRANCH  14  41
ENDBRANCH   5   7
ENDBRANCH   4   5
ENDBRANCH   3   4
ENDBRANCH   2   3
TORSDOF 12
ENDMDL
MODEL      178
REMARK 921   NORMALIZED FREE ENERGY PREDICTED BY IDOCK:   -3.05 KCAL/MOL
REMARK 922        TOTAL FREE ENERGY PREDICTED BY IDOCK:   -6.20 KCAL/MOL
REMARK 923 INTER-LIGAND FREE ENERGY PREDICTED BY IDOCK:   -6.70 KCAL/MOL
REMARK 924 INTRA-LIGAND FREE ENERGY PREDICTED BY IDOCK:    0.51 KCAL/MOL
REMARK 927      BINDING AFFINITY PREDICTED BY RF-SCORE:    0.00 PKD
ROOT
HETATM    1  C   UNL     1     -11.351   6.226  70.720  1.00  0.00    -0.332 C  
HETATM    2  S   UNL     1      -9.861   5.321  70.247  1.00  0.00    -0.235 SA 
ENDROOT
BRANCH   2   3
HETATM    3  C   UNL     1     -10.409   4.658  68.628  1.00  0.00     0.196 C  
BRANCH   3   4
HETATM    4  C   UNL     1     -11.084   5.740  67.758  1.00  0.00     0.167 C  
BRANCH   4   5
HETATM    5  N   UNL     1     -10.358   5.929  66.514  1.00  0.00    -0.367 NA 
HETATM    6  H   UNL     1     -10.685   5.466  65.666  1.00  0.00     0.000 HD 
BRANCH   5   7
HETATM    7  C   UNL     1      -9.229   6.727  66.464  1.00  0.00    -0.162 A  
HETATM    8  C   UNL     1      -9.162   7.910  67.217  1.00  0.00    -0.142 A  
HETATM    9  N   UNL     1     -10.044   8.485  68.111  1.00  0.00    -0.193 NA 
HETATM   10  C   UNL     1      -9.408   9.549  68.577  1.00  0.00    -0.137 A  
HETATM   11  N   UNL     1      -8.165   9.701  67.999  1.00  0.00    -0.109 NA 
HETATM   12  C   UNL     1      -7.997   8.659  67.132  1.00  0.00    -0.100 A  
HETATM   13  N   UNL     1      -8.154   6.406  65.686  1.00  0.00    -0.124 NA 
HETATM   14  C   UNL     1      -7.100   7.248  65.661  1.00  0.00    -0.065 A  
HETATM   15  N   UNL     1      -6.935   8.390  66.371  1.00  0.00    -0.073 NA 
BRANCH  11  16
HETATM   16  C   UNL     1      -7.186  10.673  68.432  1.00  0.00    -0.084 C  
HETATM   17  O   UNL     1      -7.859  11.623  69.267  1.00  0.00     0.041 OA 
HETATM   18  C   UNL     1      -8.061  12.847  68.542  1.00  0.00    -0.080 C  
HETATM   19  H   UNL     1      -4.649  12.452  67.321  1.00  0.00     0.000 HD 
HETATM   20  O   UNL     1      -5.128  11.927  67.952  1.00  0.00    -0.047 OA 
HETATM   21  C   UNL     1      -7.260  12.766  67.247  1.00  0.00    -0.082 C  
HETATM   22  H   UNL     1      -5.960  13.898  66.297  1.00  0.00     0.000 HD 
HETATM   23  C   UNL     1      -6.411  11.522  67.412  1.00  0.00    -0.094 C  
HETATM   24  O   UNL     1      -6.459  13.948  67.104  1.00  0.00    -0.188 OA 
BRANCH  18  25
HETATM   25  C   UNL     1      -9.542  13.111  68.267  1.00  0.00    -0.218 C  
BRANCH  25  26
HETATM   26  O   UNL     1      -9.710  14.529  68.301  1.00  0.00    -0.206 OA 
BRANCH  26  27
HETATM   27  P   UNL     1     -10.572  15.144  67.095  1.00  0.00    -0.304 P  
HETATM   28  O   UNL     1      -9.504  14.891  65.909  1.00  0.00    -0.307 OA 
HETATM   29  O   UNL     1     -11.904  14.505  66.835  1.00  0.00    -0.392 OA 
BRANCH  27  30
HETATM   30  O   UNL     1     -10.660  16.738  67.442  1.00  0.00    -0.321 OA 
HETATM   31  P   UNL     1      -9.158  17.570  67.644  1.00  0.00    -0.249 P  
HETATM   32  C   UNL     1      -7.567  18.449  67.857  1.00  0.00    -0.246 C  
HETATM   33  O   UNL     1      -9.088  16.938  69.168  1.00  0.00    -0.213 OA 
HETATM   34  O   UNL     1      -8.425  16.584  66.695  1.00  0.00    -0.208 OA 
HETATM   35 CL   UNL     1      -6.229  17.357  68.459  1.00  0.00    -0.165 Cl 
HETATM   36  P   UNL     1      -6.949  18.996  66.223  1.00  0.00    -0.255 P  
HETATM   37 CL   UNL     1      -7.773  19.700  69.129  1.00  0.00    -0.322 Cl 
HETATM   38  O   UNL     1      -7.496  20.529  66.535  1.00  0.00    -0.253 OA 
HETATM   39  O   UNL     1      -8.410  18.655  65.512  1.00  0.00    -0.179 OA 
HETATM   40  O   UNL     1      -6.426  19.460  64.842  1.00  0.00    -0.362 OA 
ENDBRANCH  27  30
ENDBRANCH  26  27
ENDBRANCH  25  26
ENDBRANCH  18  25
ENDBRANCH  11  16
BRANCH  14  41
HETATM   41  S   UNL     1      -5.741   6.863  64.578  1.00  0.00    -0.032 SA 
BRANCH  41  42
HETATM   42  C   UNL     1      -6.621   5.976  63.248  1.00  0.00    -0.032 C  
BRANCH  42  43
HETATM   43  C   UNL     1      -6.095   4.547  63.192  1.00  0.00    -0.018 C  
HETATM   44  C   UNL     1      -7.169   3.533  63.518  1.00  0.00    -0.050 C  
HETATM   45  F   UNL     1      -7.288   2.630  62.516  1.00  0.00    -0.036 F  
HETATM   46  F   UNL     1      -8.381   4.090  63.710  1.00  0.00    -0.087 F  
HETATM   47  F   UNL     1      -6.854   2.844  64.637  1.00  0.00    -0.036 F  
ENDBRANCH  42  43
ENDBRANCH  41  42
ENDBRANCH  14  41
ENDBRANCH   5   7
ENDBRANCH   4   5
ENDBRANCH   3   4
ENDBRANCH   2   3
TORSDOF 12
ENDMDL
MODEL      179
REMARK 921   NORMALIZED FREE ENERGY PREDICTED BY IDOCK:   -3.02 KCAL/MOL
REMARK 922        TOTAL FREE ENERGY PREDICTED BY IDOCK:   -6.15 KCAL/MOL
REMARK 923 INTER-LIGAND FREE ENERGY PREDICTED BY IDOCK:   -5.92 KCAL/MOL
REMARK 924 INTRA-LIGAND FREE ENERGY PREDICTED BY IDOCK:   -0.23 KCAL/MOL
REMARK 927      BINDING AFFINITY PREDICTED BY RF-SCORE:    0.00 PKD
ROOT
HETATM    1  C   UNL     1     -13.661  14.542  71.384  1.00  0.00    -0.377 C  
HETATM    2  S   UNL     1     -12.308  13.382  71.089  1.00  0.00    -0.155 SA 
ENDROOT
BRANCH   2   3
HETATM    3  C   UNL     1     -13.276  11.846  70.836  1.00  0.00     0.352 C  
BRANCH   3   4
HETATM    4  C   UNL     1     -12.495  10.590  71.279  1.00  0.00    -0.419 C  
BRANCH   4   5
HETATM    5  N   UNL     1     -11.743  10.032  70.168  1.00  0.00    -0.371 NA 
HETATM    6  H   UNL     1     -12.223   9.813  69.295  1.00  0.00     0.000 HD 
BRANCH   5   7
HETATM    7  C   UNL     1     -10.384   9.793  70.278  1.00  0.00    -0.291 A  
HETATM    8  C   UNL     1      -9.893   8.935  71.275  1.00  0.00    -0.291 A  
HETATM    9  N   UNL     1     -10.533   8.176  72.236  1.00  0.00    -0.276 NA 
HETATM   10  C   UNL     1      -9.564   7.502  72.836  1.00  0.00    -0.195 A  
HETATM   11  N   UNL     1      -8.323   7.816  72.322  1.00  0.00    -0.111 NA 
HETATM   12  C   UNL     1      -8.522   8.727  71.324  1.00  0.00    -0.186 A  
HETATM   13  N   UNL     1      -9.479  10.378  69.440  1.00  0.00    -0.209 NA 
HETATM   14  C   UNL     1      -8.168  10.124  69.626  1.00  0.00    -0.165 A  
HETATM   15  N   UNL     1      -7.606   9.295  70.538  1.00  0.00    -0.124 NA 
BRANCH  11  16
HETATM   16  C   UNL     1      -7.105   7.117  72.667  1.00  0.00    -0.068 C  
HETATM   17  O   UNL     1      -6.307   7.025  71.480  1.00  0.00    -0.037 OA 
HETATM   18  C   UNL     1      -6.370   5.688  70.958  1.00  0.00    -0.035 C  
HETATM   19  H   UNL     1      -6.010   4.541  74.399  1.00  0.00     0.000 HD 
HETATM   20  O   UNL     1      -5.984   5.426  74.053  1.00  0.00    -0.048 OA 
HETATM   21  C   UNL     1      -7.052   4.806  71.998  1.00  0.00    -0.062 C  
HETATM   22  H   UNL     1      -6.677   3.088  72.882  1.00  0.00     0.000 HD 
HETATM   23  C   UNL     1      -7.147   5.686  73.227  1.00  0.00    -0.086 C  
HETATM   24  O   UNL     1      -6.253   3.638  72.234  1.00  0.00    -0.012 OA 
BRANCH  18  25
HETATM   25  C   UNL     1      -7.098   5.633  69.614  1.00  0.00    -0.064 C  
BRANCH  25  26
HETATM   26  O   UNL     1      -8.447   5.262  69.903  1.00  0.00    -0.096 OA 
BRANCH  26  27
HETATM   27  P   UNL     1      -9.106   4.224  68.872  1.00  0.00    -0.153 P  
HETATM   28  O   UNL     1      -9.489   3.070  69.936  1.00  0.00    -0.158 OA 
HETATM   29  O   UNL     1     -10.286   4.720  68.089  1.00  0.00    -0.093 OA 
BRANCH  27  30
HETATM   30  O   UNL     1      -7.853   3.737  67.942  1.00  0.00    -0.073 OA 
HETATM   31  P   UNL     1      -8.185   3.495  66.262  1.00  0.00    -0.104 P  
HETATM   32  C   UNL     1      -8.537   3.240  64.484  1.00  0.00    -0.094 C  
HETATM   33  O   UNL     1      -8.838   2.035  66.669  1.00  0.00    -0.120 OA 
HETATM   34  O   UNL     1      -9.330   4.542  66.284  1.00  0.00    -0.131 OA 
HETATM   35 CL   UNL     1     -10.274   2.765  64.168  1.00  0.00    -0.097 Cl 
HETATM   36  P   UNL     1      -8.377   4.833  63.596  1.00  0.00    -0.125 P  
HETATM   37 CL   UNL     1      -7.548   1.860  63.900  1.00  0.00    -0.058 Cl 
HETATM   38  O   UNL     1      -6.877   4.376  63.059  1.00  0.00    -0.036 OA 
HETATM   39  O   UNL     1      -7.654   5.540  64.913  1.00  0.00    -0.072 OA 
HETATM   40  O   UNL     1      -8.241   6.180  62.844  1.00  0.00    -0.105 OA 
ENDBRANCH  27  30
ENDBRANCH  26  27
ENDBRANCH  25  26
ENDBRANCH  18  25
ENDBRANCH  11  16
BRANCH  14  41
HETATM   41  S   UNL     1      -6.992  10.960  68.583  1.00  0.00    -0.079 SA 
BRANCH  41  42
HETATM   42  C   UNL     1      -8.122  11.911  67.511  1.00  0.00    -0.156 C  
BRANCH  42  43
HETATM   43  C   UNL     1      -7.746  13.384  67.601  1.00  0.00    -0.179 C  
HETATM   44  C   UNL     1      -8.810  14.202  68.299  1.00  0.00    -0.187 C  
HETATM   45  F   UNL     1      -8.280  14.873  69.348  1.00  0.00    -0.171 F  
HETATM   46  F   UNL     1      -9.828  13.454  68.767  1.00  0.00    -0.214 F  
HETATM   47  F   UNL     1      -9.332  15.125  67.461  1.00  0.00    -0.191 F  
ENDBRANCH  42  43
ENDBRANCH  41  42
ENDBRANCH  14  41
ENDBRANCH   5   7
ENDBRANCH   4   5
ENDBRANCH   3   4
ENDBRANCH   2   3
TORSDOF 12
ENDMDL
MODEL      180
REMARK 921   NORMALIZED FREE ENERGY PREDICTED BY IDOCK:   -2.97 KCAL/MOL
REMARK 922        TOTAL FREE ENERGY PREDICTED BY IDOCK:   -6.06 KCAL/MOL
REMARK 923 INTER-LIGAND FREE ENERGY PREDICTED BY IDOCK:   -5.47 KCAL/MOL
REMARK 924 INTRA-LIGAND FREE ENERGY PREDICTED BY IDOCK:   -0.60 KCAL/MOL
REMARK 927      BINDING AFFINITY PREDICTED BY RF-SCORE:    0.00 PKD
ROOT
HETATM    1  C   UNL     1      -7.220  11.268  66.003  1.00  0.00     0.138 C  
HETATM    2  S   UNL     1      -7.010   9.978  67.251  1.00  0.00    -0.084 SA 
ENDROOT
BRANCH   2   3
HETATM    3  C   UNL     1      -6.279   8.662  66.207  1.00  0.00    -0.060 C  
BRANCH   3   4
HETATM    4  C   UNL     1      -5.131   7.922  66.927  1.00  0.00    -0.027 C  
BRANCH   4   5
HETATM    5  N   UNL     1      -5.627   6.738  67.607  1.00  0.00    -0.015 NA 
HETATM    6  H   UNL     1      -5.502   5.822  67.177  1.00  0.00     0.000 HD 
BRANCH   5   7
HETATM    7  C   UNL     1      -6.267   6.836  68.830  1.00  0.00    -0.027 A  
HETATM    8  C   UNL     1      -7.669   6.884  68.896  1.00  0.00    -0.110 A  
HETATM    9  N   UNL     1      -8.641   6.809  67.917  1.00  0.00    -0.122 NA 
HETATM   10  C   UNL     1      -9.788   6.821  68.578  1.00  0.00    -0.141 A  
HETATM   11  N   UNL     1      -9.597   6.931  69.939  1.00  0.00    -0.156 NA 
HETATM   12  C   UNL     1      -8.249   6.969  70.153  1.00  0.00    -0.133 A  
HETATM   13  N   UNL     1      -5.573   6.897  70.004  1.00  0.00    -0.022 NA 
HETATM   14  C   UNL     1      -6.262   7.025  71.157  1.00  0.00    -0.037 A  
HETATM   15  N   UNL     1      -7.606   7.051  71.319  1.00  0.00    -0.085 NA 
BRANCH  11  16
HETATM   16  C   UNL     1     -10.656   6.804  70.917  1.00  0.00    -0.220 C  
HETATM   17  O   UNL     1     -11.885   7.162  70.272  1.00  0.00    -0.233 OA 
HETATM   18  C   UNL     1     -12.290   8.473  70.699  1.00  0.00     0.178 C  
HETATM   19  H   UNL     1     -11.350   7.449  74.068  1.00  0.00     0.000 HD 
HETATM   20  O   UNL     1     -11.363   6.941  73.266  1.00  0.00    -0.134 OA 
HETATM   21  C   UNL     1     -11.400   8.887  71.866  1.00  0.00    -0.376 C  
HETATM   22  H   UNL     1     -11.662   9.596  73.682  1.00  0.00     0.000 HD 
HETATM   23  C   UNL     1     -10.636   7.626  72.215  1.00  0.00    -0.246 C  
HETATM   24  O   UNL     1     -12.216   9.339  72.955  1.00  0.00     0.194 OA 
BRANCH  18  25
HETATM   25  C   UNL     1     -12.225   9.491  69.558  1.00  0.00     0.926 C  
BRANCH  25  26
HETATM   26  O   UNL     1     -12.179  10.779  70.172  1.00  0.00    -0.305 OA 
BRANCH  26  27
HETATM   27  P   UNL     1     -11.500  11.933  69.288  1.00  0.00    -0.312 P  
HETATM   28  O   UNL     1     -11.712  13.156  70.323  1.00  0.00    -0.250 OA 
HETATM   29  O   UNL     1     -10.064  11.724  68.907  1.00  0.00    -0.174 OA 
BRANCH  27  30
HETATM   30  O   UNL     1     -12.505  12.099  68.010  1.00  0.00    -0.090 OA 
HETATM   31  P   UNL     1     -11.864  12.906  66.621  1.00  0.00    -0.303 P  
HETATM   32  C   UNL     1     -11.185  13.760  65.152  1.00  0.00    -0.316 C  
HETATM   33  O   UNL     1     -12.143  14.333  67.404  1.00  0.00    -0.400 OA 
HETATM   34  O   UNL     1     -10.418  12.458  66.964  1.00  0.00    -0.219 OA 
HETATM   35 CL   UNL     1      -9.883  14.972  65.577  1.00  0.00    -0.377 Cl 
HETATM   36  P   UNL     1     -10.296  12.554  64.101  1.00  0.00    -0.319 P  
HETATM   37 CL   UNL     1     -12.500  14.717  64.391  1.00  0.00    -0.425 Cl 
HETATM   38  O   UNL     1     -11.604  12.483  63.086  1.00  0.00    -0.419 OA 
HETATM   39  O   UNL     1     -10.934  11.280  64.956  1.00  0.00    -0.248 OA 
HETATM   40  O   UNL     1      -9.546  11.533  63.211  1.00  0.00    -0.338 OA 
ENDBRANCH  27  30
ENDBRANCH  26  27
ENDBRANCH  25  26
ENDBRANCH  18  25
ENDBRANCH  11  16
BRANCH  14  41
HETATM   41  S   UNL     1      -5.344   7.190  72.672  1.00  0.00    -0.037 SA 
BRANCH  41  42
HETATM   42  C   UNL     1      -6.042   5.805  73.633  1.00  0.00    -0.061 C  
BRANCH  42  43
HETATM   43  C   UNL     1      -5.267   4.540  73.288  1.00  0.00    -0.008 C  
HETATM   44  C   UNL     1      -6.097   3.567  72.479  1.00  0.00    -0.009 C  
HETATM   45  F   UNL     1      -5.468   3.254  71.322  1.00  0.00    -0.006 F  
HETATM   46  F   UNL     1      -7.315   4.049  72.162  1.00  0.00    -0.052 F  
HETATM   47  F   UNL     1      -6.278   2.412  73.157  1.00  0.00    -0.007 F  
ENDBRANCH  42  43
ENDBRANCH  41  42
ENDBRANCH  14  41
ENDBRANCH   5   7
ENDBRANCH   4   5
ENDBRANCH   3   4
ENDBRANCH   2   3
TORSDOF 12
ENDMDL
MODEL      181
REMARK 921   NORMALIZED FREE ENERGY PREDICTED BY IDOCK:   -2.94 KCAL/MOL
REMARK 922        TOTAL FREE ENERGY PREDICTED BY IDOCK:   -6.02 KCAL/MOL
REMARK 923 INTER-LIGAND FREE ENERGY PREDICTED BY IDOCK:   -7.13 KCAL/MOL
REMARK 924 INTRA-LIGAND FREE ENERGY PREDICTED BY IDOCK:    1.11 KCAL/MOL
REMARK 927      BINDING AFFINITY PREDICTED BY RF-SCORE:    0.00 PKD
ROOT
HETATM    1  C   UNL     1     -11.224  15.678  70.830  1.00  0.00    -0.367 C  
HETATM    2  S   UNL     1     -11.270  16.322  69.142  1.00  0.00    -0.281 SA 
ENDROOT
BRANCH   2   3
HETATM    3  C   UNL     1     -11.178  14.744  68.213  1.00  0.00    -0.286 C  
BRANCH   3   4
HETATM    4  C   UNL     1      -9.738  14.192  68.150  1.00  0.00    -0.225 C  
BRANCH   4   5
HETATM    5  N   UNL     1      -9.701  12.930  67.430  1.00  0.00    -0.198 NA 
HETATM    6  H   UNL     1      -9.692  12.934  66.411  1.00  0.00     0.000 HD 
BRANCH   5   7
HETATM    7  C   UNL     1      -9.676  11.725  68.109  1.00  0.00    -0.192 A  
HETATM    8  C   UNL     1     -10.585  11.478  69.150  1.00  0.00    -0.136 A  
HETATM    9  N   UNL     1     -11.620  12.230  69.668  1.00  0.00    -0.295 NA 
HETATM   10  C   UNL     1     -12.183  11.451  70.579  1.00  0.00    -0.386 A  
HETATM   11  N   UNL     1     -11.535  10.239  70.691  1.00  0.00    -0.329 NA 
HETATM   12  C   UNL     1     -10.516  10.245  69.782  1.00  0.00    -0.259 A  
HETATM   13  N   UNL     1      -8.776  10.745  67.804  1.00  0.00    -0.129 NA 
HETATM   14  C   UNL     1      -8.789   9.607  68.529  1.00  0.00    -0.124 A  
HETATM   15  N   UNL     1      -9.640   9.271  69.527  1.00  0.00    -0.166 NA 
BRANCH  11  16
HETATM   16  C   UNL     1     -12.025   9.131  71.482  1.00  0.00    -0.352 C  
HETATM   17  O   UNL     1     -11.093   8.916  72.550  1.00  0.00    -0.184 OA 
HETATM   18  C   UNL     1     -10.298   7.753  72.270  1.00  0.00    -0.237 C  
HETATM   19  H   UNL     1     -13.385   6.149  71.183  1.00  0.00     0.000 HD 
HETATM   20  O   UNL     1     -13.256   7.006  71.571  1.00  0.00    -0.375 OA 
HETATM   21  C   UNL     1     -10.912   7.037  71.071  1.00  0.00    -0.251 C  
HETATM   22  H   UNL     1     -11.472   5.202  70.636  1.00  0.00     0.000 HD 
HETATM   23  C   UNL     1     -12.234   7.744  70.855  1.00  0.00    -0.145 C  
HETATM   24  O   UNL     1     -11.090   5.648  71.382  1.00  0.00    -0.239 OA 
BRANCH  18  25
HETATM   25  C   UNL     1      -8.832   8.110  72.017  1.00  0.00    -0.174 C  
BRANCH  25  26
HETATM   26  O   UNL     1      -8.128   7.790  73.218  1.00  0.00    -0.121 OA 
BRANCH  26  27
HETATM   27  P   UNL     1      -7.535   6.301  73.286  1.00  0.00    -0.090 P  
HETATM   28  O   UNL     1      -6.535   6.519  74.537  1.00  0.00    -0.079 OA 
HETATM   29  O   UNL     1      -8.526   5.198  73.509  1.00  0.00    -0.112 OA 
BRANCH  27  30
HETATM   30  O   UNL     1      -6.679   6.150  71.902  1.00  0.00    -0.060 OA 
HETATM   31  P   UNL     1      -6.874   4.671  71.028  1.00  0.00    -0.037 P  
HETATM   32  C   UNL     1      -7.082   3.105  70.104  1.00  0.00    -0.037 C  
HETATM   33  O   UNL     1      -5.829   3.976  72.101  1.00  0.00    -0.008 OA 
HETATM   34  O   UNL     1      -8.311   4.474  71.581  1.00  0.00    -0.099 OA 
HETATM   35 CL   UNL     1      -7.506   1.694  71.188  1.00  0.00    -0.032 Cl 
HETATM   36  P   UNL     1      -8.541   3.233  69.006  1.00  0.00    -0.093 P  
HETATM   37 CL   UNL     1      -5.510   2.675  69.351  1.00  0.00    -0.016 Cl 
HETATM   38  O   UNL     1      -7.539   3.514  67.717  1.00  0.00    -0.068 OA 
HETATM   39  O   UNL     1      -8.630   4.873  69.251  1.00  0.00    -0.086 OA 
HETATM   40  O   UNL     1      -9.774   3.342  68.077  1.00  0.00    -0.144 OA 
ENDBRANCH  27  30
ENDBRANCH  26  27
ENDBRANCH  25  26
ENDBRANCH  18  25
ENDBRANCH  11  16
BRANCH  14  41
HETATM   41  S   UNL     1      -7.555   8.372  68.179  1.00  0.00    -0.099 SA 
BRANCH  41  42
HETATM   42  C   UNL     1      -7.516   8.453  66.357  1.00  0.00    -0.083 C  
BRANCH  42  43
HETATM   43  C   UNL     1      -8.794   7.823  65.819  1.00  0.00    -0.141 C  
HETATM   44  C   UNL     1      -8.674   6.321  65.682  1.00  0.00    -0.114 C  
HETATM   45  F   UNL     1      -9.663   5.703  66.370  1.00  0.00    -0.152 F  
HETATM   46  F   UNL     1      -7.501   5.841  66.137  1.00  0.00    -0.076 F  
HETATM   47  F   UNL     1      -8.797   5.946  64.389  1.00  0.00    -0.044 F  
ENDBRANCH  42  43
ENDBRANCH  41  42
ENDBRANCH  14  41
ENDBRANCH   5   7
ENDBRANCH   4   5
ENDBRANCH   3   4
ENDBRANCH   2   3
TORSDOF 12
ENDMDL
MODEL      182
REMARK 921   NORMALIZED FREE ENERGY PREDICTED BY IDOCK:   -2.89 KCAL/MOL
REMARK 922        TOTAL FREE ENERGY PREDICTED BY IDOCK:   -5.92 KCAL/MOL
REMARK 923 INTER-LIGAND FREE ENERGY PREDICTED BY IDOCK:   -5.85 KCAL/MOL
REMARK 924 INTRA-LIGAND FREE ENERGY PREDICTED BY IDOCK:   -0.07 KCAL/MOL
REMARK 927      BINDING AFFINITY PREDICTED BY RF-SCORE:    0.00 PKD
ROOT
HETATM    1  C   UNL     1      -6.364  20.105  70.271  1.00  0.00    -0.306 C  
HETATM    2  S   UNL     1      -5.133  18.784  70.335  1.00  0.00    -0.230 SA 
ENDROOT
BRANCH   2   3
HETATM    3  C   UNL     1      -5.921  17.578  69.202  1.00  0.00    -0.210 C  
BRANCH   3   4
HETATM    4  C   UNL     1      -6.651  16.455  69.969  1.00  0.00     0.126 C  
BRANCH   4   5
HETATM    5  N   UNL     1      -6.563  15.197  69.249  1.00  0.00    -0.128 NA 
HETATM    6  H   UNL     1      -5.740  14.607  69.367  1.00  0.00     0.000 HD 
BRANCH   5   7
HETATM    7  C   UNL     1      -7.580  14.788  68.404  1.00  0.00    -0.116 A  
HETATM    8  C   UNL     1      -7.493  13.558  67.733  1.00  0.00    -0.166 A  
HETATM    9  N   UNL     1      -6.544  12.555  67.764  1.00  0.00    -0.105 NA 
HETATM   10  C   UNL     1      -7.037  11.598  66.993  1.00  0.00    -0.145 A  
HETATM   11  N   UNL     1      -8.250  11.953  66.443  1.00  0.00    -0.027 NA 
HETATM   12  C   UNL     1      -8.552  13.200  66.911  1.00  0.00    -0.109 A  
HETATM   13  N   UNL     1      -8.688  15.554  68.187  1.00  0.00    -0.163 NA 
HETATM   14  C   UNL     1      -9.625  15.107  67.325  1.00  0.00    -0.209 A  
HETATM   15  N   UNL     1      -9.640  13.929  66.657  1.00  0.00    -0.280 NA 
BRANCH  11  16
HETATM   16  C   UNL     1      -9.096  11.047  65.697  1.00  0.00    -0.206 C  
HETATM   17  O   UNL     1      -9.990  10.424  66.628  1.00  0.00    -0.194 OA 
HETATM   18  C   UNL     1      -9.565   9.074  66.877  1.00  0.00    -0.185 C  
HETATM   19  H   UNL     1      -8.985   8.807  63.288  1.00  0.00     0.000 HD 
HETATM   20  O   UNL     1      -9.358   9.524  63.786  1.00  0.00    -0.145 OA 
HETATM   21  C   UNL     1      -8.475   8.728  65.868  1.00  0.00    -0.143 C  
HETATM   22  H   UNL     1      -8.112   7.267  64.601  1.00  0.00     0.000 HD 
HETATM   23  C   UNL     1      -8.492   9.886  64.891  1.00  0.00    -0.161 C  
HETATM   24  O   UNL     1      -8.791   7.483  65.230  1.00  0.00    -0.009 OA 
BRANCH  18  25
HETATM   25  C   UNL     1      -9.076   8.885  68.314  1.00  0.00    -0.140 C  
BRANCH  25  26
HETATM   26  O   UNL     1     -10.165   8.307  69.035  1.00  0.00    -0.208 OA 
BRANCH  26  27
HETATM   27  P   UNL     1     -10.373   6.732  68.812  1.00  0.00    -0.225 P  
HETATM   28  O   UNL     1     -11.711   6.558  69.702  1.00  0.00    -0.357 OA 
HETATM   29  O   UNL     1     -10.546   6.277  67.393  1.00  0.00    -0.213 OA 
BRANCH  27  30
HETATM   30  O   UNL     1      -9.099   6.050  69.574  1.00  0.00    -0.135 OA 
HETATM   31  P   UNL     1      -8.570   4.516  68.975  1.00  0.00    -0.087 P  
HETATM   32  C   UNL     1      -8.011   2.893  68.341  1.00  0.00    -0.057 C  
HETATM   33  O   UNL     1      -9.817   3.833  69.814  1.00  0.00    -0.176 OA 
HETATM   34  O   UNL     1      -9.087   4.837  67.548  1.00  0.00    -0.111 OA 
HETATM   35 CL   UNL     1      -9.362   1.929  67.574  1.00  0.00    -0.155 Cl 
HETATM   36  P   UNL     1      -6.847   3.148  66.952  1.00  0.00    -0.054 P  
HETATM   37 CL   UNL     1      -7.445   1.903  69.729  1.00  0.00    -0.042 Cl 
HETATM   38  O   UNL     1      -5.574   2.854  67.972  1.00  0.00    -0.017 OA 
HETATM   39  O   UNL     1      -6.715   4.765  67.309  1.00  0.00    -0.052 OA 
HETATM   40  O   UNL     1      -5.861   3.365  65.777  1.00  0.00    -0.018 OA 
ENDBRANCH  27  30
ENDBRANCH  26  27
ENDBRANCH  25  26
ENDBRANCH  18  25
ENDBRANCH  11  16
BRANCH  14  41
HETATM   41  S   UNL     1     -11.023  16.155  66.984  1.00  0.00    -0.036 SA 
BRANCH  41  42
HETATM   42  C   UNL     1     -12.050  15.823  68.455  1.00  0.00     0.149 C  
BRANCH  42  43
HETATM   43  C   UNL     1     -12.447  14.352  68.443  1.00  0.00     0.190 C  
HETATM   44  C   UNL     1     -11.947  13.618  69.668  1.00  0.00    -0.343 C  
HETATM   45  F   UNL     1     -12.976  13.018  70.313  1.00  0.00    -0.090 F  
HETATM   46  F   UNL     1     -11.329  14.425  70.552  1.00  0.00    -0.294 F  
HETATM   47  F   UNL     1     -11.075  12.645  69.322  1.00  0.00    -0.267 F  
ENDBRANCH  42  43
ENDBRANCH  41  42
ENDBRANCH  14  41
ENDBRANCH   5   7
ENDBRANCH   4   5
ENDBRANCH   3   4
ENDBRANCH   2   3
TORSDOF 12
ENDMDL
MODEL      183
REMARK 921   NORMALIZED FREE ENERGY PREDICTED BY IDOCK:   -2.86 KCAL/MOL
REMARK 922        TOTAL FREE ENERGY PREDICTED BY IDOCK:   -5.88 KCAL/MOL
REMARK 923 INTER-LIGAND FREE ENERGY PREDICTED BY IDOCK:   -6.30 KCAL/MOL
REMARK 924 INTRA-LIGAND FREE ENERGY PREDICTED BY IDOCK:    0.42 KCAL/MOL
REMARK 927      BINDING AFFINITY PREDICTED BY RF-SCORE:    0.00 PKD
ROOT
HETATM    1  C   UNL     1     -11.391   2.694  73.744  1.00  0.00    -0.142 C  
HETATM    2  S   UNL     1     -10.028   3.181  72.663  1.00  0.00    -0.158 SA 
ENDROOT
BRANCH   2   3
HETATM    3  C   UNL     1     -10.358   4.980  72.550  1.00  0.00    -0.202 C  
BRANCH   3   4
HETATM    4  C   UNL     1     -10.510   5.630  73.942  1.00  0.00    -0.277 C  
BRANCH   4   5
HETATM    5  N   UNL     1     -10.691   7.066  73.824  1.00  0.00    -0.513 NA 
HETATM    6  H   UNL     1     -11.400   7.532  74.391  1.00  0.00     0.000 HD 
BRANCH   5   7
HETATM    7  C   UNL     1      -9.917   7.812  72.953  1.00  0.00    -0.279 A  
HETATM    8  C   UNL     1     -10.521   8.569  71.937  1.00  0.00    -0.317 A  
HETATM    9  N   UNL     1     -11.845   8.782  71.609  1.00  0.00    -0.307 NA 
HETATM   10  C   UNL     1     -11.812   9.654  70.613  1.00  0.00    -0.256 A  
HETATM   11  N   UNL     1     -10.520   9.988  70.264  1.00  0.00    -0.285 NA 
HETATM   12  C   UNL     1      -9.689   9.304  71.104  1.00  0.00    -0.257 A  
HETATM   13  N   UNL     1      -8.555   7.836  73.040  1.00  0.00    -0.147 NA 
HETATM   14  C   UNL     1      -7.862   8.559  72.137  1.00  0.00    -0.082 A  
HETATM   15  N   UNL     1      -8.356   9.337  71.145  1.00  0.00    -0.315 NA 
BRANCH  11  16
HETATM   16  C   UNL     1     -10.182  11.037  69.327  1.00  0.00    -0.127 C  
HETATM   17  O   UNL     1     -10.863  10.755  68.098  1.00  0.00    -0.199 OA 
HETATM   18  C   UNL     1      -9.928  10.239  67.135  1.00  0.00    -0.197 C  
HETATM   19  H   UNL     1      -7.633  12.832  68.273  1.00  0.00     0.000 HD 
HETATM   20  O   UNL     1      -8.536  12.674  68.524  1.00  0.00    -0.140 OA 
HETATM   21  C   UNL     1      -8.522  10.425  67.695  1.00  0.00    -0.114 C  
HETATM   22  H   UNL     1      -6.820  11.181  67.061  1.00  0.00     0.000 HD 
HETATM   23  C   UNL     1      -8.722  11.292  68.921  1.00  0.00    -0.046 C  
HETATM   24  O   UNL     1      -7.696  11.065  66.713  1.00  0.00    -0.132 OA 
BRANCH  18  25
HETATM   25  C   UNL     1     -10.207   8.774  66.796  1.00  0.00    -0.284 C  
BRANCH  25  26
HETATM   26  O   UNL     1      -9.389   7.997  67.673  1.00  0.00    -0.141 OA 
BRANCH  26  27
HETATM   27  P   UNL     1     -10.003   6.578  68.101  1.00  0.00    -0.160 P  
HETATM   28  O   UNL     1      -9.246   6.430  69.521  1.00  0.00    -0.143 OA 
HETATM   29  O   UNL     1     -11.497   6.505  68.218  1.00  0.00    -0.150 OA 
BRANCH  27  30
HETATM   30  O   UNL     1      -9.373   5.529  67.018  1.00  0.00    -0.114 OA 
HETATM   31  P   UNL     1      -7.816   4.875  67.389  1.00  0.00    -0.095 P  
HETATM   32  C   UNL     1      -6.167   4.184  67.783  1.00  0.00    -0.036 C  
HETATM   33  O   UNL     1      -7.164   6.291  66.844  1.00  0.00    -0.071 OA 
HETATM   34  O   UNL     1      -8.058   5.028  68.914  1.00  0.00    -0.083 OA 
HETATM   35 CL   UNL     1      -5.153   5.311  68.805  1.00  0.00     0.000 Cl 
HETATM   36  P   UNL     1      -6.363   2.716  68.859  1.00  0.00    -0.029 P  
HETATM   37 CL   UNL     1      -5.256   3.976  66.251  1.00  0.00    -0.008 Cl 
HETATM   38  O   UNL     1      -6.133   1.731  67.547  1.00  0.00    -0.019 OA 
HETATM   39  O   UNL     1      -7.997   2.670  68.566  1.00  0.00    -0.054 OA 
HETATM   40  O   UNL     1      -6.528   1.474  69.769  1.00  0.00    -0.024 OA 
ENDBRANCH  27  30
ENDBRANCH  26  27
ENDBRANCH  25  26
ENDBRANCH  18  25
ENDBRANCH  11  16
BRANCH  14  41
HETATM   41  S   UNL     1      -6.084   8.513  72.207  1.00  0.00    -0.072 SA 
BRANCH  41  42
HETATM   42  C   UNL     1      -5.804   6.712  72.299  1.00  0.00    -0.038 C  
BRANCH  42  43
HETATM   43  C   UNL     1      -6.179   6.238  73.697  1.00  0.00    -0.064 C  
HETATM   44  C   UNL     1      -6.738   4.832  73.690  1.00  0.00    -0.068 C  
HETATM   45  F   UNL     1      -6.032   4.036  74.527  1.00  0.00    -0.019 F  
HETATM   46  F   UNL     1      -6.716   4.261  72.470  1.00  0.00    -0.037 F  
HETATM   47  F   UNL     1      -8.019   4.824  74.122  1.00  0.00    -0.096 F  
ENDBRANCH  42  43
ENDBRANCH  41  42
ENDBRANCH  14  41
ENDBRANCH   5   7
ENDBRANCH   4   5
ENDBRANCH   3   4
ENDBRANCH   2   3
TORSDOF 12
ENDMDL
MODEL      184
REMARK 921   NORMALIZED FREE ENERGY PREDICTED BY IDOCK:   -2.76 KCAL/MOL
REMARK 922        TOTAL FREE ENERGY PREDICTED BY IDOCK:   -5.71 KCAL/MOL
REMARK 923 INTER-LIGAND FREE ENERGY PREDICTED BY IDOCK:   -5.61 KCAL/MOL
REMARK 924 INTRA-LIGAND FREE ENERGY PREDICTED BY IDOCK:   -0.10 KCAL/MOL
REMARK 927      BINDING AFFINITY PREDICTED BY RF-SCORE:    0.00 PKD
ROOT
HETATM    1  C   UNL     1     -12.221  13.761  71.333  1.00  0.00    -0.152 C  
HETATM    2  S   UNL     1     -13.193  12.388  71.992  1.00  0.00    -0.277 SA 
ENDROOT
BRANCH   2   3
HETATM    3  C   UNL     1     -12.880  11.139  70.687  1.00  0.00    -0.186 C  
BRANCH   3   4
HETATM    4  C   UNL     1     -11.730  11.561  69.747  1.00  0.00    -0.353 C  
BRANCH   4   5
HETATM    5  N   UNL     1     -11.377  10.477  68.847  1.00  0.00    -0.336 NA 
HETATM    6  H   UNL     1     -12.108  10.007  68.315  1.00  0.00     0.000 HD 
BRANCH   5   7
HETATM    7  C   UNL     1     -10.061  10.073  68.702  1.00  0.00    -0.172 A  
HETATM    8  C   UNL     1      -9.715   9.114  67.737  1.00  0.00    -0.154 A  
HETATM    9  N   UNL     1     -10.466   8.450  66.787  1.00  0.00    -0.298 NA 
HETATM   10  C   UNL     1      -9.589   7.730  66.104  1.00  0.00    -0.034 A  
HETATM   11  N   UNL     1      -8.308   7.879  66.594  1.00  0.00    -0.121 NA 
HETATM   12  C   UNL     1      -8.378   8.762  67.634  1.00  0.00    -0.114 A  
HETATM   13  N   UNL     1      -9.062  10.579  69.483  1.00  0.00    -0.107 NA 
HETATM   14  C   UNL     1      -7.807  10.116  69.308  1.00  0.00    -0.134 A  
HETATM   15  N   UNL     1      -7.377   9.217  68.390  1.00  0.00    -0.077 NA 
BRANCH  11  16
HETATM   16  C   UNL     1      -7.128   7.347  65.947  1.00  0.00    -0.065 C  
HETATM   17  O   UNL     1      -6.163   8.403  65.869  1.00  0.00    -0.050 OA 
HETATM   18  C   UNL     1      -6.101   8.902  64.523  1.00  0.00    -0.066 C  
HETATM   19  H   UNL     1      -6.206   5.423  63.442  1.00  0.00     0.000 HD 
HETATM   20  O   UNL     1      -6.161   5.779  64.321  1.00  0.00    -0.025 OA 
HETATM   21  C   UNL     1      -6.895   7.954  63.630  1.00  0.00    -0.074 C  
HETATM   22  H   UNL     1      -6.592   6.991  61.942  1.00  0.00     0.000 HD 
HETATM   23  C   UNL     1      -7.200   6.770  64.525  1.00  0.00    -0.072 C  
HETATM   24  O   UNL     1      -6.098   7.581  62.498  1.00  0.00    -0.057 OA 
BRANCH  18  25
HETATM   25  C   UNL     1      -6.623  10.336  64.420  1.00  0.00    -0.076 C  
BRANCH  25  26
HETATM   26  O   UNL     1      -8.014  10.281  64.739  1.00  0.00    -0.151 OA 
BRANCH  26  27
HETATM   27  P   UNL     1      -9.009  10.511  63.501  1.00  0.00    -0.244 P  
HETATM   28  O   UNL     1      -8.069   9.884  62.345  1.00  0.00    -0.119 OA 
HETATM   29  O   UNL     1     -10.352   9.848  63.593  1.00  0.00     0.767 OA 
BRANCH  27  30
HETATM   30  O   UNL     1      -9.083  12.135  63.347  1.00  0.00     0.075 OA 
HETATM   31  P   UNL     1     -10.276  12.950  64.297  1.00  0.00    -0.068 P  
HETATM   32  C   UNL     1     -11.540  13.810  65.304  1.00  0.00    -0.321 C  
HETATM   33  O   UNL     1     -11.391  12.493  63.169  1.00  0.00    -0.401 OA 
HETATM   34  O   UNL     1     -10.235  11.846  65.387  1.00  0.00    -0.246 OA 
HETATM   35 CL   UNL     1     -12.995  12.763  65.660  1.00  0.00     0.228 Cl 
HETATM   36  P   UNL     1     -10.862  14.154  66.969  1.00  0.00    -0.305 P  
HETATM   37 CL   UNL     1     -12.170  15.201  64.359  1.00  0.00    -0.394 Cl 
HETATM   38  O   UNL     1     -10.578  15.725  66.523  1.00  0.00    -0.306 OA 
HETATM   39  O   UNL     1      -9.327  13.769  66.467  1.00  0.00    -0.269 OA 
HETATM   40  O   UNL     1     -10.289  14.446  68.378  1.00  0.00    -0.231 OA 
ENDBRANCH  27  30
ENDBRANCH  26  27
ENDBRANCH  25  26
ENDBRANCH  18  25
ENDBRANCH  11  16
BRANCH  14  41
HETATM   41  S   UNL     1      -6.529  10.718  70.390  1.00  0.00     0.025 SA 
BRANCH  41  42
HETATM   42  C   UNL     1      -5.945  12.161  69.438  1.00  0.00    -0.095 C  
BRANCH  42  43
HETATM   43  C   UNL     1      -6.192  13.416  70.267  1.00  0.00    -0.034 C  
HETATM   44  C   UNL     1      -6.576  14.599  69.406  1.00  0.00    -0.138 C  
HETATM   45  F   UNL     1      -7.757  15.120  69.817  1.00  0.00    -0.203 F  
HETATM   46  F   UNL     1      -6.702  14.286  68.102  1.00  0.00    -0.084 F  
HETATM   47  F   UNL     1      -5.655  15.583  69.504  1.00  0.00    -0.101 F  
ENDBRANCH  42  43
ENDBRANCH  41  42
ENDBRANCH  14  41
ENDBRANCH   5   7
ENDBRANCH   4   5
ENDBRANCH   3   4
ENDBRANCH   2   3
TORSDOF 12
ENDMDL
MODEL      185
REMARK 921   NORMALIZED FREE ENERGY PREDICTED BY IDOCK:   -2.74 KCAL/MOL
REMARK 922        TOTAL FREE ENERGY PREDICTED BY IDOCK:   -5.67 KCAL/MOL
REMARK 923 INTER-LIGAND FREE ENERGY PREDICTED BY IDOCK:   -6.68 KCAL/MOL
REMARK 924 INTRA-LIGAND FREE ENERGY PREDICTED BY IDOCK:    1.02 KCAL/MOL
REMARK 927      BINDING AFFINITY PREDICTED BY RF-SCORE:    0.00 PKD
ROOT
HETATM    1  C   UNL     1      -7.000   7.051  73.789  1.00  0.00    -0.069 C  
HETATM    2  S   UNL     1      -6.160   7.886  72.424  1.00  0.00    -0.046 SA 
ENDROOT
BRANCH   2   3
HETATM    3  C   UNL     1      -6.237   6.559  71.162  1.00  0.00    -0.040 C  
BRANCH   3   4
HETATM    4  C   UNL     1      -5.174   6.748  70.059  1.00  0.00    -0.015 C  
BRANCH   4   5
HETATM    5  N   UNL     1      -5.775   6.637  68.741  1.00  0.00    -0.016 NA 
HETATM    6  H   UNL     1      -5.334   6.047  68.036  1.00  0.00     0.000 HD 
BRANCH   5   7
HETATM    7  C   UNL     1      -6.937   7.321  68.428  1.00  0.00    -0.079 A  
HETATM    8  C   UNL     1      -7.079   8.673  68.776  1.00  0.00    -0.064 A  
HETATM    9  N   UNL     1      -6.218   9.565  69.384  1.00  0.00    -0.040 NA 
HETATM   10  C   UNL     1      -6.863  10.721  69.373  1.00  0.00    -0.109 A  
HETATM   11  N   UNL     1      -8.116  10.606  68.810  1.00  0.00    -0.130 NA 
HETATM   12  C   UNL     1      -8.263   9.304  68.423  1.00  0.00    -0.115 A  
HETATM   13  N   UNL     1      -7.979   6.716  67.786  1.00  0.00    -0.111 NA 
HETATM   14  C   UNL     1      -9.094   7.435  67.543  1.00  0.00    -0.125 A  
HETATM   15  N   UNL     1      -9.310   8.744  67.815  1.00  0.00    -0.140 NA 
BRANCH  11  16
HETATM   16  C   UNL     1      -8.976  11.731  68.515  1.00  0.00    -0.132 C  
HETATM   17  O   UNL     1     -10.074  11.690  69.435  1.00  0.00     0.086 OA 
HETATM   18  C   UNL     1     -11.252  11.216  68.760  1.00  0.00    -0.253 C  
HETATM   19  H   UNL     1     -10.292  13.381  65.989  1.00  0.00     0.000 HD 
HETATM   20  O   UNL     1      -9.891  13.284  66.845  1.00  0.00    -0.235 OA 
HETATM   21  C   UNL     1     -10.957  11.178  67.265  1.00  0.00    -0.296 C  
HETATM   22  H   UNL     1     -11.818  11.834  65.621  1.00  0.00     0.000 HD 
HETATM   23  C   UNL     1      -9.625  11.888  67.131  1.00  0.00    -0.186 C  
HETATM   24  O   UNL     1     -12.001  11.857  66.553  1.00  0.00    -0.588 OA 
BRANCH  18  25
HETATM   25  C   UNL     1     -11.695   9.847  69.278  1.00  0.00     0.185 C  
BRANCH  25  26
HETATM   26  O   UNL     1     -12.012  10.023  70.659  1.00  0.00    -0.285 OA 
BRANCH  26  27
HETATM   27  P   UNL     1     -12.160   8.667  71.505  1.00  0.00    -0.347 P  
HETATM   28  O   UNL     1     -12.856   9.302  72.818  1.00  0.00    -0.276 OA 
HETATM   29  O   UNL     1     -12.972   7.575  70.876  1.00  0.00    -0.163 OA 
BRANCH  27  30
HETATM   30  O   UNL     1     -10.619   8.237  71.839  1.00  0.00    -0.241 OA 
HETATM   31  P   UNL     1     -10.350   6.577  72.243  1.00  0.00    -0.199 P  
HETATM   32  C   UNL     1     -10.066   4.820  72.669  1.00  0.00    -0.176 C  
HETATM   33  O   UNL     1     -10.896   6.926  73.761  1.00  0.00    -0.289 OA 
HETATM   34  O   UNL     1     -11.570   6.121  71.399  1.00  0.00    -0.289 OA 
HETATM   35 CL   UNL     1     -11.524   4.035  73.444  1.00  0.00    -0.286 Cl 
HETATM   36  P   UNL     1      -9.841   3.848  71.134  1.00  0.00    -0.021 P  
HETATM   37 CL   UNL     1      -8.764   4.737  73.904  1.00  0.00    -0.105 Cl 
HETATM   38  O   UNL     1      -8.201   3.862  71.372  1.00  0.00    -0.067 OA 
HETATM   39  O   UNL     1      -9.688   5.234  70.232  1.00  0.00    -0.168 OA 
HETATM   40  O   UNL     1      -9.651   3.026  69.836  1.00  0.00    -0.147 OA 
ENDBRANCH  27  30
ENDBRANCH  26  27
ENDBRANCH  25  26
ENDBRANCH  18  25
ENDBRANCH  11  16
BRANCH  14  41
HETATM   41  S   UNL     1     -10.477   6.612  66.783  1.00  0.00    -0.197 SA 
BRANCH  41  42
HETATM   42  C   UNL     1      -9.740   4.979  66.438  1.00  0.00    -0.182 C  
BRANCH  42  43
HETATM   43  C   UNL     1     -10.653   4.232  65.474  1.00  0.00    -0.126 C  
HETATM   44  C   UNL     1      -9.912   3.750  64.246  1.00  0.00    -0.196 C  
HETATM   45  F   UNL     1     -10.064   2.413  64.095  1.00  0.00    -0.147 F  
HETATM   46  F   UNL     1      -8.590   4.006  64.292  1.00  0.00    -0.098 F  
HETATM   47  F   UNL     1     -10.403   4.334  63.130  1.00  0.00    -0.163 F  
ENDBRANCH  42  43
ENDBRANCH  41  42
ENDBRANCH  14  41
ENDBRANCH   5   7
ENDBRANCH   4   5
ENDBRANCH   3   4
ENDBRANCH   2   3
TORSDOF 12
ENDMDL
MODEL      186
REMARK 921   NORMALIZED FREE ENERGY PREDICTED BY IDOCK:   -2.55 KCAL/MOL
REMARK 922        TOTAL FREE ENERGY PREDICTED BY IDOCK:   -5.35 KCAL/MOL
REMARK 923 INTER-LIGAND FREE ENERGY PREDICTED BY IDOCK:   -7.51 KCAL/MOL
REMARK 924 INTRA-LIGAND FREE ENERGY PREDICTED BY IDOCK:    2.16 KCAL/MOL
REMARK 927      BINDING AFFINITY PREDICTED BY RF-SCORE:    0.00 PKD
ROOT
HETATM    1  C   UNL     1     -10.259  11.489  63.894  1.00  0.00    -0.362 C  
HETATM    2  S   UNL     1      -9.620  10.173  62.834  1.00  0.00    -0.031 SA 
ENDROOT
BRANCH   2   3
HETATM    3  C   UNL     1      -8.017  10.921  62.354  1.00  0.00    -0.148 C  
BRANCH   3   4
HETATM    4  C   UNL     1      -6.829   9.978  62.641  1.00  0.00    -0.123 C  
BRANCH   4   5
HETATM    5  N   UNL     1      -7.299   8.678  63.085  1.00  0.00    -0.099 NA 
HETATM    6  H   UNL     1      -7.482   7.947  62.398  1.00  0.00     0.000 HD 
BRANCH   5   7
HETATM    7  C   UNL     1      -7.501   8.416  64.429  1.00  0.00    -0.104 A  
HETATM    8  C   UNL     1      -7.046   9.317  65.404  1.00  0.00    -0.086 A  
HETATM    9  N   UNL     1      -6.414  10.541  65.305  1.00  0.00    -0.104 NA 
HETATM   10  C   UNL     1      -6.307  10.969  66.553  1.00  0.00    -0.132 A  
HETATM   11  N   UNL     1      -6.816  10.058  67.456  1.00  0.00    -0.080 NA 
HETATM   12  C   UNL     1      -7.292   9.002  66.733  1.00  0.00    -0.086 A  
HETATM   13  N   UNL     1      -8.136   7.285  64.855  1.00  0.00    -0.126 NA 
HETATM   14  C   UNL     1      -8.271   7.079  66.181  1.00  0.00    -0.125 A  
HETATM   15  N   UNL     1      -7.890   7.900  67.188  1.00  0.00    -0.107 NA 
BRANCH  11  16
HETATM   16  C   UNL     1      -6.983  10.326  68.867  1.00  0.00    -0.065 C  
HETATM   17  O   UNL     1      -8.116  11.190  69.013  1.00  0.00    -0.139 OA 
HETATM   18  C   UNL     1      -7.671  12.528  69.292  1.00  0.00     0.446 C  
HETATM   19  H   UNL     1      -5.260  11.035  71.581  1.00  0.00     0.000 HD 
HETATM   20  O   UNL     1      -5.950  10.619  71.078  1.00  0.00    -0.291 OA 
HETATM   21  C   UNL     1      -6.175  12.478  69.581  1.00  0.00    -0.126 C  
HETATM   22  H   UNL     1      -4.969  13.137  70.989  1.00  0.00     0.000 HD 
HETATM   23  C   UNL     1      -5.866  10.999  69.681  1.00  0.00    -0.062 C  
HETATM   24  O   UNL     1      -5.901  13.168  70.808  1.00  0.00    -0.183 OA 
BRANCH  18  25
HETATM   25  C   UNL     1      -7.987  13.487  68.142  1.00  0.00    -0.149 C  
BRANCH  25  26
HETATM   26  O   UNL     1      -9.290  14.010  68.402  1.00  0.00    -0.207 OA 
BRANCH  26  27
HETATM   27  P   UNL     1      -9.885  14.963  67.257  1.00  0.00    -0.234 P  
HETATM   28  O   UNL     1     -10.483  13.808  66.297  1.00  0.00    -0.282 OA 
HETATM   29  O   UNL     1     -10.916  15.963  67.690  1.00  0.00    -0.322 OA 
BRANCH  27  30
HETATM   30  O   UNL     1      -8.562  15.633  66.571  1.00  0.00    -0.264 OA 
HETATM   31  P   UNL     1      -8.332  17.328  66.827  1.00  0.00    -0.286 P  
HETATM   32  C   UNL     1      -8.090  19.122  67.099  1.00  0.00    -0.261 C  
HETATM   33  O   UNL     1      -9.447  17.592  65.639  1.00  0.00    -0.498 OA 
HETATM   34  O   UNL     1      -9.092  17.280  68.179  1.00  0.00    -0.242 OA 
HETATM   35 CL   UNL     1      -9.664  20.020  67.345  1.00  0.00    -0.519 Cl 
HETATM   36  P   UNL     1      -7.213  19.386  68.684  1.00  0.00    -0.355 P  
HETATM   37 CL   UNL     1      -7.362  19.829  65.618  1.00  0.00    -0.321 Cl 
HETATM   38  O   UNL     1      -5.798  19.624  67.855  1.00  0.00    -0.200 OA 
HETATM   39  O   UNL     1      -6.840  17.772  68.792  1.00  0.00    -0.227 OA 
HETATM   40  O   UNL     1      -6.471  19.610  70.024  1.00  0.00    -0.306 OA 
ENDBRANCH  27  30
ENDBRANCH  26  27
ENDBRANCH  25  26
ENDBRANCH  18  25
ENDBRANCH  11  16
BRANCH  14  41
HETATM   41  S   UNL     1      -9.022   5.561  66.726  1.00  0.00    -0.116 SA 
BRANCH  41  42
HETATM   42  C   UNL     1      -7.673   4.382  66.378  1.00  0.00    -0.094 C  
BRANCH  42  43
HETATM   43  C   UNL     1      -8.197   3.320  65.419  1.00  0.00    -0.094 C  
HETATM   44  C   UNL     1      -8.548   3.898  64.066  1.00  0.00    -0.098 C  
HETATM   45  F   UNL     1      -7.880   3.245  63.085  1.00  0.00    -0.063 F  
HETATM   46  F   UNL     1      -8.251   5.207  63.957  1.00  0.00    -0.104 F  
HETATM   47  F   UNL     1      -9.867   3.754  63.810  1.00  0.00    -0.135 F  
ENDBRANCH  42  43
ENDBRANCH  41  42
ENDBRANCH  14  41
ENDBRANCH   5   7
ENDBRANCH   4   5
ENDBRANCH   3   4
ENDBRANCH   2   3
TORSDOF 12
ENDMDL
MODEL      187
REMARK 921   NORMALIZED FREE ENERGY PREDICTED BY IDOCK:   -2.47 KCAL/MOL
REMARK 922        TOTAL FREE ENERGY PREDICTED BY IDOCK:   -5.22 KCAL/MOL
REMARK 923 INTER-LIGAND FREE ENERGY PREDICTED BY IDOCK:   -4.90 KCAL/MOL
REMARK 924 INTRA-LIGAND FREE ENERGY PREDICTED BY IDOCK:   -0.32 KCAL/MOL
REMARK 927      BINDING AFFINITY PREDICTED BY RF-SCORE:    0.00 PKD
ROOT
HETATM    1  C   UNL     1     -13.903  13.640  71.795  1.00  0.00    -0.278 C  
HETATM    2  S   UNL     1     -12.544  12.468  71.586  1.00  0.00     0.029 SA 
ENDROOT
BRANCH   2   3
HETATM    3  C   UNL     1     -13.498  10.978  71.108  1.00  0.00     0.292 C  
BRANCH   3   4
HETATM    4  C   UNL     1     -12.783   9.674  71.524  1.00  0.00    -0.387 C  
BRANCH   4   5
HETATM    5  N   UNL     1     -11.915   9.200  70.460  1.00  0.00    -0.472 NA 
HETATM    6  H   UNL     1     -12.290   9.084  69.520  1.00  0.00     0.000 HD 
BRANCH   5   7
HETATM    7  C   UNL     1     -10.586   8.904  70.706  1.00  0.00    -0.226 A  
HETATM    8  C   UNL     1     -10.239   7.928  71.653  1.00  0.00    -0.192 A  
HETATM    9  N   UNL     1     -11.008   7.093  72.440  1.00  0.00    -0.239 NA 
HETATM   10  C   UNL     1     -10.135   6.325  73.073  1.00  0.00    -0.184 A  
HETATM   11  N   UNL     1      -8.834   6.650  72.751  1.00  0.00    -0.123 NA 
HETATM   12  C   UNL     1      -8.890   7.670  71.844  1.00  0.00    -0.116 A  
HETATM   13  N   UNL     1      -9.572   9.545  70.053  1.00  0.00    -0.222 NA 
HETATM   14  C   UNL     1      -8.299   9.228  70.366  1.00  0.00    -0.199 A  
HETATM   15  N   UNL     1      -7.872   8.287  71.241  1.00  0.00    -0.092 NA 
BRANCH  11  16
HETATM   16  C   UNL     1      -7.682   5.877  73.160  1.00  0.00    -0.102 C  
HETATM   17  O   UNL     1      -6.629   6.139  72.224  1.00  0.00    -0.060 OA 
HETATM   18  C   UNL     1      -6.479   5.017  71.339  1.00  0.00    -0.031 C  
HETATM   19  H   UNL     1      -6.840   2.900  74.284  1.00  0.00     0.000 HD 
HETATM   20  O   UNL     1      -6.796   3.847  74.225  1.00  0.00    -0.050 OA 
HETATM   21  C   UNL     1      -7.319   3.868  71.886  1.00  0.00    -0.059 C  
HETATM   22  H   UNL     1      -7.041   1.964  72.299  1.00  0.00     0.000 HD 
HETATM   23  C   UNL     1      -7.753   4.345  73.256  1.00  0.00    -0.086 C  
HETATM   24  O   UNL     1      -6.518   2.680  71.959  1.00  0.00    -0.014 OA 
BRANCH  18  25
HETATM   25  C   UNL     1      -6.875   5.365  69.903  1.00  0.00    -0.059 C  
BRANCH  25  26
HETATM   26  O   UNL     1      -7.469   4.188  69.354  1.00  0.00    -0.053 OA 
BRANCH  26  27
HETATM   27  P   UNL     1      -7.204   3.956  67.789  1.00  0.00    -0.063 P  
HETATM   28  O   UNL     1      -6.399   2.559  67.907  1.00  0.00    -0.028 OA 
HETATM   29  O   UNL     1      -8.419   3.864  66.913  1.00  0.00    -0.102 OA 
BRANCH  27  30
HETATM   30  O   UNL     1      -6.181   5.161  67.375  1.00  0.00    -0.032 OA 
HETATM   31  P   UNL     1      -6.627   6.118  66.005  1.00  0.00    -0.050 P  
HETATM   32  C   UNL     1      -7.099   7.130  64.556  1.00  0.00    -0.058 C  
HETATM   33  O   UNL     1      -6.052   4.900  65.050  1.00  0.00    -0.028 OA 
HETATM   34  O   UNL     1      -8.137   5.852  66.245  1.00  0.00    -0.101 OA 
HETATM   35 CL   UNL     1      -8.112   6.206  63.346  1.00  0.00    -0.102 Cl 
HETATM   36  P   UNL     1      -8.221   8.474  65.090  1.00  0.00    -0.154 P  
HETATM   37 CL   UNL     1      -5.606   7.595  63.674  1.00  0.00    -0.044 Cl 
HETATM   38  O   UNL     1      -6.954   9.541  65.048  1.00  0.00    -0.093 OA 
HETATM   39  O   UNL     1      -7.876   8.181  66.688  1.00  0.00    -0.092 OA 
HETATM   40  O   UNL     1      -9.170   9.612  65.542  1.00  0.00    -0.198 OA 
ENDBRANCH  27  30
ENDBRANCH  26  27
ENDBRANCH  25  26
ENDBRANCH  18  25
ENDBRANCH  11  16
BRANCH  14  41
HETATM   41  S   UNL     1      -6.987  10.130  69.571  1.00  0.00    -0.102 SA 
BRANCH  41  42
HETATM   42  C   UNL     1      -7.954  11.204  68.456  1.00  0.00    -0.143 C  
BRANCH  42  43
HETATM   43  C   UNL     1      -7.576  12.653  68.735  1.00  0.00    -0.022 C  
HETATM   44  C   UNL     1      -6.546  13.170  67.754  1.00  0.00    -0.151 C  
HETATM   45  F   UNL     1      -6.996  14.291  67.142  1.00  0.00    -0.191 F  
HETATM   46  F   UNL     1      -6.237  12.278  66.793  1.00  0.00    -0.150 F  
HETATM   47  F   UNL     1      -5.400  13.500  68.392  1.00  0.00    -0.072 F  
ENDBRANCH  42  43
ENDBRANCH  41  42
ENDBRANCH  14  41
ENDBRANCH   5   7
ENDBRANCH   4   5
ENDBRANCH   3   4
ENDBRANCH   2   3
TORSDOF 12
ENDMDL
MODEL      188
REMARK 921   NORMALIZED FREE ENERGY PREDICTED BY IDOCK:   -2.44 KCAL/MOL
REMARK 922        TOTAL FREE ENERGY PREDICTED BY IDOCK:   -5.16 KCAL/MOL
REMARK 923 INTER-LIGAND FREE ENERGY PREDICTED BY IDOCK:   -5.14 KCAL/MOL
REMARK 924 INTRA-LIGAND FREE ENERGY PREDICTED BY IDOCK:   -0.01 KCAL/MOL
REMARK 927      BINDING AFFINITY PREDICTED BY RF-SCORE:    0.00 PKD
ROOT
HETATM    1  C   UNL     1     -10.198  20.257  67.559  1.00  0.00    -0.346 C  
HETATM    2  S   UNL     1      -9.517  19.770  69.160  1.00  0.00    -0.004 SA 
ENDROOT
BRANCH   2   3
HETATM    3  C   UNL     1      -9.765  17.957  69.058  1.00  0.00    -0.192 C  
BRANCH   3   4
HETATM    4  C   UNL     1     -10.586  17.555  67.814  1.00  0.00    -0.375 C  
BRANCH   4   5
HETATM    5  N   UNL     1      -9.720  17.030  66.773  1.00  0.00    -0.258 NA 
HETATM    6  H   UNL     1      -9.645  17.525  65.885  1.00  0.00     0.000 HD 
BRANCH   5   7
HETATM    7  C   UNL     1      -8.997  15.866  66.969  1.00  0.00    -0.217 A  
HETATM    8  C   UNL     1      -9.652  14.627  67.043  1.00  0.00    -0.240 A  
HETATM    9  N   UNL     1     -10.982  14.278  66.913  1.00  0.00    -0.299 NA 
HETATM   10  C   UNL     1     -10.995  12.956  66.991  1.00  0.00    -0.262 A  
HETATM   11  N   UNL     1      -9.732  12.440  67.196  1.00  0.00    -0.204 NA 
HETATM   12  C   UNL     1      -8.868  13.497  67.228  1.00  0.00    -0.224 A  
HETATM   13  N   UNL     1      -7.639  15.877  67.103  1.00  0.00    -0.199 NA 
HETATM   14  C   UNL     1      -7.001  14.708  67.324  1.00  0.00     0.053 A  
HETATM   15  N   UNL     1      -7.544  13.469  67.384  1.00  0.00    -0.157 NA 
BRANCH  11  16
HETATM   16  C   UNL     1      -9.420  11.028  67.157  1.00  0.00    -0.164 C  
HETATM   17  O   UNL     1     -10.542  10.321  67.699  1.00  0.00    -0.223 OA 
HETATM   18  C   UNL     1     -10.233   9.872  69.028  1.00  0.00    -0.200 C  
HETATM   19  H   UNL     1      -6.966   8.911  67.730  1.00  0.00     0.000 HD 
HETATM   20  O   UNL     1      -7.720   9.257  67.267  1.00  0.00    -0.094 OA 
HETATM   21  C   UNL     1      -8.744  10.092  69.268  1.00  0.00    -0.177 C  
HETATM   22  H   UNL     1      -7.226   9.019  69.915  1.00  0.00     0.000 HD 
HETATM   23  C   UNL     1      -8.200  10.468  67.905  1.00  0.00    -0.107 C  
HETATM   24  O   UNL     1      -8.154   8.883  69.766  1.00  0.00    -0.100 OA 
BRANCH  18  25
HETATM   25  C   UNL     1     -11.081  10.585  70.084  1.00  0.00    -0.298 C  
BRANCH  25  26
HETATM   26  O   UNL     1     -12.380   9.996  70.021  1.00  0.00    -0.084 OA 
BRANCH  26  27
HETATM   27  P   UNL     1     -12.821   9.171  71.325  1.00  0.00    -0.163 P  
HETATM   28  O   UNL     1     -13.803  10.283  71.966  1.00  0.00    -0.160 OA 
HETATM   29  O   UNL     1     -13.498   7.855  71.083  1.00  0.00    -0.188 OA 
BRANCH  27  30
HETATM   30  O   UNL     1     -11.450   9.058  72.205  1.00  0.00    -0.323 OA 
HETATM   31  P   UNL     1     -10.854   7.462  72.506  1.00  0.00    -0.340 P  
HETATM   32  C   UNL     1     -10.223   5.774  72.824  1.00  0.00    -0.185 C  
HETATM   33  O   UNL     1     -11.985   7.336  73.702  1.00  0.00     0.904 OA 
HETATM   34  O   UNL     1     -11.491   6.921  71.199  1.00  0.00    -0.272 OA 
HETATM   35 CL   UNL     1     -11.551   4.517  72.856  1.00  0.00    -0.133 Cl 
HETATM   36  P   UNL     1      -9.182   5.236  71.418  1.00  0.00    -0.151 P  
HETATM   37 CL   UNL     1      -9.490   5.738  74.463  1.00  0.00    -0.148 Cl 
HETATM   38  O   UNL     1      -7.822   5.588  72.298  1.00  0.00    -0.100 OA 
HETATM   39  O   UNL     1      -9.143   6.780  70.806  1.00  0.00    -0.150 OA 
HETATM   40  O   UNL     1      -8.300   4.782  70.229  1.00  0.00    -0.078 OA 
ENDBRANCH  27  30
ENDBRANCH  26  27
ENDBRANCH  25  26
ENDBRANCH  18  25
ENDBRANCH  11  16
BRANCH  14  41
HETATM   41  S   UNL     1      -5.241  14.745  67.584  1.00  0.00     0.187 SA 
BRANCH  41  42
HETATM   42  C   UNL     1      -5.141  14.037  69.263  1.00  0.00    -0.078 C  
BRANCH  42  43
HETATM   43  C   UNL     1      -5.644  15.077  70.255  1.00  0.00    -0.131 C  
HETATM   44  C   UNL     1      -5.906  14.481  71.621  1.00  0.00     0.017 C  
HETATM   45  F   UNL     1      -5.207  15.146  72.571  1.00  0.00    -0.182 F  
HETATM   46  F   UNL     1      -5.567  13.180  71.703  1.00  0.00    -0.179 F  
HETATM   47  F   UNL     1      -7.214  14.585  71.946  1.00  0.00     1.080 F  
ENDBRANCH  42  43
ENDBRANCH  41  42
ENDBRANCH  14  41
ENDBRANCH   5   7
ENDBRANCH   4   5
ENDBRANCH   3   4
ENDBRANCH   2   3
TORSDOF 12
ENDMDL
MODEL      189
REMARK 921   NORMALIZED FREE ENERGY PREDICTED BY IDOCK:   -2.38 KCAL/MOL
REMARK 922        TOTAL FREE ENERGY PREDICTED BY IDOCK:   -5.06 KCAL/MOL
REMARK 923 INTER-LIGAND FREE ENERGY PREDICTED BY IDOCK:   -6.30 KCAL/MOL
REMARK 924 INTRA-LIGAND FREE ENERGY PREDICTED BY IDOCK:    1.24 KCAL/MOL
REMARK 927      BINDING AFFINITY PREDICTED BY RF-SCORE:    0.00 PKD
ROOT
HETATM    1  C   UNL     1     -13.471  10.153  71.884  1.00  0.00    -0.327 C  
HETATM    2  S   UNL     1     -13.721   8.379  72.118  1.00  0.00    -0.307 SA 
ENDROOT
BRANCH   2   3
HETATM    3  C   UNL     1     -12.171   7.752  71.367  1.00  0.00    -0.319 C  
BRANCH   3   4
HETATM    4  C   UNL     1     -12.386   6.417  70.624  1.00  0.00     0.212 C  
BRANCH   4   5
HETATM    5  N   UNL     1     -12.023   6.542  69.223  1.00  0.00    -0.313 NA 
HETATM    6  H   UNL     1     -12.648   6.172  68.507  1.00  0.00     0.000 HD 
BRANCH   5   7
HETATM    7  C   UNL     1     -10.841   7.156  68.847  1.00  0.00    -0.129 A  
HETATM    8  C   UNL     1     -10.215   6.810  67.639  1.00  0.00    -0.179 A  
HETATM    9  N   UNL     1     -10.574   5.936  66.631  1.00  0.00    -0.274 NA 
HETATM   10  C   UNL     1      -9.643   6.089  65.702  1.00  0.00     0.274 A  
HETATM   11  N   UNL     1      -8.682   7.003  66.082  1.00  0.00    -0.142 NA 
HETATM   12  C   UNL     1      -9.039   7.471  67.314  1.00  0.00    -0.124 A  
HETATM   13  N   UNL     1     -10.242   8.103  69.626  1.00  0.00    -0.201 NA 
HETATM   14  C   UNL     1      -9.074   8.636  69.212  1.00  0.00    -0.149 A  
HETATM   15  N   UNL     1      -8.413   8.385  68.056  1.00  0.00    -0.131 NA 
BRANCH  11  16
HETATM   16  C   UNL     1      -7.641   7.493  65.204  1.00  0.00    -0.096 C  
HETATM   17  O   UNL     1      -7.132   8.706  65.771  1.00  0.00    -0.077 OA 
HETATM   18  C   UNL     1      -7.633   9.832  65.032  1.00  0.00    -0.127 C  
HETATM   19  H   UNL     1      -6.937   7.907  62.016  1.00  0.00     0.000 HD 
HETATM   20  O   UNL     1      -6.751   7.694  62.923  1.00  0.00    -0.069 OA 
HETATM   21  C   UNL     1      -8.309   9.306  63.770  1.00  0.00    -0.180 C  
HETATM   22  H   UNL     1      -8.228   9.684  61.841  1.00  0.00     0.000 HD 
HETATM   23  C   UNL     1      -7.942   7.837  63.737  1.00  0.00    -0.101 C  
HETATM   24  O   UNL     1      -7.807  10.011  62.627  1.00  0.00    -0.121 OA 
BRANCH  18  25
HETATM   25  C   UNL     1      -8.591  10.684  65.866  1.00  0.00    -0.172 C  
BRANCH  25  26
HETATM   26  O   UNL     1      -9.497  11.289  64.944  1.00  0.00    -0.218 OA 
BRANCH  26  27
HETATM   27  P   UNL     1     -10.303  12.556  65.510  1.00  0.00    -0.284 P  
HETATM   28  O   UNL     1     -11.434  12.630  64.358  1.00  0.00    -0.315 OA 
HETATM   29  O   UNL     1     -10.874  12.421  66.890  1.00  0.00    -0.239 OA 
BRANCH  27  30
HETATM   30  O   UNL     1      -9.254  13.799  65.347  1.00  0.00     0.318 OA 
HETATM   31  P   UNL     1      -9.046  14.822  66.726  1.00  0.00    -0.251 P  
HETATM   32  C   UNL     1      -8.827  15.903  68.186  1.00  0.00    -0.176 C  
HETATM   33  O   UNL     1     -10.458  15.567  66.304  1.00  0.00    -0.288 OA 
HETATM   34  O   UNL     1      -9.400  13.667  67.700  1.00  0.00    -0.200 OA 
HETATM   35 CL   UNL     1     -10.314  15.968  69.249  1.00  0.00    -0.232 Cl 
HETATM   36  P   UNL     1      -7.561  15.182  69.295  1.00  0.00    -0.201 P  
HETATM   37 CL   UNL     1      -8.571  17.586  67.616  1.00  0.00    -0.217 Cl 
HETATM   38  O   UNL     1      -6.442  16.253  68.705  1.00  0.00    -0.119 OA 
HETATM   39  O   UNL     1      -7.094  14.101  68.123  1.00  0.00    -0.100 OA 
HETATM   40  O   UNL     1      -6.489  14.572  70.231  1.00  0.00    -0.177 OA 
ENDBRANCH  27  30
ENDBRANCH  26  27
ENDBRANCH  25  26
ENDBRANCH  18  25
ENDBRANCH  11  16
BRANCH  14  41
HETATM   41  S   UNL     1      -8.258   9.806  70.276  1.00  0.00    -0.057 SA 
BRANCH  41  42
HETATM   42  C   UNL     1      -7.006   8.728  71.051  1.00  0.00    -0.077 C  
BRANCH  42  43
HETATM   43  C   UNL     1      -7.474   8.381  72.459  1.00  0.00    -0.122 C  
HETATM   44  C   UNL     1      -6.331   7.936  73.345  1.00  0.00    -0.079 C  
HETATM   45  F   UNL     1      -6.275   8.697  74.464  1.00  0.00    -0.118 F  
HETATM   46  F   UNL     1      -5.131   8.016  72.739  1.00  0.00    -0.036 F  
HETATM   47  F   UNL     1      -6.504   6.657  73.745  1.00  0.00    -0.063 F  
ENDBRANCH  42  43
ENDBRANCH  41  42
ENDBRANCH  14  41
ENDBRANCH   5   7
ENDBRANCH   4   5
ENDBRANCH   3   4
ENDBRANCH   2   3
TORSDOF 12
ENDMDL
MODEL      190
REMARK 921   NORMALIZED FREE ENERGY PREDICTED BY IDOCK:   -2.30 KCAL/MOL
REMARK 922        TOTAL FREE ENERGY PREDICTED BY IDOCK:   -4.93 KCAL/MOL
REMARK 923 INTER-LIGAND FREE ENERGY PREDICTED BY IDOCK:   -6.41 KCAL/MOL
REMARK 924 INTRA-LIGAND FREE ENERGY PREDICTED BY IDOCK:    1.48 KCAL/MOL
REMARK 927      BINDING AFFINITY PREDICTED BY RF-SCORE:    0.00 PKD
ROOT
HETATM    1  C   UNL     1      -9.206  15.798  65.278  1.00  0.00     0.691 C  
HETATM    2  S   UNL     1     -10.064  17.112  66.174  1.00  0.00    -0.278 SA 
ENDROOT
BRANCH   2   3
HETATM    3  C   UNL     1     -11.533  16.179  66.748  1.00  0.00     0.453 C  
BRANCH   3   4
HETATM    4  C   UNL     1     -11.578  16.059  68.286  1.00  0.00    -0.232 C  
BRANCH   4   5
HETATM    5  N   UNL     1     -10.294  16.411  68.868  1.00  0.00    -0.252 NA 
HETATM    6  H   UNL     1     -10.168  17.332  69.288  1.00  0.00     0.000 HD 
BRANCH   5   7
HETATM    7  C   UNL     1      -9.240  15.514  68.862  1.00  0.00    -0.218 A  
HETATM    8  C   UNL     1      -9.479  14.141  68.698  1.00  0.00    -0.163 A  
HETATM    9  N   UNL     1     -10.641  13.425  68.484  1.00  0.00    -0.250 NA 
HETATM   10  C   UNL     1     -10.242  12.173  68.319  1.00  0.00    -0.208 A  
HETATM   11  N   UNL     1      -8.875  12.047  68.449  1.00  0.00    -0.173 NA 
HETATM   12  C   UNL     1      -8.378  13.296  68.687  1.00  0.00     0.004 A  
HETATM   13  N   UNL     1      -7.947  15.921  69.019  1.00  0.00    -0.208 NA 
HETATM   14  C   UNL     1      -6.973  14.989  69.034  1.00  0.00    -0.127 A  
HETATM   15  N   UNL     1      -7.104  13.652  68.857  1.00  0.00    -0.110 NA 
BRANCH  11  16
HETATM   16  C   UNL     1      -8.145  10.832  68.158  1.00  0.00    -0.117 C  
HETATM   17  O   UNL     1      -9.074   9.743  68.221  1.00  0.00    -0.123 OA 
HETATM   18  C   UNL     1      -8.877   9.011  69.442  1.00  0.00    -0.144 C  
HETATM   19  H   UNL     1      -5.300   9.312  68.811  1.00  0.00     0.000 HD 
HETATM   20  O   UNL     1      -6.032   9.583  68.269  1.00  0.00    -0.044 OA 
HETATM   21  C   UNL     1      -7.590   9.509  70.090  1.00  0.00    -0.142 C  
HETATM   22  H   UNL     1      -5.953   8.701  70.824  1.00  0.00     0.000 HD 
HETATM   23  C   UNL     1      -6.961  10.393  69.033  1.00  0.00    -0.071 C  
HETATM   24  O   UNL     1      -6.755   8.391  70.421  1.00  0.00    -0.036 OA 
BRANCH  18  25
HETATM   25  C   UNL     1     -10.070   9.147  70.390  1.00  0.00    -0.218 C  
BRANCH  25  26
HETATM   26  O   UNL     1      -9.786   8.315  71.514  1.00  0.00    -0.165 OA 
BRANCH  26  27
HETATM   27  P   UNL     1     -11.074   7.759  72.295  1.00  0.00    -0.357 P  
HETATM   28  O   UNL     1     -10.327   7.304  73.654  1.00  0.00    -0.347 OA 
HETATM   29  O   UNL     1     -12.184   8.739  72.531  1.00  0.00    -0.364 OA 
BRANCH  27  30
HETATM   30  O   UNL     1     -11.523   6.445  71.434  1.00  0.00    -0.287 OA 
HETATM   31  P   UNL     1     -10.522   5.043  71.582  1.00  0.00    -0.054 P  
HETATM   32  C   UNL     1      -9.461   3.559  71.740  1.00  0.00    -0.142 C  
HETATM   33  O   UNL     1      -9.482   5.754  70.516  1.00  0.00    -0.161 OA 
HETATM   34  O   UNL     1     -10.076   5.449  73.012  1.00  0.00    -0.168 OA 
HETATM   35 CL   UNL     1      -7.720   3.971  72.119  1.00  0.00    -0.073 Cl 
HETATM   36  P   UNL     1      -9.983   2.589  73.202  1.00  0.00    -0.130 P  
HETATM   37 CL   UNL     1      -9.420   2.717  70.155  1.00  0.00    -0.207 Cl 
HETATM   38  O   UNL     1     -10.792   1.539  72.209  1.00  0.00    -0.132 OA 
HETATM   39  O   UNL     1     -11.378   3.478  73.343  1.00  0.00    -0.205 OA 
HETATM   40  O   UNL     1     -10.424   1.768  74.438  1.00  0.00    -0.115 OA 
ENDBRANCH  27  30
ENDBRANCH  26  27
ENDBRANCH  25  26
ENDBRANCH  18  25
ENDBRANCH  11  16
BRANCH  14  41
HETATM   41  S   UNL     1      -5.300  15.522  69.326  1.00  0.00    -0.097 SA 
BRANCH  41  42
HETATM   42  C   UNL     1      -5.588  17.258  69.809  1.00  0.00    -0.218 C  
BRANCH  42  43
HETATM   43  C   UNL     1      -5.379  18.140  68.585  1.00  0.00    -0.164 C  
HETATM   44  C   UNL     1      -6.311  19.332  68.576  1.00  0.00    -0.247 C  
HETATM   45  F   UNL     1      -5.606  20.484  68.479  1.00  0.00    -0.243 F  
HETATM   46  F   UNL     1      -7.073  19.415  69.684  1.00  0.00    -0.348 F  
HETATM   47  F   UNL     1      -7.141  19.284  67.511  1.00  0.00    -0.218 F  
ENDBRANCH  42  43
ENDBRANCH  41  42
ENDBRANCH  14  41
ENDBRANCH   5   7
ENDBRANCH   4   5
ENDBRANCH   3   4
ENDBRANCH   2   3
TORSDOF 12
ENDMDL
MODEL      191
REMARK 921   NORMALIZED FREE ENERGY PREDICTED BY IDOCK:   -2.29 KCAL/MOL
REMARK 922        TOTAL FREE ENERGY PREDICTED BY IDOCK:   -4.91 KCAL/MOL
REMARK 923 INTER-LIGAND FREE ENERGY PREDICTED BY IDOCK:   -5.76 KCAL/MOL
REMARK 924 INTRA-LIGAND FREE ENERGY PREDICTED BY IDOCK:    0.85 KCAL/MOL
REMARK 927      BINDING AFFINITY PREDICTED BY RF-SCORE:    0.00 PKD
ROOT
HETATM    1  C   UNL     1     -11.319  16.085  68.731  1.00  0.00    -0.380 C  
HETATM    2  S   UNL     1     -10.370  16.252  70.260  1.00  0.00     0.332 SA 
ENDROOT
BRANCH   2   3
HETATM    3  C   UNL     1      -8.977  15.123  69.877  1.00  0.00     0.187 C  
BRANCH   3   4
HETATM    4  C   UNL     1      -8.214  15.556  68.608  1.00  0.00    -0.162 C  
BRANCH   4   5
HETATM    5  N   UNL     1      -7.324  14.500  68.156  1.00  0.00    -0.115 NA 
HETATM    6  H   UNL     1      -6.315  14.628  68.228  1.00  0.00     0.000 HD 
BRANCH   5   7
HETATM    7  C   UNL     1      -7.827  13.323  67.630  1.00  0.00    -0.168 A  
HETATM    8  C   UNL     1      -6.969  12.398  67.014  1.00  0.00    -0.001 A  
HETATM    9  N   UNL     1      -5.600  12.387  66.836  1.00  0.00    -0.321 NA 
HETATM   10  C   UNL     1      -5.341  11.220  66.266  1.00  0.00    -0.134 A  
HETATM   11  N   UNL     1      -6.491  10.491  66.042  1.00  0.00    -0.118 NA 
HETATM   12  C   UNL     1      -7.534  11.232  66.518  1.00  0.00    -0.105 A  
HETATM   13  N   UNL     1      -9.157  13.022  67.680  1.00  0.00    -0.187 NA 
HETATM   14  C   UNL     1      -9.581  11.871  67.118  1.00  0.00    -0.186 A  
HETATM   15  N   UNL     1      -8.829  10.911  66.530  1.00  0.00    -0.158 NA 
BRANCH  11  16
HETATM   16  C   UNL     1      -6.501   9.118  65.587  1.00  0.00    -0.068 C  
HETATM   17  O   UNL     1      -7.699   8.507  66.080  1.00  0.00    -0.090 OA 
HETATM   18  C   UNL     1      -7.383   7.645  67.185  1.00  0.00    -0.091 C  
HETATM   19  H   UNL     1      -4.531   6.506  65.222  1.00  0.00     0.000 HD 
HETATM   20  O   UNL     1      -5.228   7.105  64.980  1.00  0.00    -0.027 OA 
HETATM   21  C   UNL     1      -5.866   7.504  67.256  1.00  0.00    -0.035 C  
HETATM   22  H   UNL     1      -4.571   6.028  67.372  1.00  0.00     0.000 HD 
HETATM   23  C   UNL     1      -5.373   8.148  65.977  1.00  0.00    -0.028 C  
HETATM   24  O   UNL     1      -5.515   6.115  67.328  1.00  0.00    -0.005 OA 
BRANCH  18  25
HETATM   25  C   UNL     1      -7.958   8.169  68.502  1.00  0.00    -0.126 C  
BRANCH  25  26
HETATM   26  O   UNL     1      -8.449   7.028  69.208  1.00  0.00    -0.131 OA 
BRANCH  26  27
HETATM   27  P   UNL     1     -10.041   6.833  69.168  1.00  0.00    -0.187 P  
HETATM   28  O   UNL     1     -10.362   7.339  70.669  1.00  0.00    -0.202 OA 
HETATM   29  O   UNL     1     -10.781   7.603  68.115  1.00  0.00    -0.165 OA 
BRANCH  27  30
HETATM   30  O   UNL     1     -10.240   5.214  69.067  1.00  0.00    -0.202 OA 
HETATM   31  P   UNL     1      -9.434   4.259  70.262  1.00  0.00    -0.202 P  
HETATM   32  C   UNL     1      -8.580   3.249  71.528  1.00  0.00    -0.072 C  
HETATM   33  O   UNL     1      -8.050   4.443  69.381  1.00  0.00    -0.061 OA 
HETATM   34  O   UNL     1      -9.487   5.415  71.296  1.00  0.00    -0.145 OA 
HETATM   35 CL   UNL     1      -7.057   4.041  72.156  1.00  0.00    -0.049 Cl 
HETATM   36  P   UNL     1      -9.630   3.130  73.023  1.00  0.00    -0.111 P  
HETATM   37 CL   UNL     1      -8.043   1.715  70.765  1.00  0.00    -0.044 Cl 
HETATM   38  O   UNL     1     -10.106   1.611  72.561  1.00  0.00    -0.113 OA 
HETATM   39  O   UNL     1     -10.935   3.751  72.204  1.00  0.00     0.256 OA 
HETATM   40  O   UNL     1     -10.518   3.028  74.287  1.00  0.00    -0.157 OA 
ENDBRANCH  27  30
ENDBRANCH  26  27
ENDBRANCH  25  26
ENDBRANCH  18  25
ENDBRANCH  11  16
BRANCH  14  41
HETATM   41  S   UNL     1     -11.328  11.531  67.113  1.00  0.00    -0.233 SA 
BRANCH  41  42
HETATM   42  C   UNL     1     -11.987  13.195  66.762  1.00  0.00    -0.373 C  
BRANCH  42  43
HETATM   43  C   UNL     1     -12.867  13.113  65.520  1.00  0.00    -0.206 C  
HETATM   44  C   UNL     1     -12.223  13.774  64.322  1.00  0.00    -0.400 C  
HETATM   45  F   UNL     1     -12.141  12.904  63.287  1.00  0.00    -0.549 F  
HETATM   46  F   UNL     1     -10.979  14.225  64.572  1.00  0.00    -0.369 F  
HETATM   47  F   UNL     1     -12.962  14.824  63.899  1.00  0.00    -0.060 F  
ENDBRANCH  42  43
ENDBRANCH  41  42
ENDBRANCH  14  41
ENDBRANCH   5   7
ENDBRANCH   4   5
ENDBRANCH   3   4
ENDBRANCH   2   3
TORSDOF 12
ENDMDL
MODEL      192
REMARK 921   NORMALIZED FREE ENERGY PREDICTED BY IDOCK:   -2.26 KCAL/MOL
REMARK 922        TOTAL FREE ENERGY PREDICTED BY IDOCK:   -4.86 KCAL/MOL
REMARK 923 INTER-LIGAND FREE ENERGY PREDICTED BY IDOCK:   -5.92 KCAL/MOL
REMARK 924 INTRA-LIGAND FREE ENERGY PREDICTED BY IDOCK:    1.05 KCAL/MOL
REMARK 927      BINDING AFFINITY PREDICTED BY RF-SCORE:    0.00 PKD
ROOT
HETATM    1  C   UNL     1      -9.879  18.270  66.471  1.00  0.00    -0.361 C  
HETATM    2  S   UNL     1     -10.698  18.682  68.028  1.00  0.00    -0.111 SA 
ENDROOT
BRANCH   2   3
HETATM    3  C   UNL     1     -11.748  17.192  68.222  1.00  0.00     0.873 C  
BRANCH   3   4
HETATM    4  C   UNL     1     -11.292  16.313  69.407  1.00  0.00    -0.284 C  
BRANCH   4   5
HETATM    5  N   UNL     1      -9.861  16.441  69.622  1.00  0.00    -0.113 NA 
HETATM    6  H   UNL     1      -9.510  17.160  70.255  1.00  0.00     0.000 HD 
BRANCH   5   7
HETATM    7  C   UNL     1      -8.967  15.601  68.982  1.00  0.00    -0.239 A  
HETATM    8  C   UNL     1      -9.360  14.311  68.592  1.00  0.00    -0.172 A  
HETATM    9  N   UNL     1     -10.569  13.648  68.683  1.00  0.00    -0.248 NA 
HETATM   10  C   UNL     1     -10.367  12.491  68.073  1.00  0.00    -0.222 A  
HETATM   11  N   UNL     1      -9.071  12.367  67.619  1.00  0.00    -0.178 NA 
HETATM   12  C   UNL     1      -8.421  13.523  67.943  1.00  0.00    -0.179 A  
HETATM   13  N   UNL     1      -7.685  15.984  68.713  1.00  0.00    -0.174 NA 
HETATM   14  C   UNL     1      -6.859  15.102  68.114  1.00  0.00    -0.128 A  
HETATM   15  N   UNL     1      -7.155  13.853  67.680  1.00  0.00    -0.170 NA 
BRANCH  11  16
HETATM   16  C   UNL     1      -8.610  11.285  66.775  1.00  0.00    -0.159 C  
HETATM   17  O   UNL     1      -9.288  10.093  67.190  1.00  0.00    -0.150 OA 
HETATM   18  C   UNL     1      -8.389   9.263  67.942  1.00  0.00    -0.116 C  
HETATM   19  H   UNL     1      -5.873  10.052  65.426  1.00  0.00     0.000 HD 
HETATM   20  O   UNL     1      -6.792  10.291  65.455  1.00  0.00    -0.132 OA 
HETATM   21  C   UNL     1      -6.984   9.838  67.801  1.00  0.00    -0.086 C  
HETATM   22  H   UNL     1      -5.201   9.155  67.323  1.00  0.00     0.000 HD 
HETATM   23  C   UNL     1      -7.123  10.899  66.729  1.00  0.00    -0.129 C  
HETATM   24  O   UNL     1      -6.076   8.797  67.412  1.00  0.00    -0.050 OA 
BRANCH  18  25
HETATM   25  C   UNL     1      -8.803   9.155  69.411  1.00  0.00    -0.146 C  
BRANCH  25  26
HETATM   26  O   UNL     1      -8.049   8.075  69.962  1.00  0.00    -0.111 OA 
BRANCH  26  27
HETATM   27  P   UNL     1      -7.287   8.405  71.335  1.00  0.00    -0.107 P  
HETATM   28  O   UNL     1      -6.119   7.295  71.211  1.00  0.00    -0.036 OA 
HETATM   29  O   UNL     1      -6.761   9.801  71.487  1.00  0.00    -0.318 OA 
BRANCH  27  30
HETATM   30  O   UNL     1      -8.353   7.971  72.496  1.00  0.00    -0.129 OA 
HETATM   31  P   UNL     1      -8.998   6.369  72.393  1.00  0.00    -0.131 P  
HETATM   32  C   UNL     1      -9.681   4.675  72.284  1.00  0.00    -0.161 C  
HETATM   33  O   UNL     1     -10.033   6.931  71.236  1.00  0.00    -0.180 OA 
HETATM   34  O   UNL     1      -7.727   5.847  71.672  1.00  0.00    -0.098 OA 
HETATM   35 CL   UNL     1      -9.745   4.046  70.568  1.00  0.00    -0.261 Cl 
HETATM   36  P   UNL     1      -8.541   3.504  73.109  1.00  0.00    -0.085 P  
HETATM   37 CL   UNL     1     -11.386   4.710  72.846  1.00  0.00    -0.251 Cl 
HETATM   38  O   UNL     1      -9.525   3.493  74.442  1.00  0.00    -0.094 OA 
HETATM   39  O   UNL     1      -7.686   4.754  73.791  1.00  0.00    -0.092 OA 
HETATM   40  O   UNL     1      -7.577   2.513  73.808  1.00  0.00    -0.047 OA 
ENDBRANCH  27  30
ENDBRANCH  26  27
ENDBRANCH  25  26
ENDBRANCH  18  25
ENDBRANCH  11  16
BRANCH  14  41
HETATM   41  S   UNL     1      -5.166  15.581  67.846  1.00  0.00    -0.098 SA 
BRANCH  41  42
HETATM   42  C   UNL     1      -5.366  17.379  67.610  1.00  0.00    -0.119 C  
BRANCH  42  43
HETATM   43  C   UNL     1      -5.334  17.675  66.116  1.00  0.00    -0.231 C  
HETATM   44  C   UNL     1      -6.040  18.969  65.776  1.00  0.00    -0.206 C  
HETATM   45  F   UNL     1      -5.211  19.798  65.099  1.00  0.00    -0.157 F  
HETATM   46  F   UNL     1      -6.478  19.632  66.864  1.00  0.00    -0.190 F  
HETATM   47  F   UNL     1      -7.107  18.738  64.979  1.00  0.00    -0.143 F  
ENDBRANCH  42  43
ENDBRANCH  41  42
ENDBRANCH  14  41
ENDBRANCH   5   7
ENDBRANCH   4   5
ENDBRANCH   3   4
ENDBRANCH   2   3
TORSDOF 12
ENDMDL
MODEL      193
REMARK 921   NORMALIZED FREE ENERGY PREDICTED BY IDOCK:   -2.20 KCAL/MOL
REMARK 922        TOTAL FREE ENERGY PREDICTED BY IDOCK:   -4.75 KCAL/MOL
REMARK 923 INTER-LIGAND FREE ENERGY PREDICTED BY IDOCK:   -6.01 KCAL/MOL
REMARK 924 INTRA-LIGAND FREE ENERGY PREDICTED BY IDOCK:    1.27 KCAL/MOL
REMARK 927      BINDING AFFINITY PREDICTED BY RF-SCORE:    0.00 PKD
ROOT
HETATM    1  C   UNL     1      -5.994  14.817  72.010  1.00  0.00     0.447 C  
HETATM    2  S   UNL     1      -5.134  13.230  72.087  1.00  0.00    -0.057 SA 
ENDROOT
BRANCH   2   3
HETATM    3  C   UNL     1      -5.621  12.541  70.459  1.00  0.00    -0.172 C  
BRANCH   3   4
HETATM    4  C   UNL     1      -6.027  13.647  69.462  1.00  0.00    -0.108 C  
BRANCH   4   5
HETATM    5  N   UNL     1      -7.473  13.737  69.352  1.00  0.00    -0.327 NA 
HETATM    6  H   UNL     1      -7.992  14.317  70.011  1.00  0.00     0.000 HD 
BRANCH   5   7
HETATM    7  C   UNL     1      -8.156  13.047  68.366  1.00  0.00    -0.131 A  
HETATM    8  C   UNL     1      -7.468  12.189  67.494  1.00  0.00    -0.148 A  
HETATM    9  N   UNL     1      -6.139  11.819  67.422  1.00  0.00    -0.092 NA 
HETATM   10  C   UNL     1      -6.090  10.918  66.454  1.00  0.00    -0.131 A  
HETATM   11  N   UNL     1      -7.326  10.713  65.878  1.00  0.00    -0.144 NA 
HETATM   12  C   UNL     1      -8.212  11.517  66.536  1.00  0.00    -0.129 A  
HETATM   13  N   UNL     1      -9.505  13.175  68.199  1.00  0.00    -0.219 NA 
HETATM   14  C   UNL     1     -10.100  12.497  67.197  1.00  0.00    -0.214 A  
HETATM   15  N   UNL     1      -9.525  11.631  66.329  1.00  0.00    -0.213 NA 
BRANCH  11  16
HETATM   16  C   UNL     1      -7.606   9.671  64.913  1.00  0.00    -0.117 C  
HETATM   17  O   UNL     1      -8.963   9.255  65.107  1.00  0.00    -0.197 OA 
HETATM   18  C   UNL     1      -8.988   7.986  65.781  1.00  0.00    -0.102 C  
HETATM   19  H   UNL     1      -6.276   6.981  63.563  1.00  0.00     0.000 HD 
HETATM   20  O   UNL     1      -6.780   7.786  63.572  1.00  0.00    -0.061 OA 
HETATM   21  C   UNL     1      -7.565   7.438  65.810  1.00  0.00    -0.090 C  
HETATM   22  H   UNL     1      -6.675   5.746  65.344  1.00  0.00     0.000 HD 
HETATM   23  C   UNL     1      -6.791   8.369  64.899  1.00  0.00    -0.071 C  
HETATM   24  O   UNL     1      -7.561   6.088  65.327  1.00  0.00    -0.080 OA 
BRANCH  18  25
HETATM   25  C   UNL     1      -9.572   8.099  67.190  1.00  0.00    -0.174 C  
BRANCH  25  26
HETATM   26  O   UNL     1      -8.840   7.181  68.003  1.00  0.00    -0.129 OA 
BRANCH  26  27
HETATM   27  P   UNL     1      -9.736   6.206  68.910  1.00  0.00    -0.140 P  
HETATM   28  O   UNL     1     -10.335   7.325  69.910  1.00  0.00    -0.208 OA 
HETATM   29  O   UNL     1     -10.797   5.422  68.197  1.00  0.00    -0.090 OA 
BRANCH  27  30
HETATM   30  O   UNL     1      -8.644   5.278  69.695  1.00  0.00    -0.096 OA 
HETATM   31  P   UNL     1      -8.749   5.253  71.421  1.00  0.00    -0.131 P  
HETATM   32  C   UNL     1      -8.861   5.226  73.247  1.00  0.00    -0.118 C  
HETATM   33  O   UNL     1      -7.962   6.704  71.425  1.00  0.00    -0.105 OA 
HETATM   34  O   UNL     1     -10.272   5.546  71.384  1.00  0.00    -0.199 OA 
HETATM   35 CL   UNL     1      -9.555   6.771  73.937  1.00  0.00    -0.230 Cl 
HETATM   36  P   UNL     1     -10.078   3.961  73.765  1.00  0.00    -0.161 P  
HETATM   37 CL   UNL     1      -7.200   5.105  73.919  1.00  0.00    -0.082 Cl 
HETATM   38  O   UNL     1      -8.838   2.922  74.124  1.00  0.00    -0.075 OA 
HETATM   39  O   UNL     1     -10.126   3.322  72.233  1.00  0.00    -0.160 OA 
HETATM   40  O   UNL     1     -11.107   2.890  74.204  1.00  0.00    -0.152 OA 
ENDBRANCH  27  30
ENDBRANCH  26  27
ENDBRANCH  25  26
ENDBRANCH  18  25
ENDBRANCH  11  16
BRANCH  14  41
HETATM   41  S   UNL     1     -11.843  12.740  66.935  1.00  0.00    -0.318 SA 
BRANCH  41  42
HETATM   42  C   UNL     1     -12.035  14.446  67.551  1.00  0.00    -0.354 C  
BRANCH  42  43
HETATM   43  C   UNL     1     -12.647  14.390  68.944  1.00  0.00     0.289 C  
HETATM   44  C   UNL     1     -11.687  14.872  70.009  1.00  0.00    -0.294 C  
HETATM   45  F   UNL     1     -12.241  15.877  70.727  1.00  0.00    -0.372 F  
HETATM   46  F   UNL     1     -10.524  15.327  69.503  1.00  0.00    -0.210 F  
HETATM   47  F   UNL     1     -11.395  13.879  70.877  1.00  0.00    -0.147 F  
ENDBRANCH  42  43
ENDBRANCH  41  42
ENDBRANCH  14  41
ENDBRANCH   5   7
ENDBRANCH   4   5
ENDBRANCH   3   4
ENDBRANCH   2   3
TORSDOF 12
ENDMDL
MODEL      194
REMARK 921   NORMALIZED FREE ENERGY PREDICTED BY IDOCK:   -2.10 KCAL/MOL
REMARK 922        TOTAL FREE ENERGY PREDICTED BY IDOCK:   -4.59 KCAL/MOL
REMARK 923 INTER-LIGAND FREE ENERGY PREDICTED BY IDOCK:   -6.36 KCAL/MOL
REMARK 924 INTRA-LIGAND FREE ENERGY PREDICTED BY IDOCK:    1.77 KCAL/MOL
REMARK 927      BINDING AFFINITY PREDICTED BY RF-SCORE:    0.00 PKD
ROOT
HETATM    1  C   UNL     1      -9.750  17.110  65.957  1.00  0.00    -0.189 C  
HETATM    2  S   UNL     1     -10.528  18.102  67.250  1.00  0.00    -0.373 SA 
ENDROOT
BRANCH   2   3
HETATM    3  C   UNL     1     -11.884  16.967  67.730  1.00  0.00     1.011 C  
BRANCH   3   4
HETATM    4  C   UNL     1     -11.634  16.315  69.107  1.00  0.00    -0.213 C  
BRANCH   4   5
HETATM    5  N   UNL     1     -10.238  16.438  69.489  1.00  0.00    -0.265 NA 
HETATM    6  H   UNL     1      -9.956  17.176  70.134  1.00  0.00     0.000 HD 
BRANCH   5   7
HETATM    7  C   UNL     1      -9.284  15.568  68.990  1.00  0.00    -0.238 A  
HETATM    8  C   UNL     1      -9.664  14.318  68.475  1.00  0.00    -0.225 A  
HETATM    9  N   UNL     1     -10.901  13.727  68.307  1.00  0.00    -0.243 NA 
HETATM   10  C   UNL     1     -10.649  12.581  67.694  1.00  0.00    -0.217 A  
HETATM   11  N   UNL     1      -9.298  12.394  67.487  1.00  0.00    -0.176 NA 
HETATM   12  C   UNL     1      -8.662  13.498  67.979  1.00  0.00    -0.181 A  
HETATM   13  N   UNL     1      -7.956  15.881  68.985  1.00  0.00    -0.208 NA 
HETATM   14  C   UNL     1      -7.079  14.971  68.512  1.00  0.00    -0.110 A  
HETATM   15  N   UNL     1      -7.353  13.759  67.974  1.00  0.00    -0.116 NA 
BRANCH  11  16
HETATM   16  C   UNL     1      -8.744  11.317  66.697  1.00  0.00    -0.174 C  
HETATM   17  O   UNL     1      -9.686  10.238  66.714  1.00  0.00    -0.173 OA 
HETATM   18  C   UNL     1      -9.219   9.203  67.595  1.00  0.00    -0.128 C  
HETATM   19  H   UNL     1      -5.922   9.721  66.130  1.00  0.00     0.000 HD 
HETATM   20  O   UNL     1      -6.753  10.118  65.898  1.00  0.00    -0.092 OA 
HETATM   21  C   UNL     1      -7.780   9.525  67.982  1.00  0.00    -0.087 C  
HETATM   22  H   UNL     1      -6.058   8.572  68.006  1.00  0.00     0.000 HD 
HETATM   23  C   UNL     1      -7.399  10.674  67.071  1.00  0.00    -0.102 C  
HETATM   24  O   UNL     1      -6.955   8.372  67.765  1.00  0.00    -0.072 OA 
BRANCH  18  25
HETATM   25  C   UNL     1     -10.111   9.057  68.829  1.00  0.00    -0.199 C  
BRANCH  25  26
HETATM   26  O   UNL     1      -9.597   7.948  69.567  1.00  0.00    -0.160 OA 
BRANCH  26  27
HETATM   27  P   UNL     1     -10.678   7.152  70.445  1.00  0.00    -0.249 P  
HETATM   28  O   UNL     1      -9.662   6.540  71.544  1.00  0.00    -0.169 OA 
HETATM   29  O   UNL     1     -11.778   7.971  71.052  1.00  0.00    -0.286 OA 
BRANCH  27  30
HETATM   30  O   UNL     1     -11.206   5.969  69.449  1.00  0.00    -0.395 OA 
HETATM   31  P   UNL     1      -9.993   5.049  68.629  1.00  0.00    -0.073 P  
HETATM   32  C   UNL     1      -8.709   4.075  67.762  1.00  0.00    -0.104 C  
HETATM   33  O   UNL     1      -9.861   6.300  67.560  1.00  0.00    -0.114 OA 
HETATM   34  O   UNL     1      -8.966   5.294  69.766  1.00  0.00    -0.109 OA 
HETATM   35 CL   UNL     1      -7.173   5.026  67.476  1.00  0.00    -0.070 Cl 
HETATM   36  P   UNL     1      -8.150   2.706  68.840  1.00  0.00    -0.052 P  
HETATM   37 CL   UNL     1      -9.321   3.651  66.129  1.00  0.00    -0.175 Cl 
HETATM   38  O   UNL     1      -9.102   1.652  67.986  1.00  0.00    -0.118 OA 
HETATM   39  O   UNL     1      -9.419   2.955  69.882  1.00  0.00    -0.150 OA 
HETATM   40  O   UNL     1      -7.678   1.546  69.751  1.00  0.00    -0.042 OA 
ENDBRANCH  27  30
ENDBRANCH  26  27
ENDBRANCH  25  26
ENDBRANCH  18  25
ENDBRANCH  11  16
BRANCH  14  41
HETATM   41  S   UNL     1      -5.343  15.355  68.590  1.00  0.00    -0.099 SA 
BRANCH  41  42
HETATM   42  C   UNL     1      -5.384  16.859  69.623  1.00  0.00    -0.165 C  
BRANCH  42  43
HETATM   43  C   UNL     1      -5.147  18.066  68.725  1.00  0.00    -0.159 C  
HETATM   44  C   UNL     1      -6.311  19.032  68.751  1.00  0.00    -0.247 C  
HETATM   45  F   UNL     1      -5.891  20.272  69.099  1.00  0.00    -0.276 F  
HETATM   46  F   UNL     1      -7.277  18.672  69.618  1.00  0.00    -0.175 F  
HETATM   47  F   UNL     1      -6.876  19.135  67.527  1.00  0.00    -0.205 F  
ENDBRANCH  42  43
ENDBRANCH  41  42
ENDBRANCH  14  41
ENDBRANCH   5   7
ENDBRANCH   4   5
ENDBRANCH   3   4
ENDBRANCH   2   3
TORSDOF 12
ENDMDL
MODEL      195
REMARK 921   NORMALIZED FREE ENERGY PREDICTED BY IDOCK:   -1.93 KCAL/MOL
REMARK 922        TOTAL FREE ENERGY PREDICTED BY IDOCK:   -4.29 KCAL/MOL
REMARK 923 INTER-LIGAND FREE ENERGY PREDICTED BY IDOCK:   -4.15 KCAL/MOL
REMARK 924 INTRA-LIGAND FREE ENERGY PREDICTED BY IDOCK:   -0.14 KCAL/MOL
REMARK 927      BINDING AFFINITY PREDICTED BY RF-SCORE:    0.00 PKD
ROOT
HETATM    1  C   UNL     1      -7.521  20.141  70.966  1.00  0.00     1.216 C  
HETATM    2  S   UNL     1      -6.973  19.656  69.315  1.00  0.00    -0.295 SA 
ENDROOT
BRANCH   2   3
HETATM    3  C   UNL     1      -8.591  19.621  68.455  1.00  0.00    -0.315 C  
BRANCH   3   4
HETATM    4  C   UNL     1      -8.458  19.155  66.990  1.00  0.00    -0.285 C  
BRANCH   4   5
HETATM    5  N   UNL     1      -7.542  18.031  66.887  1.00  0.00    -0.206 NA 
HETATM    6  H   UNL     1      -6.619  18.171  66.479  1.00  0.00     0.000 HD 
BRANCH   5   7
HETATM    7  C   UNL     1      -7.907  16.774  67.336  1.00  0.00    -0.171 A  
HETATM    8  C   UNL     1      -6.935  15.779  67.525  1.00  0.00    -0.186 A  
HETATM    9  N   UNL     1      -5.561  15.793  67.383  1.00  0.00    -0.321 NA 
HETATM   10  C   UNL     1      -5.167  14.593  67.781  1.00  0.00     0.007 A  
HETATM   11  N   UNL     1      -6.232  13.796  68.146  1.00  0.00    -0.111 NA 
HETATM   12  C   UNL     1      -7.363  14.544  67.989  1.00  0.00    -0.138 A  
HETATM   13  N   UNL     1      -9.206  16.453  67.604  1.00  0.00    -0.199 NA 
HETATM   14  C   UNL     1      -9.492  15.198  68.008  1.00  0.00    -0.199 A  
HETATM   15  N   UNL     1      -8.624  14.186  68.242  1.00  0.00    -0.169 NA 
BRANCH  11  16
HETATM   16  C   UNL     1      -6.093  12.501  68.776  1.00  0.00    -0.070 C  
HETATM   17  O   UNL     1      -5.864  11.538  67.739  1.00  0.00    -0.044 OA 
HETATM   18  C   UNL     1      -7.062  10.777  67.514  1.00  0.00    -0.089 C  
HETATM   19  H   UNL     1      -7.410  10.626  71.139  1.00  0.00     0.000 HD 
HETATM   20  O   UNL     1      -6.706  10.993  70.616  1.00  0.00    -0.219 OA 
HETATM   21  C   UNL     1      -8.047  11.103  68.632  1.00  0.00    -0.150 C  
HETATM   22  H   UNL     1      -9.153  10.087  69.903  1.00  0.00     0.000 HD 
HETATM   23  C   UNL     1      -7.231  11.908  69.622  1.00  0.00     0.331 C  
HETATM   24  O   UNL     1      -8.539   9.885  69.207  1.00  0.00    -0.141 OA 
BRANCH  18  25
HETATM   25  C   UNL     1      -7.667  11.057  66.137  1.00  0.00    -0.102 C  
BRANCH  25  26
HETATM   26  O   UNL     1      -8.723  10.112  65.963  1.00  0.00    -0.135 OA 
BRANCH  26  27
HETATM   27  P   UNL     1      -8.669   9.271  64.597  1.00  0.00    -0.130 P  
HETATM   28  O   UNL     1      -9.593  10.249  63.700  1.00  0.00    -0.292 OA 
HETATM   29  O   UNL     1      -7.309   9.041  64.009  1.00  0.00    -0.097 OA 
BRANCH  27  30
HETATM   30  O   UNL     1      -9.480   7.896  64.945  1.00  0.00     0.867 OA 
HETATM   31  P   UNL     1      -8.531   6.554  65.484  1.00  0.00    -0.052 P  
HETATM   32  C   UNL     1      -7.527   5.135  66.056  1.00  0.00    -0.082 C  
HETATM   33  O   UNL     1      -8.143   6.278  63.904  1.00  0.00    -0.116 OA 
HETATM   34  O   UNL     1      -7.447   7.493  66.076  1.00  0.00    -0.079 OA 
HETATM   35 CL   UNL     1      -5.822   5.163  65.396  1.00  0.00    -0.017 Cl 
HETATM   36  P   UNL     1      -7.270   5.258  67.864  1.00  0.00    -0.073 P  
HETATM   37 CL   UNL     1      -8.262   3.625  65.422  1.00  0.00    -0.097 Cl 
HETATM   38  O   UNL     1      -8.460   4.130  68.105  1.00  0.00    -0.092 OA 
HETATM   39  O   UNL     1      -8.421   6.449  67.986  1.00  0.00    -0.118 OA 
HETATM   40  O   UNL     1      -7.054   5.362  69.394  1.00  0.00    -0.060 OA 
ENDBRANCH  27  30
ENDBRANCH  26  27
ENDBRANCH  25  26
ENDBRANCH  18  25
ENDBRANCH  11  16
BRANCH  14  41
HETATM   41  S   UNL     1     -11.199  14.766  68.269  1.00  0.00    -0.300 SA 
BRANCH  41  42
HETATM   42  C   UNL     1     -11.006  13.168  69.129  1.00  0.00    -0.145 C  
BRANCH  42  43
HETATM   43  C   UNL     1     -12.006  12.181  68.540  1.00  0.00    -0.273 C  
HETATM   44  C   UNL     1     -11.508  11.569  67.249  1.00  0.00    -0.263 C  
HETATM   45  F   UNL     1     -11.508  10.217  67.335  1.00  0.00    -0.347 F  
HETATM   46  F   UNL     1     -10.258  11.955  66.928  1.00  0.00    -0.213 F  
HETATM   47  F   UNL     1     -12.317  11.900  66.218  1.00  0.00    -0.183 F  
ENDBRANCH  42  43
ENDBRANCH  41  42
ENDBRANCH  14  41
ENDBRANCH   5   7
ENDBRANCH   4   5
ENDBRANCH   3   4
ENDBRANCH   2   3
TORSDOF 12
ENDMDL
MODEL      196
REMARK 921   NORMALIZED FREE ENERGY PREDICTED BY IDOCK:   -1.90 KCAL/MOL
REMARK 922        TOTAL FREE ENERGY PREDICTED BY IDOCK:   -4.24 KCAL/MOL
REMARK 923 INTER-LIGAND FREE ENERGY PREDICTED BY IDOCK:   -4.66 KCAL/MOL
REMARK 924 INTRA-LIGAND FREE ENERGY PREDICTED BY IDOCK:    0.43 KCAL/MOL
REMARK 927      BINDING AFFINITY PREDICTED BY RF-SCORE:    0.00 PKD
ROOT
HETATM    1  C   UNL     1      -6.640  14.280  72.345  1.00  0.00     1.871 C  
HETATM    2  S   UNL     1      -5.378  13.647  71.217  1.00  0.00    -0.210 SA 
ENDROOT
BRANCH   2   3
HETATM    3  C   UNL     1      -6.424  13.315  69.748  1.00  0.00    -0.020 C  
BRANCH   3   4
HETATM    4  C   UNL     1      -5.683  13.620  68.429  1.00  0.00    -0.099 C  
BRANCH   4   5
HETATM    5  N   UNL     1      -6.564  13.440  67.289  1.00  0.00    -0.449 NA 
HETATM    6  H   UNL     1      -6.448  14.030  66.465  1.00  0.00     0.000 HD 
BRANCH   5   7
HETATM    7  C   UNL     1      -7.560  12.480  67.305  1.00  0.00    -0.131 A  
HETATM    8  C   UNL     1      -7.236  11.119  67.187  1.00  0.00    -0.120 A  
HETATM    9  N   UNL     1      -6.023  10.465  67.088  1.00  0.00    -0.050 NA 
HETATM   10  C   UNL     1      -6.331   9.177  67.092  1.00  0.00    -0.059 A  
HETATM   11  N   UNL     1      -7.694   8.974  67.159  1.00  0.00    -0.098 NA 
HETATM   12  C   UNL     1      -8.280  10.206  67.223  1.00  0.00    -0.117 A  
HETATM   13  N   UNL     1      -8.879  12.811  67.426  1.00  0.00    -0.181 NA 
HETATM   14  C   UNL     1      -9.799  11.824  67.402  1.00  0.00    -0.178 A  
HETATM   15  N   UNL     1      -9.579  10.491  67.320  1.00  0.00    -0.161 NA 
BRANCH  11  16
HETATM   16  C   UNL     1      -8.309   7.678  67.345  1.00  0.00    -0.116 C  
HETATM   17  O   UNL     1      -8.445   7.461  68.755  1.00  0.00    -0.128 OA 
HETATM   18  C   UNL     1      -7.446   6.528  69.199  1.00  0.00    -0.095 C  
HETATM   19  H   UNL     1      -8.215   4.590  66.209  1.00  0.00     0.000 HD 
HETATM   20  O   UNL     1      -8.629   5.379  66.538  1.00  0.00    -0.115 OA 
HETATM   21  C   UNL     1      -6.782   5.924  67.966  1.00  0.00    -0.061 C  
HETATM   22  H   UNL     1      -6.365   4.117  67.308  1.00  0.00     0.000 HD 
HETATM   23  C   UNL     1      -7.639   6.402  66.812  1.00  0.00    -0.098 C  
HETATM   24  O   UNL     1      -6.778   4.494  68.076  1.00  0.00    -0.048 OA 
BRANCH  18  25
HETATM   25  C   UNL     1      -6.419   7.186  70.122  1.00  0.00    -0.042 C  
BRANCH  25  26
HETATM   26  O   UNL     1      -6.700   6.710  71.439  1.00  0.00    -0.055 OA 
BRANCH  26  27
HETATM   27  P   UNL     1      -7.463   7.750  72.393  1.00  0.00    -0.098 P  
HETATM   28  O   UNL     1      -6.190   8.217  73.272  1.00  0.00    -0.076 OA 
HETATM   29  O   UNL     1      -8.160   8.891  71.712  1.00  0.00    -0.313 OA 
BRANCH  27  30
HETATM   30  O   UNL     1      -8.454   6.813  73.292  1.00  0.00    -0.117 OA 
HETATM   31  P   UNL     1      -8.465   5.123  72.923  1.00  0.00    -0.114 P  
HETATM   32  C   UNL     1      -8.477   3.335  72.531  1.00  0.00    -0.084 C  
HETATM   33  O   UNL     1      -9.461   5.474  71.654  1.00  0.00    -0.145 OA 
HETATM   34  O   UNL     1      -7.005   5.174  72.400  1.00  0.00    -0.073 OA 
HETATM   35 CL   UNL     1      -8.074   2.991  70.781  1.00  0.00    -0.058 Cl 
HETATM   36  P   UNL     1      -7.120   2.504  73.437  1.00  0.00    -0.034 P  
HETATM   37 CL   UNL     1     -10.143   2.710  72.772  1.00  0.00    -0.209 Cl 
HETATM   38  O   UNL     1      -8.211   1.961  74.561  1.00  0.00    -0.051 OA 
HETATM   39  O   UNL     1      -6.871   3.849  74.379  1.00  0.00    -0.054 OA 
HETATM   40  O   UNL     1      -5.974   1.800  74.204  1.00  0.00    -0.003 OA 
ENDBRANCH  27  30
ENDBRANCH  26  27
ENDBRANCH  25  26
ENDBRANCH  18  25
ENDBRANCH  11  16
BRANCH  14  41
HETATM   41  S   UNL     1     -11.519  12.275  67.474  1.00  0.00    -0.357 SA 
BRANCH  41  42
HETATM   42  C   UNL     1     -11.403  14.069  67.163  1.00  0.00    -0.331 C  
BRANCH  42  43
HETATM   43  C   UNL     1     -12.225  14.398  65.924  1.00  0.00    -0.354 C  
HETATM   44  C   UNL     1     -11.360  14.872  64.776  1.00  0.00    -0.397 C  
HETATM   45  F   UNL     1     -11.570  14.109  63.677  1.00  0.00    -0.212 F  
HETATM   46  F   UNL     1     -10.043  14.830  65.055  1.00  0.00    -0.385 F  
HETATM   47  F   UNL     1     -11.667  16.145  64.439  1.00  0.00    -0.436 F  
ENDBRANCH  42  43
ENDBRANCH  41  42
ENDBRANCH  14  41
ENDBRANCH   5   7
ENDBRANCH   4   5
ENDBRANCH   3   4
ENDBRANCH   2   3
TORSDOF 12
ENDMDL
MODEL      197
REMARK 921   NORMALIZED FREE ENERGY PREDICTED BY IDOCK:   -1.90 KCAL/MOL
REMARK 922        TOTAL FREE ENERGY PREDICTED BY IDOCK:   -4.23 KCAL/MOL
REMARK 923 INTER-LIGAND FREE ENERGY PREDICTED BY IDOCK:   -5.04 KCAL/MOL
REMARK 924 INTRA-LIGAND FREE ENERGY PREDICTED BY IDOCK:    0.80 KCAL/MOL
REMARK 927      BINDING AFFINITY PREDICTED BY RF-SCORE:    0.00 PKD
ROOT
HETATM    1  C   UNL     1      -6.865   4.186  68.940  1.00  0.00    -0.047 C  
HETATM    2  S   UNL     1      -8.636   3.829  68.995  1.00  0.00    -0.086 SA 
ENDROOT
BRANCH   2   3
HETATM    3  C   UNL     1      -9.264   5.478  69.489  1.00  0.00    -0.121 C  
BRANCH   3   4
HETATM    4  C   UNL     1      -8.560   6.619  68.722  1.00  0.00    -0.122 C  
BRANCH   4   5
HETATM    5  N   UNL     1      -9.114   6.761  67.387  1.00  0.00    -0.118 NA 
HETATM    6  H   UNL     1      -9.149   5.951  66.768  1.00  0.00     0.000 HD 
BRANCH   5   7
HETATM    7  C   UNL     1      -9.595   7.980  66.943  1.00  0.00    -0.204 A  
HETATM    8  C   UNL     1     -10.410   8.766  67.773  1.00  0.00    -0.237 A  
HETATM    9  N   UNL     1     -10.846   8.590  69.071  1.00  0.00    -0.078 NA 
HETATM   10  C   UNL     1     -11.514   9.697  69.357  1.00  0.00     0.093 A  
HETATM   11  N   UNL     1     -11.552  10.567  68.287  1.00  0.00    -0.386 NA 
HETATM   12  C   UNL     1     -10.849   9.984  67.273  1.00  0.00    -0.217 A  
HETATM   13  N   UNL     1      -9.308   8.457  65.697  1.00  0.00    -0.071 NA 
HETATM   14  C   UNL     1      -9.837   9.639  65.318  1.00  0.00    -0.199 A  
HETATM   15  N   UNL     1     -10.607  10.475  66.056  1.00  0.00    -0.147 NA 
BRANCH  11  16
HETATM   16  C   UNL     1     -12.067  11.916  68.362  1.00  0.00    -0.020 C  
HETATM   17  O   UNL     1     -11.369  12.700  67.386  1.00  0.00    -0.276 OA 
HETATM   18  C   UNL     1     -10.401  13.536  68.042  1.00  0.00    -0.241 C  
HETATM   19  H   UNL     1     -12.972  14.217  70.534  1.00  0.00     0.000 HD 
HETATM   20  O   UNL     1     -13.031  13.716  69.729  1.00  0.00     0.182 OA 
HETATM   21  C   UNL     1     -10.654  13.465  69.544  1.00  0.00     0.335 C  
HETATM   22  H   UNL     1     -10.889  14.748  71.017  1.00  0.00     0.000 HD 
HETATM   23  C   UNL     1     -11.972  12.728  69.663  1.00  0.00    -0.288 C  
HETATM   24  O   UNL     1     -10.731  14.792  70.081  1.00  0.00    -0.146 OA 
BRANCH  18  25
HETATM   25  C   UNL     1      -8.967  13.129  67.697  1.00  0.00    -0.192 C  
BRANCH  25  26
HETATM   26  O   UNL     1      -8.204  14.336  67.665  1.00  0.00    -0.157 OA 
BRANCH  26  27
HETATM   27  P   UNL     1      -6.668  14.185  68.105  1.00  0.00    -0.162 P  
HETATM   28  O   UNL     1      -6.918  13.866  69.669  1.00  0.00    -0.050 OA 
HETATM   29  O   UNL     1      -5.876  13.121  67.405  1.00  0.00    -0.303 OA 
BRANCH  27  30
HETATM   30  O   UNL     1      -6.055  15.689  67.929  1.00  0.00    -0.124 OA 
HETATM   31  P   UNL     1      -7.169  16.931  67.475  1.00  0.00    -0.169 P  
HETATM   32  C   UNL     1      -8.349  18.245  66.995  1.00  0.00    -0.248 C  
HETATM   33  O   UNL     1      -7.050  16.379  65.924  1.00  0.00     0.349 OA 
HETATM   34  O   UNL     1      -8.353  16.186  68.147  1.00  0.00    -0.161 OA 
HETATM   35 CL   UNL     1      -9.758  17.608  66.017  1.00  0.00    -0.209 Cl 
HETATM   36  P   UNL     1      -9.158  18.916  68.493  1.00  0.00    -0.336 P  
HETATM   37 CL   UNL     1      -7.503  19.404  65.916  1.00  0.00    -0.307 Cl 
HETATM   38  O   UNL     1      -8.143  20.225  68.448  1.00  0.00    -0.101 OA 
HETATM   39  O   UNL     1      -8.065  18.145  69.477  1.00  0.00     0.290 OA 
HETATM   40  O   UNL     1      -9.842  19.485  69.761  1.00  0.00    -0.129 OA 
ENDBRANCH  27  30
ENDBRANCH  26  27
ENDBRANCH  25  26
ENDBRANCH  18  25
ENDBRANCH  11  16
BRANCH  14  41
HETATM   41  S   UNL     1      -9.527  10.210  63.662  1.00  0.00    -0.193 SA 
BRANCH  41  42
HETATM   42  C   UNL     1      -8.508   8.836  63.026  1.00  0.00    -0.140 C  
BRANCH  42  43
HETATM   43  C   UNL     1      -7.050   9.280  63.021  1.00  0.00    -0.091 C  
HETATM   44  C   UNL     1      -6.193   8.428  63.931  1.00  0.00    -0.072 C  
HETATM   45  F   UNL     1      -5.153   7.898  63.244  1.00  0.00    -0.038 F  
HETATM   46  F   UNL     1      -6.870   7.408  64.493  1.00  0.00    -0.044 F  
HETATM   47  F   UNL     1      -5.669   9.172  64.930  1.00  0.00    -0.057 F  
ENDBRANCH  42  43
ENDBRANCH  41  42
ENDBRANCH  14  41
ENDBRANCH   5   7
ENDBRANCH   4   5
ENDBRANCH   3   4
ENDBRANCH   2   3
TORSDOF 12
ENDMDL
MODEL      198
REMARK 921   NORMALIZED FREE ENERGY PREDICTED BY IDOCK:   -1.89 KCAL/MOL
REMARK 922        TOTAL FREE ENERGY PREDICTED BY IDOCK:   -4.23 KCAL/MOL
REMARK 923 INTER-LIGAND FREE ENERGY PREDICTED BY IDOCK:   -4.16 KCAL/MOL
REMARK 924 INTRA-LIGAND FREE ENERGY PREDICTED BY IDOCK:   -0.07 KCAL/MOL
REMARK 927      BINDING AFFINITY PREDICTED BY RF-SCORE:    0.00 PKD
ROOT
HETATM    1  C   UNL     1      -6.330   5.587  73.656  1.00  0.00    -0.070 C  
HETATM    2  S   UNL     1      -6.264   3.802  73.382  1.00  0.00    -0.020 SA 
ENDROOT
BRANCH   2   3
HETATM    3  C   UNL     1      -8.044   3.402  73.559  1.00  0.00    -0.075 C  
BRANCH   3   4
HETATM    4  C   UNL     1      -8.927   4.667  73.534  1.00  0.00    -0.104 C  
BRANCH   4   5
HETATM    5  N   UNL     1      -9.081   5.162  72.177  1.00  0.00    -0.135 NA 
HETATM    6  H   UNL     1      -9.005   4.513  71.394  1.00  0.00     0.000 HD 
BRANCH   5   7
HETATM    7  C   UNL     1      -9.328   6.501  71.931  1.00  0.00    -0.148 A  
HETATM    8  C   UNL     1     -10.633   6.944  71.664  1.00  0.00    -0.209 A  
HETATM    9  N   UNL     1     -11.843   6.280  71.625  1.00  0.00    -0.296 NA 
HETATM   10  C   UNL     1     -12.743   7.226  71.408  1.00  0.00    -0.389 A  
HETATM   11  N   UNL     1     -12.160   8.469  71.274  1.00  0.00    -0.292 NA 
HETATM   12  C   UNL     1     -10.815   8.301  71.438  1.00  0.00    -0.239 A  
HETATM   13  N   UNL     1      -8.328   7.430  71.932  1.00  0.00    -0.106 NA 
HETATM   14  C   UNL     1      -8.637   8.713  71.653  1.00  0.00    -0.189 A  
HETATM   15  N   UNL     1      -9.863   9.235  71.411  1.00  0.00    -0.274 NA 
BRANCH  11  16
HETATM   16  C   UNL     1     -12.906   9.707  71.196  1.00  0.00    -0.316 C  
HETATM   17  O   UNL     1     -13.192   9.953  69.814  1.00  0.00     0.505 OA 
HETATM   18  C   UNL     1     -12.329  10.990  69.319  1.00  0.00    -0.090 C  
HETATM   19  H   UNL     1     -12.988  12.753  72.440  1.00  0.00     0.000 HD 
HETATM   20  O   UNL     1     -13.358  11.939  72.118  1.00  0.00    -0.503 OA 
HETATM   21  C   UNL     1     -11.611  11.615  70.509  1.00  0.00     0.071 C  
HETATM   22  H   UNL     1     -11.300  13.432  71.197  1.00  0.00     0.000 HD 
HETATM   23  C   UNL     1     -12.308  11.023  71.716  1.00  0.00     0.054 C  
HETATM   24  O   UNL     1     -11.747  13.042  70.456  1.00  0.00    -0.174 OA 
BRANCH  18  25
HETATM   25  C   UNL     1     -11.337  10.461  68.281  1.00  0.00    -0.224 C  
BRANCH  25  26
HETATM   26  O   UNL     1     -11.830  10.874  67.007  1.00  0.00    -0.223 OA 
BRANCH  26  27
HETATM   27  P   UNL     1     -11.487  12.388  66.600  1.00  0.00    -0.367 P  
HETATM   28  O   UNL     1     -11.152  12.126  65.040  1.00  0.00    -0.304 OA 
HETATM   29  O   UNL     1     -12.576  13.398  66.807  1.00  0.00    -0.193 OA 
BRANCH  27  30
HETATM   30  O   UNL     1     -10.114  12.719  67.421  1.00  0.00    -0.216 OA 
HETATM   31  P   UNL     1      -9.430  14.290  67.184  1.00  0.00    -0.244 P  
HETATM   32  C   UNL     1      -8.708  15.953  66.933  1.00  0.00    -0.241 C  
HETATM   33  O   UNL     1      -8.799  13.729  65.766  1.00  0.00     0.520 OA 
HETATM   34  O   UNL     1     -10.820  14.904  66.868  1.00  0.00    -0.306 OA 
HETATM   35 CL   UNL     1      -9.094  16.651  65.288  1.00  0.00     0.896 Cl 
HETATM   36  P   UNL     1      -9.498  17.140  68.081  1.00  0.00    -0.287 P  
HETATM   37 CL   UNL     1      -6.919  15.811  66.986  1.00  0.00    -0.200 Cl 
HETATM   38  O   UNL     1      -8.179  17.045  69.079  1.00  0.00    -0.225 OA 
HETATM   39  O   UNL     1     -10.197  15.904  68.942  1.00  0.00    -0.207 OA 
HETATM   40  O   UNL     1     -10.166  18.145  69.051  1.00  0.00    -0.381 OA 
ENDBRANCH  27  30
ENDBRANCH  26  27
ENDBRANCH  25  26
ENDBRANCH  18  25
ENDBRANCH  11  16
BRANCH  14  41
HETATM   41  S   UNL     1      -7.313   9.900  71.572  1.00  0.00     1.545 SA 
BRANCH  41  42
HETATM   42  C   UNL     1      -6.975   9.893  69.779  1.00  0.00    -0.095 C  
BRANCH  42  43
HETATM   43  C   UNL     1      -7.466  11.210  69.191  1.00  0.00    -0.109 C  
HETATM   44  C   UNL     1      -6.570  11.705  68.077  1.00  0.00    -0.062 C  
HETATM   45  F   UNL     1      -7.287  11.908  66.946  1.00  0.00    -0.136 F  
HETATM   46  F   UNL     1      -5.575  10.847  67.778  1.00  0.00    -0.043 F  
HETATM   47  F   UNL     1      -6.005  12.888  68.405  1.00  0.00    -0.062 F  
ENDBRANCH  42  43
ENDBRANCH  41  42
ENDBRANCH  14  41
ENDBRANCH   5   7
ENDBRANCH   4   5
ENDBRANCH   3   4
ENDBRANCH   2   3
TORSDOF 12
ENDMDL
MODEL      199
REMARK 921   NORMALIZED FREE ENERGY PREDICTED BY IDOCK:   -1.77 KCAL/MOL
REMARK 922        TOTAL FREE ENERGY PREDICTED BY IDOCK:   -4.02 KCAL/MOL
REMARK 923 INTER-LIGAND FREE ENERGY PREDICTED BY IDOCK:   -5.01 KCAL/MOL
REMARK 924 INTRA-LIGAND FREE ENERGY PREDICTED BY IDOCK:    0.99 KCAL/MOL
REMARK 927      BINDING AFFINITY PREDICTED BY RF-SCORE:    0.00 PKD
ROOT
HETATM    1  C   UNL     1      -6.741  19.245  65.368  1.00  0.00    -0.258 C  
HETATM    2  S   UNL     1      -5.428  18.847  66.543  1.00  0.00    -0.153 SA 
ENDROOT
BRANCH   2   3
HETATM    3  C   UNL     1      -5.256  17.053  66.210  1.00  0.00     0.085 C  
BRANCH   3   4
HETATM    4  C   UNL     1      -5.964  16.195  67.280  1.00  0.00    -0.110 C  
BRANCH   4   5
HETATM    5  N   UNL     1      -5.493  14.821  67.234  1.00  0.00    -0.186 NA 
HETATM    6  H   UNL     1      -4.634  14.601  66.731  1.00  0.00     0.000 HD 
BRANCH   5   7
HETATM    7  C   UNL     1      -6.195  13.808  67.862  1.00  0.00    -0.155 A  
HETATM    8  C   UNL     1      -7.466  13.432  67.400  1.00  0.00    -0.123 A  
HETATM    9  N   UNL     1      -8.225  13.869  66.331  1.00  0.00     0.617 NA 
HETATM   10  C   UNL     1      -9.298  13.093  66.338  1.00  0.00    -0.179 A  
HETATM   11  N   UNL     1      -9.277  12.195  67.384  1.00  0.00    -0.177 NA 
HETATM   12  C   UNL     1      -8.112  12.401  68.066  1.00  0.00    -0.162 A  
HETATM   13  N   UNL     1      -5.691  13.146  68.945  1.00  0.00    -0.072 NA 
HETATM   14  C   UNL     1      -6.444  12.191  69.527  1.00  0.00    -0.100 A  
HETATM   15  N   UNL     1      -7.662  11.745  69.137  1.00  0.00     0.038 NA 
BRANCH  11  16
HETATM   16  C   UNL     1     -10.231  11.119  67.544  1.00  0.00    -0.186 C  
HETATM   17  O   UNL     1     -11.538  11.704  67.603  1.00  0.00    -0.428 OA 
HETATM   18  C   UNL     1     -12.010  11.695  68.960  1.00  0.00    -0.305 C  
HETATM   19  H   UNL     1     -10.694   8.303  69.185  1.00  0.00     0.000 HD 
HETATM   20  O   UNL     1     -10.735   8.885  68.435  1.00  0.00    -0.176 OA 
HETATM   21  C   UNL     1     -11.057  10.838  69.787  1.00  0.00    -0.281 C  
HETATM   22  H   UNL     1     -11.216   9.343  71.057  1.00  0.00     0.000 HD 
HETATM   23  C   UNL     1     -10.164  10.178  68.757  1.00  0.00    -0.186 C  
HETATM   24  O   UNL     1     -11.809   9.877  70.542  1.00  0.00    -0.270 OA 
BRANCH  18  25
HETATM   25  C   UNL     1     -12.131  13.108  69.533  1.00  0.00    -0.238 C  
BRANCH  25  26
HETATM   26  O   UNL     1     -11.465  13.973  68.613  1.00  0.00    -0.263 OA 
BRANCH  26  27
HETATM   27  P   UNL     1     -10.974  15.373  69.223  1.00  0.00    -0.311 P  
HETATM   28  O   UNL     1     -12.403  16.128  69.221  1.00  0.00    -0.049 OA 
HETATM   29  O   UNL     1     -10.336  15.322  70.580  1.00  0.00    -0.161 OA 
BRANCH  27  30
HETATM   30  O   UNL     1     -10.008  15.997  68.062  1.00  0.00    -0.225 OA 
HETATM   31  P   UNL     1      -9.742  17.705  68.112  1.00  0.00    -0.345 P  
HETATM   32  C   UNL     1      -9.460  19.512  68.166  1.00  0.00    -0.359 C  
HETATM   33  O   UNL     1     -11.219  17.890  67.400  1.00  0.00    -0.036 OA 
HETATM   34  O   UNL     1      -9.955  17.745  69.649  1.00  0.00     0.066 OA 
HETATM   35 CL   UNL     1     -10.857  20.424  68.915  1.00  0.00     0.331 Cl 
HETATM   36  P   UNL     1      -8.073  19.880  69.302  1.00  0.00     0.565 P  
HETATM   37 CL   UNL     1      -9.339  20.121  66.481  1.00  0.00    -0.476 Cl 
HETATM   38  O   UNL     1      -7.063  20.062  68.001  1.00  0.00    -0.273 OA 
HETATM   39  O   UNL     1      -7.647  18.276  69.365  1.00  0.00    -0.026 OA 
HETATM   40  O   UNL     1      -6.898  20.191  70.262  1.00  0.00    -0.223 OA 
ENDBRANCH  27  30
ENDBRANCH  26  27
ENDBRANCH  25  26
ENDBRANCH  18  25
ENDBRANCH  11  16
BRANCH  14  41
HETATM   41  S   UNL     1      -5.813  11.396  70.989  1.00  0.00     0.292 SA 
BRANCH  41  42
HETATM   42  C   UNL     1      -5.785   9.658  70.433  1.00  0.00    -0.048 C  
BRANCH  42  43
HETATM   43  C   UNL     1      -6.549   8.815  71.446  1.00  0.00    -0.078 C  
HETATM   44  C   UNL     1      -7.691   8.055  70.808  1.00  0.00    -0.082 C  
HETATM   45  F   UNL     1      -7.576   6.729  71.059  1.00  0.00    -0.079 F  
HETATM   46  F   UNL     1      -7.748   8.212  69.471  1.00  0.00    -0.091 F  
HETATM   47  F   UNL     1      -8.877   8.453  71.319  1.00  0.00    -0.136 F  
ENDBRANCH  42  43
ENDBRANCH  41  42
ENDBRANCH  14  41
ENDBRANCH   5   7
ENDBRANCH   4   5
ENDBRANCH   3   4
ENDBRANCH   2   3
TORSDOF 12
ENDMDL
MODEL      200
REMARK 921   NORMALIZED FREE ENERGY PREDICTED BY IDOCK:   -1.72 KCAL/MOL
REMARK 922        TOTAL FREE ENERGY PREDICTED BY IDOCK:   -3.94 KCAL/MOL
REMARK 923 INTER-LIGAND FREE ENERGY PREDICTED BY IDOCK:   -5.79 KCAL/MOL
REMARK 924 INTRA-LIGAND FREE ENERGY PREDICTED BY IDOCK:    1.85 KCAL/MOL
REMARK 927      BINDING AFFINITY PREDICTED BY RF-SCORE:    0.00 PKD
ROOT
HETATM    1  C   UNL     1     -11.337  16.073  68.687  1.00  0.00    -0.383 C  
HETATM    2  S   UNL     1     -10.418  16.148  70.241  1.00  0.00     0.089 SA 
ENDROOT
BRANCH   2   3
HETATM    3  C   UNL     1      -9.028  15.028  69.825  1.00  0.00     0.127 C  
BRANCH   3   4
HETATM    4  C   UNL     1      -8.257  15.501  68.574  1.00  0.00    -0.148 C  
BRANCH   4   5
HETATM    5  N   UNL     1      -7.351  14.467  68.105  1.00  0.00    -0.115 NA 
HETATM    6  H   UNL     1      -6.347  14.576  68.248  1.00  0.00     0.000 HD 
BRANCH   5   7
HETATM    7  C   UNL     1      -7.831  13.337  67.467  1.00  0.00    -0.171 A  
HETATM    8  C   UNL     1      -6.942  12.417  66.889  1.00  0.00     0.113 A  
HETATM    9  N   UNL     1      -5.562  12.369  66.847  1.00  0.00    -0.321 NA 
HETATM   10  C   UNL     1      -5.280  11.226  66.242  1.00  0.00    -0.126 A  
HETATM   11  N   UNL     1      -6.421  10.548  65.865  1.00  0.00    -0.119 NA 
HETATM   12  C   UNL     1      -7.486  11.298  66.275  1.00  0.00    -0.010 A  
HETATM   13  N   UNL     1      -9.167  13.078  67.368  1.00  0.00    -0.199 NA 
HETATM   14  C   UNL     1      -9.565  11.973  66.704  1.00  0.00    -0.216 A  
HETATM   15  N   UNL     1      -8.784  11.020  66.142  1.00  0.00    -0.181 NA 
BRANCH  11  16
HETATM   16  C   UNL     1      -6.423   9.202  65.336  1.00  0.00    -0.068 C  
HETATM   17  O   UNL     1      -7.669   8.596  65.701  1.00  0.00    -0.087 OA 
HETATM   18  C   UNL     1      -7.459   7.669  66.778  1.00  0.00    -0.093 C  
HETATM   19  H   UNL     1      -4.485   6.566  64.982  1.00  0.00     0.000 HD 
HETATM   20  O   UNL     1      -5.148   7.194  64.721  1.00  0.00    -0.027 OA 
HETATM   21  C   UNL     1      -5.956   7.487  66.959  1.00  0.00    -0.046 C  
HETATM   22  H   UNL     1      -4.704   5.975  67.094  1.00  0.00     0.000 HD 
HETATM   23  C   UNL     1      -5.351   8.186  65.759  1.00  0.00    -0.028 C  
HETATM   24  O   UNL     1      -5.640   6.088  66.981  1.00  0.00    -0.011 OA 
BRANCH  18  25
HETATM   25  C   UNL     1      -8.125   8.136  68.073  1.00  0.00    -0.128 C  
BRANCH  25  26
HETATM   26  O   UNL     1      -8.687   6.971  68.679  1.00  0.00    -0.124 OA 
BRANCH  26  27
HETATM   27  P   UNL     1     -10.271   6.798  68.490  1.00  0.00    -0.201 P  
HETATM   28  O   UNL     1     -10.726   7.337  69.944  1.00  0.00    -0.233 OA 
HETATM   29  O   UNL     1     -10.894   7.559  67.357  1.00  0.00    -0.267 OA 
BRANCH  27  30
HETATM   30  O   UNL     1     -10.486   5.181  68.398  1.00  0.00    -0.118 OA 
HETATM   31  P   UNL     1      -9.871   4.398  66.984  1.00  0.00    -0.092 P  
HETATM   32  C   UNL     1      -9.219   3.570  65.487  1.00  0.00    -0.156 C  
HETATM   33  O   UNL     1     -11.218   4.923  66.187  1.00  0.00     0.057 OA 
HETATM   34  O   UNL     1      -8.770   5.477  66.802  1.00  0.00    -0.114 OA 
HETATM   35 CL   UNL     1      -9.188   4.670  64.026  1.00  0.00    -0.106 Cl 
HETATM   36  P   UNL     1      -7.451   3.166  65.735  1.00  0.00    -0.074 P  
HETATM   37 CL   UNL     1     -10.326   2.226  65.052  1.00  0.00     0.752 Cl 
HETATM   38  O   UNL     1      -7.862   1.594  66.062  1.00  0.00    -0.065 OA 
HETATM   39  O   UNL     1      -7.562   3.497  67.358  1.00  0.00    -0.072 OA 
HETATM   40  O   UNL     1      -5.956   2.823  65.945  1.00  0.00    -0.022 OA 
ENDBRANCH  27  30
ENDBRANCH  26  27
ENDBRANCH  25  26
ENDBRANCH  18  25
ENDBRANCH  11  16
BRANCH  14  41
HETATM   41  S   UNL     1     -11.311  11.691  66.507  1.00  0.00    -0.179 SA 
BRANCH  41  42
HETATM   42  C   UNL     1     -11.891  13.399  66.230  1.00  0.00    -0.394 C  
BRANCH  42  43
HETATM   43  C   UNL     1     -12.872  13.391  65.064  1.00  0.00    -0.344 C  
HETATM   44  C   UNL     1     -12.357  12.584  63.893  1.00  0.00    -0.485 C  
HETATM   45  F   UNL     1     -13.250  11.625  63.549  1.00  0.00    -0.563 F  
HETATM   46  F   UNL     1     -11.183  11.973  64.147  1.00  0.00    -0.336 F  
HETATM   47  F   UNL     1     -12.183  13.370  62.808  1.00  0.00    -0.498 F  
ENDBRANCH  42  43
ENDBRANCH  41  42
ENDBRANCH  14  41
ENDBRANCH   5   7
ENDBRANCH   4   5
ENDBRANCH   3   4
ENDBRANCH   2   3
TORSDOF 12
ENDMDL
MODEL      201
REMARK 921   NORMALIZED FREE ENERGY PREDICTED BY IDOCK:   -1.70 KCAL/MOL
REMARK 922        TOTAL FREE ENERGY PREDICTED BY IDOCK:   -3.90 KCAL/MOL
REMARK 923 INTER-LIGAND FREE ENERGY PREDICTED BY IDOCK:   -3.34 KCAL/MOL
REMARK 924 INTRA-LIGAND FREE ENERGY PREDICTED BY IDOCK:   -0.56 KCAL/MOL
REMARK 927      BINDING AFFINITY PREDICTED BY RF-SCORE:    0.00 PKD
ROOT
HETATM    1  C   UNL     1     -11.732   2.628  74.100  1.00  0.00     0.640 C  
HETATM    2  S   UNL     1     -10.714   1.922  72.785  1.00  0.00    -0.092 SA 
ENDROOT
BRANCH   2   3
HETATM    3  C   UNL     1      -9.900   3.448  72.178  1.00  0.00    -0.166 C  
BRANCH   3   4
HETATM    4  C   UNL     1      -8.982   4.079  73.246  1.00  0.00    -0.103 C  
BRANCH   4   5
HETATM    5  N   UNL     1      -9.192   5.514  73.325  1.00  0.00    -0.132 NA 
HETATM    6  H   UNL     1      -9.766   5.897  74.076  1.00  0.00     0.000 HD 
BRANCH   5   7
HETATM    7  C   UNL     1      -8.626   6.368  72.395  1.00  0.00    -0.120 A  
HETATM    8  C   UNL     1      -9.394   7.384  71.805  1.00  0.00    -0.145 A  
HETATM    9  N   UNL     1     -10.704   7.778  71.994  1.00  0.00    -0.220 NA 
HETATM   10  C   UNL     1     -10.851   8.846  71.226  1.00  0.00    -0.290 A  
HETATM   11  N   UNL     1      -9.699   9.139  70.525  1.00  0.00    -0.217 NA 
HETATM   12  C   UNL     1      -8.763   8.214  70.889  1.00  0.00    -0.140 A  
HETATM   13  N   UNL     1      -7.320   6.255  72.015  1.00  0.00    -0.091 NA 
HETATM   14  C   UNL     1      -6.843   7.102  71.080  1.00  0.00    -0.056 A  
HETATM   15  N   UNL     1      -7.498   8.123  70.478  1.00  0.00    -0.062 NA 
BRANCH  11  16
HETATM   16  C   UNL     1      -9.515  10.340  69.739  1.00  0.00    -0.091 C  
HETATM   17  O   UNL     1     -10.662  10.482  68.892  1.00  0.00    -0.192 OA 
HETATM   18  C   UNL     1     -10.316  10.113  67.546  1.00  0.00    -0.230 C  
HETATM   19  H   UNL     1      -7.227  11.984  68.038  1.00  0.00     0.000 HD 
HETATM   20  O   UNL     1      -7.973  11.891  68.619  1.00  0.00    -0.145 OA 
HETATM   21  C   UNL     1      -8.802   9.954  67.473  1.00  0.00    -0.128 C  
HETATM   22  H   UNL     1      -7.349  10.610  66.320  1.00  0.00     0.000 HD 
HETATM   23  C   UNL     1      -8.308  10.491  68.801  1.00  0.00    -0.136 C  
HETATM   24  O   UNL     1      -8.293  10.709  66.365  1.00  0.00    -0.139 OA 
BRANCH  18  25
HETATM   25  C   UNL     1     -11.035   8.838  67.101  1.00  0.00     0.206 C  
BRANCH  25  26
HETATM   26  O   UNL     1     -10.611   7.806  67.992  1.00  0.00    -0.201 OA 
BRANCH  26  27
HETATM   27  P   UNL     1      -9.987   6.508  67.286  1.00  0.00    -0.186 P  
HETATM   28  O   UNL     1      -8.696   6.336  68.244  1.00  0.00    -0.117 OA 
HETATM   29  O   UNL     1     -10.858   5.287  67.246  1.00  0.00    -0.130 OA 
BRANCH  27  30
HETATM   30  O   UNL     1      -9.526   7.040  65.812  1.00  0.00     0.093 OA 
HETATM   31  P   UNL     1      -7.972   6.524  65.255  1.00  0.00    -0.122 P  
HETATM   32  C   UNL     1      -6.327   5.978  64.666  1.00  0.00    -0.033 C  
HETATM   33  O   UNL     1      -7.312   7.696  66.212  1.00  0.00    -0.076 OA 
HETATM   34  O   UNL     1      -8.046   5.221  66.094  1.00  0.00    -0.107 OA 
HETATM   35 CL   UNL     1      -5.158   5.652  66.033  1.00  0.00    -0.008 Cl 
HETATM   36  P   UNL     1      -6.481   4.342  63.858  1.00  0.00    -0.036 P  
HETATM   37 CL   UNL     1      -5.592   7.310  63.713  1.00  0.00    -0.036 Cl 
HETATM   38  O   UNL     1      -6.438   5.078  62.373  1.00  0.00    -0.024 OA 
HETATM   39  O   UNL     1      -8.137   4.466  63.833  1.00  0.00    -0.088 OA 
HETATM   40  O   UNL     1      -6.611   2.960  63.173  1.00  0.00    -0.025 OA 
ENDBRANCH  27  30
ENDBRANCH  26  27
ENDBRANCH  25  26
ENDBRANCH  18  25
ENDBRANCH  11  16
BRANCH  14  41
HETATM   41  S   UNL     1      -5.164   6.890  70.529  1.00  0.00    -0.023 SA 
BRANCH  41  42
HETATM   42  C   UNL     1      -5.180   5.116  70.098  1.00  0.00    -0.004 C  
BRANCH  42  43
HETATM   43  C   UNL     1      -6.395   4.845  69.219  1.00  0.00    -0.031 C  
HETATM   44  C   UNL     1      -6.688   3.367  69.095  1.00  0.00    -0.037 C  
HETATM   45  F   UNL     1      -7.961   3.103  69.474  1.00  0.00    -0.049 F  
HETATM   46  F   UNL     1      -5.873   2.601  69.846  1.00  0.00    -0.019 F  
HETATM   47  F   UNL     1      -6.565   2.959  67.812  1.00  0.00    -0.034 F  
ENDBRANCH  42  43
ENDBRANCH  41  42
ENDBRANCH  14  41
ENDBRANCH   5   7
ENDBRANCH   4   5
ENDBRANCH   3   4
ENDBRANCH   2   3
TORSDOF 12
ENDMDL
MODEL      202
REMARK 921   NORMALIZED FREE ENERGY PREDICTED BY IDOCK:   -1.54 KCAL/MOL
REMARK 922        TOTAL FREE ENERGY PREDICTED BY IDOCK:   -3.63 KCAL/MOL
REMARK 923 INTER-LIGAND FREE ENERGY PREDICTED BY IDOCK:   -4.47 KCAL/MOL
REMARK 924 INTRA-LIGAND FREE ENERGY PREDICTED BY IDOCK:    0.84 KCAL/MOL
REMARK 927      BINDING AFFINITY PREDICTED BY RF-SCORE:    0.00 PKD
ROOT
HETATM    1  C   UNL     1     -12.221  13.746  71.336  1.00  0.00    -0.152 C  
HETATM    2  S   UNL     1     -13.232  12.425  72.042  1.00  0.00    -0.277 SA 
ENDROOT
BRANCH   2   3
HETATM    3  C   UNL     1     -12.986  11.137  70.763  1.00  0.00    -0.137 C  
BRANCH   3   4
HETATM    4  C   UNL     1     -11.805  11.469  69.826  1.00  0.00    -0.357 C  
BRANCH   4   5
HETATM    5  N   UNL     1     -11.555  10.376  68.903  1.00  0.00    -0.486 NA 
HETATM    6  H   UNL     1     -12.326   9.993  68.356  1.00  0.00     0.000 HD 
BRANCH   5   7
HETATM    7  C   UNL     1     -10.286   9.846  68.755  1.00  0.00    -0.189 A  
HETATM    8  C   UNL     1     -10.021   8.909  67.744  1.00  0.00    -0.192 A  
HETATM    9  N   UNL     1     -10.816   8.379  66.747  1.00  0.00    -0.027 NA 
HETATM   10  C   UNL     1     -10.003   7.609  66.038  1.00  0.00     0.386 A  
HETATM   11  N   UNL     1      -8.725   7.597  66.555  1.00  0.00    -0.142 NA 
HETATM   12  C   UNL     1      -8.725   8.425  67.642  1.00  0.00    -0.137 A  
HETATM   13  N   UNL     1      -9.257  10.201  69.579  1.00  0.00    -0.214 NA 
HETATM   14  C   UNL     1      -8.053   9.620  69.397  1.00  0.00    -0.118 A  
HETATM   15  N   UNL     1      -7.699   8.732  68.438  1.00  0.00    -0.095 NA 
BRANCH  11  16
HETATM   16  C   UNL     1      -7.593   6.980  65.898  1.00  0.00    -0.097 C  
HETATM   17  O   UNL     1      -6.512   7.921  65.923  1.00  0.00    -0.042 OA 
HETATM   18  C   UNL     1      -6.351   8.506  64.620  1.00  0.00    -0.065 C  
HETATM   19  H   UNL     1      -6.816   5.150  63.276  1.00  0.00     0.000 HD 
HETATM   20  O   UNL     1      -6.759   5.434  64.181  1.00  0.00    -0.043 OA 
HETATM   21  C   UNL     1      -7.218   7.724  63.640  1.00  0.00    -0.082 C  
HETATM   22  H   UNL     1      -6.973   6.856  61.891  1.00  0.00     0.000 HD 
HETATM   23  C   UNL     1      -7.684   6.521  64.435  1.00  0.00    -0.109 C  
HETATM   24  O   UNL     1      -6.433   7.344  62.502  1.00  0.00    -0.063 OA 
BRANCH  18  25
HETATM   25  C   UNL     1      -6.703   9.994  64.614  1.00  0.00    -0.128 C  
BRANCH  25  26
HETATM   26  O   UNL     1      -8.097  10.078  64.915  1.00  0.00    -0.141 OA 
BRANCH  26  27
HETATM   27  P   UNL     1      -9.049  10.381  63.659  1.00  0.00    -0.295 P  
HETATM   28  O   UNL     1      -8.132   9.697  62.517  1.00  0.00    -0.122 OA 
HETATM   29  O   UNL     1     -10.435   9.812  63.721  1.00  0.00     1.288 OA 
BRANCH  27  30
HETATM   30  O   UNL     1      -9.009  12.008  63.513  1.00  0.00     0.225 OA 
HETATM   31  P   UNL     1     -10.157  12.898  64.450  1.00  0.00    -0.012 P  
HETATM   32  C   UNL     1     -11.373  13.839  65.444  1.00  0.00    -0.308 C  
HETATM   33  O   UNL     1     -11.284  12.525  63.303  1.00  0.00    -0.452 OA 
HETATM   34  O   UNL     1     -10.208  11.789  65.535  1.00  0.00    -0.233 OA 
HETATM   35 CL   UNL     1     -12.902  12.892  65.773  1.00  0.00     0.016 Cl 
HETATM   36  P   UNL     1     -10.698  14.127  67.121  1.00  0.00    -0.286 P  
HETATM   37 CL   UNL     1     -11.892  15.274  64.498  1.00  0.00    -0.364 Cl 
HETATM   38  O   UNL     1     -10.299  15.677  66.688  1.00  0.00    -0.275 OA 
HETATM   39  O   UNL     1      -9.185  13.640  66.639  1.00  0.00    -0.249 OA 
HETATM   40  O   UNL     1     -10.127  14.372  68.539  1.00  0.00    -0.232 OA 
ENDBRANCH  27  30
ENDBRANCH  26  27
ENDBRANCH  25  26
ENDBRANCH  18  25
ENDBRANCH  11  16
BRANCH  14  41
HETATM   41  S   UNL     1      -6.742  10.026  70.530  1.00  0.00    -0.076 SA 
BRANCH  41  42
HETATM   42  C   UNL     1      -7.389   9.278  72.064  1.00  0.00     0.535 C  
BRANCH  42  43
HETATM   43  C   UNL     1      -7.448   7.768  71.876  1.00  0.00    -0.078 C  
HETATM   44  C   UNL     1      -8.642   7.153  72.573  1.00  0.00    -0.115 C  
HETATM   45  F   UNL     1      -9.388   6.442  71.695  1.00  0.00    -0.145 F  
HETATM   46  F   UNL     1      -9.449   8.069  73.144  1.00  0.00    -0.263 F  
HETATM   47  F   UNL     1      -8.244   6.297  73.540  1.00  0.00    -0.115 F  
ENDBRANCH  42  43
ENDBRANCH  41  42
ENDBRANCH  14  41
ENDBRANCH   5   7
ENDBRANCH   4   5
ENDBRANCH   3   4
ENDBRANCH   2   3
TORSDOF 12
ENDMDL
MODEL      203
REMARK 921   NORMALIZED FREE ENERGY PREDICTED BY IDOCK:   -1.32 KCAL/MOL
REMARK 922        TOTAL FREE ENERGY PREDICTED BY IDOCK:   -3.26 KCAL/MOL
REMARK 923 INTER-LIGAND FREE ENERGY PREDICTED BY IDOCK:   -5.88 KCAL/MOL
REMARK 924 INTRA-LIGAND FREE ENERGY PREDICTED BY IDOCK:    2.62 KCAL/MOL
REMARK 927      BINDING AFFINITY PREDICTED BY RF-SCORE:    0.00 PKD
ROOT
HETATM    1  C   UNL     1      -9.170  21.007  67.759  1.00  0.00     0.143 C  
HETATM    2  S   UNL     1      -9.811  19.320  67.841  1.00  0.00    -0.375 SA 
ENDROOT
BRANCH   2   3
HETATM    3  C   UNL     1      -9.371  18.746  66.156  1.00  0.00    -0.161 C  
BRANCH   3   4
HETATM    4  C   UNL     1      -8.054  17.940  66.145  1.00  0.00    -0.173 C  
BRANCH   4   5
HETATM    5  N   UNL     1      -8.238  16.660  65.484  1.00  0.00     0.298 NA 
HETATM    6  H   UNL     1      -7.667  16.427  64.672  1.00  0.00     0.000 HD 
BRANCH   5   7
HETATM    7  C   UNL     1      -9.178  15.753  65.940  1.00  0.00    -0.302 A  
HETATM    8  C   UNL     1      -8.872  14.887  67.002  1.00  0.00    -0.232 A  
HETATM    9  N   UNL     1      -7.745  14.757  67.790  1.00  0.00    -0.141 NA 
HETATM   10  C   UNL     1      -8.062  13.835  68.685  1.00  0.00    -0.084 A  
HETATM   11  N   UNL     1      -9.336  13.344  68.490  1.00  0.00    -0.148 NA 
HETATM   12  C   UNL     1      -9.862  14.010  67.420  1.00  0.00    -0.240 A  
HETATM   13  N   UNL     1     -10.420  15.659  65.380  1.00  0.00    -0.387 NA 
HETATM   14  C   UNL     1     -11.274  14.729  65.855  1.00  0.00    -0.340 A  
HETATM   15  N   UNL     1     -11.078  13.875  66.887  1.00  0.00    -0.296 NA 
BRANCH  11  16
HETATM   16  C   UNL     1     -10.009  12.452  69.409  1.00  0.00     0.774 C  
HETATM   17  O   UNL     1      -9.291  11.212  69.413  1.00  0.00     0.055 OA 
HETATM   18  C   UNL     1     -10.022  10.229  68.663  1.00  0.00    -0.173 C  
HETATM   19  H   UNL     1     -13.017  11.478  70.324  1.00  0.00     0.000 HD 
HETATM   20  O   UNL     1     -12.108  11.721  70.457  1.00  0.00    -0.363 OA 
HETATM   21  C   UNL     1     -11.405  10.796  68.360  1.00  0.00    -0.302 C  
HETATM   22  H   UNL     1     -13.269  10.197  68.549  1.00  0.00     0.000 HD 
HETATM   23  C   UNL     1     -11.479  12.058  69.195  1.00  0.00    -0.300 C  
HETATM   24  O   UNL     1     -12.408   9.843  68.737  1.00  0.00     0.676 OA 
BRANCH  18  25
HETATM   25  C   UNL     1      -9.290   9.827  67.381  1.00  0.00    -0.134 C  
BRANCH  25  26
HETATM   26  O   UNL     1      -8.811   8.498  67.593  1.00  0.00    -0.135 OA 
BRANCH  26  27
HETATM   27  P   UNL     1      -9.104   7.890  69.048  1.00  0.00    -0.142 P  
HETATM   28  O   UNL     1      -7.589   7.924  69.610  1.00  0.00    -0.093 OA 
HETATM   29  O   UNL     1     -10.069   8.652  69.908  1.00  0.00    -0.186 OA 
BRANCH  27  30
HETATM   30  O   UNL     1      -9.558   6.349  68.751  1.00  0.00    -0.126 OA 
HETATM   31  P   UNL     1      -8.981   5.146  69.852  1.00  0.00    -0.113 P  
HETATM   32  C   UNL     1      -8.371   3.874  71.018  1.00  0.00    -0.068 C  
HETATM   33  O   UNL     1      -7.541   5.192  69.045  1.00  0.00    -0.074 OA 
HETATM   34  O   UNL     1      -8.900   6.173  71.013  1.00  0.00    -0.138 OA 
HETATM   35 CL   UNL     1      -6.774   4.327  71.787  1.00  0.00    -0.029 Cl 
HETATM   36  P   UNL     1      -9.502   3.768  72.453  1.00  0.00    -0.143 P  
HETATM   37 CL   UNL     1      -8.050   2.366  70.099  1.00  0.00    -0.053 Cl 
HETATM   38  O   UNL     1     -10.194   2.411  71.800  1.00  0.00    -0.128 OA 
HETATM   39  O   UNL     1     -10.644   4.685  71.670  1.00  0.00    -0.110 OA 
HETATM   40  O   UNL     1     -10.460   3.678  73.666  1.00  0.00    -0.146 OA 
ENDBRANCH  27  30
ENDBRANCH  26  27
ENDBRANCH  25  26
ENDBRANCH  18  25
ENDBRANCH  11  16
BRANCH  14  41
HETATM   41  S   UNL     1     -12.858  14.558  65.061  1.00  0.00     0.186 SA 
BRANCH  41  42
HETATM   42  C   UNL     1     -12.355  13.783  63.487  1.00  0.00    -0.111 C  
BRANCH  42  43
HETATM   43  C   UNL     1     -12.292  12.275  63.691  1.00  0.00    -0.664 C  
HETATM   44  C   UNL     1     -10.869  11.769  63.771  1.00  0.00    -0.424 C  
HETATM   45  F   UNL     1     -10.674  11.082  64.922  1.00  0.00    -0.360 F  
HETATM   46  F   UNL     1      -9.954  12.758  63.729  1.00  0.00    -0.398 F  
HETATM   47  F   UNL     1     -10.603  10.921  62.753  1.00  0.00    -0.217 F  
ENDBRANCH  42  43
ENDBRANCH  41  42
ENDBRANCH  14  41
ENDBRANCH   5   7
ENDBRANCH   4   5
ENDBRANCH   3   4
ENDBRANCH   2   3
TORSDOF 12
ENDMDL
MODEL      204
REMARK 921   NORMALIZED FREE ENERGY PREDICTED BY IDOCK:   -1.15 KCAL/MOL
REMARK 922        TOTAL FREE ENERGY PREDICTED BY IDOCK:   -2.96 KCAL/MOL
REMARK 923 INTER-LIGAND FREE ENERGY PREDICTED BY IDOCK:   -3.10 KCAL/MOL
REMARK 924 INTRA-LIGAND FREE ENERGY PREDICTED BY IDOCK:    0.14 KCAL/MOL
REMARK 927      BINDING AFFINITY PREDICTED BY RF-SCORE:    0.00 PKD
ROOT
HETATM    1  C   UNL     1     -13.606  11.275  72.025  1.00  0.00    -0.031 C  
HETATM    2  S   UNL     1     -13.038  12.978  72.226  1.00  0.00    -0.254 SA 
ENDROOT
BRANCH   2   3
HETATM    3  C   UNL     1     -13.085  13.523  70.476  1.00  0.00     0.157 C  
BRANCH   3   4
HETATM    4  C   UNL     1     -13.427  12.362  69.518  1.00  0.00     3.284 C  
BRANCH   4   5
HETATM    5  N   UNL     1     -12.272  11.997  68.717  1.00  0.00    -0.230 NA 
HETATM    6  H   UNL     1     -11.905  11.047  68.767  1.00  0.00     0.000 HD 
BRANCH   5   7
HETATM    7  C   UNL     1     -11.660  12.921  67.888  1.00  0.00    -0.345 A  
HETATM    8  C   UNL     1     -10.568  13.674  68.347  1.00  0.00    -0.251 A  
HETATM    9  N   UNL     1      -9.882  13.666  69.545  1.00  0.00     0.630 NA 
HETATM   10  C   UNL     1      -8.892  14.529  69.374  1.00  0.00     0.222 A  
HETATM   11  N   UNL     1      -8.929  15.114  68.126  1.00  0.00    -0.171 NA 
HETATM   12  C   UNL     1      -9.993  14.574  67.462  1.00  0.00    -0.224 A  
HETATM   13  N   UNL     1     -12.092  13.140  66.611  1.00  0.00    -0.378 NA 
HETATM   14  C   UNL     1     -11.469  14.079  65.870  1.00  0.00    -0.330 A  
HETATM   15  N   UNL     1     -10.397  14.830  66.217  1.00  0.00    -0.287 NA 
BRANCH  11  16
HETATM   16  C   UNL     1      -7.884  15.967  67.602  1.00  0.00    -0.146 C  
HETATM   17  O   UNL     1      -6.680  15.191  67.546  1.00  0.00    -0.168 OA 
HETATM   18  C   UNL     1      -5.807  15.577  68.620  1.00  0.00    -0.098 C  
HETATM   19  H   UNL     1      -6.689  19.025  67.835  1.00  0.00     0.000 HD 
HETATM   20  O   UNL     1      -6.935  18.223  67.388  1.00  0.00    -0.195 OA 
HETATM   21  C   UNL     1      -6.375  16.838  69.262  1.00  0.00    -0.213 C  
HETATM   22  H   UNL     1      -5.698  18.617  69.760  1.00  0.00     0.000 HD 
HETATM   23  C   UNL     1      -7.486  17.263  68.325  1.00  0.00    -0.224 C  
HETATM   24  O   UNL     1      -5.345  17.831  69.360  1.00  0.00    -0.180 OA 
BRANCH  18  25
HETATM   25  C   UNL     1      -5.634  14.455  69.646  1.00  0.00    -0.095 C  
BRANCH  25  26
HETATM   26  O   UNL     1      -5.152  13.321  68.925  1.00  0.00    -0.065 OA 
BRANCH  26  27
HETATM   27  P   UNL     1      -6.046  11.996  69.059  1.00  0.00    -0.088 P  
HETATM   28  O   UNL     1      -6.007  11.865  70.669  1.00  0.00    -0.287 OA 
HETATM   29  O   UNL     1      -7.439  12.072  68.507  1.00  0.00    -0.107 OA 
BRANCH  27  30
HETATM   30  O   UNL     1      -5.129  10.827  68.378  1.00  0.00    -0.035 OA 
HETATM   31  P   UNL     1      -5.973   9.557  67.564  1.00  0.00    -0.052 P  
HETATM   32  C   UNL     1      -6.868   8.213  66.701  1.00  0.00    -0.068 C  
HETATM   33  O   UNL     1      -6.258   8.885  69.045  1.00  0.00    -0.043 OA 
HETATM   34  O   UNL     1      -7.168  10.491  67.236  1.00  0.00    -0.086 OA 
HETATM   35 CL   UNL     1      -8.534   7.915  67.393  1.00  0.00    -0.122 Cl 
HETATM   36  P   UNL     1      -7.223   8.723  64.979  1.00  0.00    -0.087 P  
HETATM   37 CL   UNL     1      -5.966   6.680  66.945  1.00  0.00    -0.021 Cl 
HETATM   38  O   UNL     1      -5.946   7.808  64.451  1.00  0.00    -0.047 OA 
HETATM   39  O   UNL     1      -6.194  10.021  65.110  1.00  0.00    -0.092 OA 
HETATM   40  O   UNL     1      -7.521   9.154  63.522  1.00  0.00    -0.099 OA 
ENDBRANCH  27  30
ENDBRANCH  26  27
ENDBRANCH  25  26
ENDBRANCH  18  25
ENDBRANCH  11  16
BRANCH  14  41
HETATM   41  S   UNL     1     -12.096  14.416  64.239  1.00  0.00    -0.357 SA 
BRANCH  41  42
HETATM   42  C   UNL     1     -12.120  12.730  63.541  1.00  0.00    -0.559 C  
BRANCH  42  43
HETATM   43  C   UNL     1     -10.686  12.308  63.250  1.00  0.00    -0.335 C  
HETATM   44  C   UNL     1     -10.274  11.099  64.061  1.00  0.00    -0.361 C  
HETATM   45  F   UNL     1      -9.835  10.110  63.247  1.00  0.00    -0.338 F  
HETATM   46  F   UNL     1     -11.277  10.596  64.807  1.00  0.00    -0.109 F  
HETATM   47  F   UNL     1      -9.256  11.405  64.896  1.00  0.00    -0.218 F  
ENDBRANCH  42  43
ENDBRANCH  41  42
ENDBRANCH  14  41
ENDBRANCH   5   7
ENDBRANCH   4   5
ENDBRANCH   3   4
ENDBRANCH   2   3
TORSDOF 12
ENDMDL
MODEL      205
REMARK 921   NORMALIZED FREE ENERGY PREDICTED BY IDOCK:   -1.06 KCAL/MOL
REMARK 922        TOTAL FREE ENERGY PREDICTED BY IDOCK:   -2.82 KCAL/MOL
REMARK 923 INTER-LIGAND FREE ENERGY PREDICTED BY IDOCK:   -2.56 KCAL/MOL
REMARK 924 INTRA-LIGAND FREE ENERGY PREDICTED BY IDOCK:   -0.26 KCAL/MOL
REMARK 927      BINDING AFFINITY PREDICTED BY RF-SCORE:    0.00 PKD
ROOT
HETATM    1  C   UNL     1      -7.012  14.228  72.518  1.00  0.00     3.242 C  
HETATM    2  S   UNL     1      -5.616  13.945  71.406  1.00  0.00    -0.219 SA 
ENDROOT
BRANCH   2   3
HETATM    3  C   UNL     1      -6.527  13.675  69.839  1.00  0.00    -0.035 C  
BRANCH   3   4
HETATM    4  C   UNL     1      -5.810  14.321  68.634  1.00  0.00    -0.086 C  
BRANCH   4   5
HETATM    5  N   UNL     1      -6.557  14.095  67.408  1.00  0.00    -0.377 NA 
HETATM    6  H   UNL     1      -6.509  14.783  66.657  1.00  0.00     0.000 HD 
BRANCH   5   7
HETATM    7  C   UNL     1      -7.333  12.961  67.247  1.00  0.00    -0.070 A  
HETATM    8  C   UNL     1      -6.739  11.690  67.240  1.00  0.00    -0.124 A  
HETATM    9  N   UNL     1      -5.430  11.282  67.413  1.00  0.00    -0.046 NA 
HETATM   10  C   UNL     1      -5.482   9.959  67.392  1.00  0.00    -0.039 A  
HETATM   11  N   UNL     1      -6.764   9.497  67.182  1.00  0.00    -0.071 NA 
HETATM   12  C   UNL     1      -7.574  10.592  67.086  1.00  0.00    -0.099 A  
HETATM   13  N   UNL     1      -8.687  13.032  67.083  1.00  0.00    -0.203 NA 
HETATM   14  C   UNL     1      -9.376  11.887  66.898  1.00  0.00    -0.196 A  
HETATM   15  N   UNL     1      -8.895  10.621  66.904  1.00  0.00    -0.137 NA 
BRANCH  11  16
HETATM   16  C   UNL     1      -7.147   8.105  67.275  1.00  0.00    -0.079 C  
HETATM   17  O   UNL     1      -7.394   7.816  68.657  1.00  0.00    -0.083 OA 
HETATM   18  C   UNL     1      -6.296   7.063  69.197  1.00  0.00    -0.035 C  
HETATM   19  H   UNL     1      -6.361   5.129  66.108  1.00  0.00     0.000 HD 
HETATM   20  O   UNL     1      -6.948   5.817  66.401  1.00  0.00    -0.058 OA 
HETATM   21  C   UNL     1      -5.401   6.635  68.040  1.00  0.00    -0.008 C  
HETATM   22  H   UNL     1      -4.588   4.959  67.405  1.00  0.00     0.000 HD 
HETATM   23  C   UNL     1      -6.198   6.992  66.802  1.00  0.00    -0.042 C  
HETATM   24  O   UNL     1      -5.145   5.226  68.126  1.00  0.00    -0.003 OA 
BRANCH  18  25
HETATM   25  C   UNL     1      -5.515   7.862  70.242  1.00  0.00    -0.023 C  
BRANCH  25  26
HETATM   26  O   UNL     1      -5.762   7.228  71.498  1.00  0.00    -0.035 OA 
BRANCH  26  27
HETATM   27  P   UNL     1      -6.921   7.896  72.384  1.00  0.00    -0.086 P  
HETATM   28  O   UNL     1      -6.178   7.814  73.817  1.00  0.00    -0.071 OA 
HETATM   29  O   UNL     1      -7.327   9.291  72.010  1.00  0.00    -0.313 OA 
BRANCH  27  30
HETATM   30  O   UNL     1      -8.143   6.813  72.322  1.00  0.00    -0.099 OA 
HETATM   31  P   UNL     1      -9.634   7.368  71.644  1.00  0.00    -0.149 P  
HETATM   32  C   UNL     1     -11.212   7.955  70.926  1.00  0.00    -0.270 C  
HETATM   33  O   UNL     1      -9.950   8.088  73.096  1.00  0.00    -0.293 OA 
HETATM   34  O   UNL     1      -8.903   8.408  70.755  1.00  0.00    -0.135 OA 
HETATM   35 CL   UNL     1     -11.465   9.752  71.150  1.00  0.00    -0.443 Cl 
HETATM   36  P   UNL     1     -11.160   7.770  69.106  1.00  0.00     0.411 P  
HETATM   37 CL   UNL     1     -12.566   7.167  71.804  1.00  0.00    -0.383 Cl 
HETATM   38  O   UNL     1     -12.072   6.391  69.226  1.00  0.00     0.283 OA 
HETATM   39  O   UNL     1      -9.793   6.832  69.201  1.00  0.00    -0.155 OA 
HETATM   40  O   UNL     1     -11.117   7.612  67.566  1.00  0.00    -0.087 OA 
ENDBRANCH  27  30
ENDBRANCH  26  27
ENDBRANCH  25  26
ENDBRANCH  18  25
ENDBRANCH  11  16
BRANCH  14  41
HETATM   41  S   UNL     1     -11.127  11.998  66.599  1.00  0.00    -0.325 SA 
BRANCH  41  42
HETATM   42  C   UNL     1     -11.733  12.294  68.295  1.00  0.00    -0.336 C  
BRANCH  42  43
HETATM   43  C   UNL     1     -12.167  13.750  68.404  1.00  0.00    -0.181 C  
HETATM   44  C   UNL     1     -12.048  14.274  69.819  1.00  0.00    -0.347 C  
HETATM   45  F   UNL     1     -11.274  15.384  69.849  1.00  0.00    -0.227 F  
HETATM   46  F   UNL     1     -11.510  13.380  70.670  1.00  0.00    -0.191 F  
HETATM   47  F   UNL     1     -13.261  14.624  70.303  1.00  0.00    -0.332 F  
ENDBRANCH  42  43
ENDBRANCH  41  42
ENDBRANCH  14  41
ENDBRANCH   5   7
ENDBRANCH   4   5
ENDBRANCH   3   4
ENDBRANCH   2   3
TORSDOF 12
ENDMDL
MODEL      206
REMARK 921   NORMALIZED FREE ENERGY PREDICTED BY IDOCK:   -0.97 KCAL/MOL
REMARK 922        TOTAL FREE ENERGY PREDICTED BY IDOCK:   -2.67 KCAL/MOL
REMARK 923 INTER-LIGAND FREE ENERGY PREDICTED BY IDOCK:   -4.83 KCAL/MOL
REMARK 924 INTRA-LIGAND FREE ENERGY PREDICTED BY IDOCK:    2.16 KCAL/MOL
REMARK 927      BINDING AFFINITY PREDICTED BY RF-SCORE:    0.00 PKD
ROOT
HETATM    1  C   UNL     1     -11.396   2.695  73.744  1.00  0.00    -0.142 C  
HETATM    2  S   UNL     1     -10.069   3.211  72.631  1.00  0.00    -0.156 SA 
ENDROOT
BRANCH   2   3
HETATM    3  C   UNL     1     -10.438   5.003  72.529  1.00  0.00    -0.215 C  
BRANCH   3   4
HETATM    4  C   UNL     1     -10.544   5.653  73.926  1.00  0.00    -0.256 C  
BRANCH   4   5
HETATM    5  N   UNL     1     -10.778   7.082  73.813  1.00  0.00    -0.513 NA 
HETATM    6  H   UNL     1     -11.455   7.531  74.429  1.00  0.00     0.000 HD 
BRANCH   5   7
HETATM    7  C   UNL     1     -10.093   7.843  72.882  1.00  0.00    -0.310 A  
HETATM    8  C   UNL     1     -10.795   8.596  71.927  1.00  0.00    -0.348 A  
HETATM    9  N   UNL     1     -12.147   8.791  71.718  1.00  0.00    -0.326 NA 
HETATM   10  C   UNL     1     -12.213   9.668  70.728  1.00  0.00    -0.230 A  
HETATM   11  N   UNL     1     -10.962  10.024  70.270  1.00  0.00    -0.295 NA 
HETATM   12  C   UNL     1     -10.051   9.347  71.030  1.00  0.00    -0.283 A  
HETATM   13  N   UNL     1      -8.730   7.887  72.849  1.00  0.00    -0.165 NA 
HETATM   14  C   UNL     1      -8.129   8.626  71.893  1.00  0.00    -0.088 A  
HETATM   15  N   UNL     1      -8.720   9.401  70.953  1.00  0.00    -0.260 NA 
BRANCH  11  16
HETATM   16  C   UNL     1     -10.723  11.082  69.313  1.00  0.00    -0.222 C  
HETATM   17  O   UNL     1     -11.521  10.807  68.155  1.00  0.00    -0.349 OA 
HETATM   18  C   UNL     1     -10.685  10.304  67.100  1.00  0.00    -0.241 C  
HETATM   19  H   UNL     1      -8.298  12.898  68.027  1.00  0.00     0.000 HD 
HETATM   20  O   UNL     1      -9.170  12.734  68.365  1.00  0.00    -0.198 OA 
HETATM   21  C   UNL     1      -9.231  10.491  67.519  1.00  0.00    -0.142 C  
HETATM   22  H   UNL     1      -7.603  11.260  66.726  1.00  0.00     0.000 HD 
HETATM   23  C   UNL     1      -9.312  11.347  68.766  1.00  0.00    -0.106 C  
HETATM   24  O   UNL     1      -8.509  11.143  66.465  1.00  0.00    -0.155 OA 
BRANCH  18  25
HETATM   25  C   UNL     1     -10.990   8.840  66.777  1.00  0.00     0.423 C  
BRANCH  25  26
HETATM   26  O   UNL     1     -10.093   8.059  67.568  1.00  0.00    -0.183 OA 
BRANCH  26  27
HETATM   27  P   UNL     1     -10.661   6.635  68.040  1.00  0.00    -0.280 P  
HETATM   28  O   UNL     1      -9.779   6.481  69.385  1.00  0.00    -0.146 OA 
HETATM   29  O   UNL     1     -12.138   6.555  68.290  1.00  0.00     1.277 OA 
BRANCH  27  30
HETATM   30  O   UNL     1     -10.127   5.596  66.897  1.00  0.00    -0.154 OA 
HETATM   31  P   UNL     1      -8.539   4.948  67.121  1.00  0.00    -0.102 P  
HETATM   32  C   UNL     1      -6.859   4.263  67.359  1.00  0.00    -0.052 C  
HETATM   33  O   UNL     1      -7.947   6.371  66.528  1.00  0.00    -0.105 OA 
HETATM   34  O   UNL     1      -8.643   5.090  68.662  1.00  0.00    -0.094 OA 
HETATM   35 CL   UNL     1      -5.761   5.388  68.292  1.00  0.00    -0.015 Cl 
HETATM   36  P   UNL     1      -6.950   2.787  68.438  1.00  0.00    -0.049 P  
HETATM   37 CL   UNL     1      -6.089   4.069  65.748  1.00  0.00    -0.027 Cl 
HETATM   38  O   UNL     1      -6.835   1.811  67.104  1.00  0.00    -0.037 OA 
HETATM   39  O   UNL     1      -8.603   2.734  68.294  1.00  0.00    -0.077 OA 
HETATM   40  O   UNL     1      -7.026   1.538  69.350  1.00  0.00    -0.032 OA 
ENDBRANCH  27  30
ENDBRANCH  26  27
ENDBRANCH  25  26
ENDBRANCH  18  25
ENDBRANCH  11  16
BRANCH  14  41
HETATM   41  S   UNL     1      -6.351   8.606  71.807  1.00  0.00    -0.074 SA 
BRANCH  41  42
HETATM   42  C   UNL     1      -6.019  10.370  71.476  1.00  0.00     0.331 C  
BRANCH  42  43
HETATM   43  C   UNL     1      -6.406  10.670  70.033  1.00  0.00    -0.126 C  
HETATM   44  C   UNL     1      -6.195  12.125  69.679  1.00  0.00    -0.131 C  
HETATM   45  F   UNL     1      -5.390  12.237  68.595  1.00  0.00    -0.053 F  
HETATM   46  F   UNL     1      -5.634  12.836  70.677  1.00  0.00    -0.125 F  
HETATM   47  F   UNL     1      -7.368  12.718  69.363  1.00  0.00     0.002 F  
ENDBRANCH  42  43
ENDBRANCH  41  42
ENDBRANCH  14  41
ENDBRANCH   5   7
ENDBRANCH   4   5
ENDBRANCH   3   4
ENDBRANCH   2   3
TORSDOF 12
ENDMDL
MODEL      207
REMARK 921   NORMALIZED FREE ENERGY PREDICTED BY IDOCK:   -0.92 KCAL/MOL
REMARK 922        TOTAL FREE ENERGY PREDICTED BY IDOCK:   -2.58 KCAL/MOL
REMARK 923 INTER-LIGAND FREE ENERGY PREDICTED BY IDOCK:   -3.50 KCAL/MOL
REMARK 924 INTRA-LIGAND FREE ENERGY PREDICTED BY IDOCK:    0.92 KCAL/MOL
REMARK 927      BINDING AFFINITY PREDICTED BY RF-SCORE:    0.00 PKD
ROOT
HETATM    1  C   UNL     1     -12.645  14.157  66.893  1.00  0.00     0.087 C  
HETATM    2  S   UNL     1     -13.014  14.283  65.129  1.00  0.00     0.108 SA 
ENDROOT
BRANCH   2   3
HETATM    3  C   UNL     1     -12.607  12.573  64.610  1.00  0.00    -0.426 C  
BRANCH   3   4
HETATM    4  C   UNL     1     -11.474  12.540  63.563  1.00  0.00    -0.496 C  
BRANCH   4   5
HETATM    5  N   UNL     1     -10.487  11.529  63.903  1.00  0.00    -0.346 NA 
HETATM    6  H   UNL     1      -9.760  11.290  63.229  1.00  0.00     0.000 HD 
BRANCH   5   7
HETATM    7  C   UNL     1     -10.522  10.885  65.127  1.00  0.00    -0.246 A  
HETATM    8  C   UNL     1      -9.670   9.799  65.382  1.00  0.00    -0.313 A  
HETATM    9  N   UNL     1      -8.687   9.199  64.619  1.00  0.00    -0.184 NA 
HETATM   10  C   UNL     1      -8.159   8.278  65.410  1.00  0.00    -0.135 A  
HETATM   11  N   UNL     1      -8.782   8.237  66.640  1.00  0.00    -0.131 NA 
HETATM   12  C   UNL     1      -9.745   9.205  66.633  1.00  0.00    -0.223 A  
HETATM   13  N   UNL     1     -11.376  11.270  66.120  1.00  0.00    -0.196 NA 
HETATM   14  C   UNL     1     -11.378  10.576  67.277  1.00  0.00     0.024 A  
HETATM   15  N   UNL     1     -10.578   9.538  67.620  1.00  0.00    -0.264 NA 
BRANCH  11  16
HETATM   16  C   UNL     1      -8.312   7.448  67.758  1.00  0.00    -0.118 C  
HETATM   17  O   UNL     1      -8.558   8.199  68.953  1.00  0.00    -0.129 OA 
HETATM   18  C   UNL     1      -7.324   8.757  69.435  1.00  0.00    -0.072 C  
HETATM   19  H   UNL     1      -5.805   5.529  68.689  1.00  0.00     0.000 HD 
HETATM   20  O   UNL     1      -6.715   5.795  68.628  1.00  0.00    -0.055 OA 
HETATM   21  C   UNL     1      -6.181   8.132  68.643  1.00  0.00    -0.045 C  
HETATM   22  H   UNL     1      -4.473   7.246  69.055  1.00  0.00     0.000 HD 
HETATM   23  C   UNL     1      -6.840   7.017  67.857  1.00  0.00    -0.077 C  
HETATM   24  O   UNL     1      -5.185   7.635  69.548  1.00  0.00    -0.018 OA 
BRANCH  18  25
HETATM   25  C   UNL     1      -7.308  10.283  69.331  1.00  0.00    -0.115 C  
BRANCH  25  26
HETATM   26  O   UNL     1      -6.103  10.626  68.644  1.00  0.00    -0.041 OA 
BRANCH  26  27
HETATM   27  P   UNL     1      -6.289  11.607  67.388  1.00  0.00    -0.130 P  
HETATM   28  O   UNL     1      -5.559  10.685  66.279  1.00  0.00    -0.064 OA 
HETATM   29  O   UNL     1      -7.699  11.964  67.023  1.00  0.00    -0.157 OA 
BRANCH  27  30
HETATM   30  O   UNL     1      -5.353  12.897  67.750  1.00  0.00    -0.101 OA 
HETATM   31  P   UNL     1      -6.023  14.056  68.845  1.00  0.00    -0.096 P  
HETATM   32  C   UNL     1      -6.732  15.282  70.004  1.00  0.00    -0.104 C  
HETATM   33  O   UNL     1      -6.884  14.661  67.573  1.00  0.00    -0.179 OA 
HETATM   34  O   UNL     1      -6.900  12.976  69.532  1.00  0.00    -0.033 OA 
HETATM   35 CL   UNL     1      -8.559  15.346  69.935  1.00  0.00    -0.013 Cl 
HETATM   36  P   UNL     1      -6.403  14.755  71.726  1.00  0.00     1.331 P  
HETATM   37 CL   UNL     1      -6.177  16.917  69.514  1.00  0.00    -0.221 Cl 
HETATM   38  O   UNL     1      -5.154  15.839  71.813  1.00  0.00    -0.143 OA 
HETATM   39  O   UNL     1      -5.324  13.603  71.209  1.00  0.00    -0.156 OA 
HETATM   40  O   UNL     1      -6.124  14.310  73.182  1.00  0.00    -0.162 OA 
ENDBRANCH  27  30
ENDBRANCH  26  27
ENDBRANCH  25  26
ENDBRANCH  18  25
ENDBRANCH  11  16
BRANCH  14  41
HETATM   41  S   UNL     1     -12.556  11.032  68.530  1.00  0.00     1.841 SA 
BRANCH  41  42
HETATM   42  C   UNL     1     -11.439  11.723  69.797  1.00  0.00    -0.245 C  
BRANCH  42  43
HETATM   43  C   UNL     1     -11.948  13.105  70.186  1.00  0.00    -0.381 C  
HETATM   44  C   UNL     1     -12.888  13.052  71.370  1.00  0.00    -0.292 C  
HETATM   45  F   UNL     1     -12.449  13.864  72.361  1.00  0.00    -0.302 F  
HETATM   46  F   UNL     1     -13.019  11.815  71.886  1.00  0.00    -0.507 F  
HETATM   47  F   UNL     1     -14.121  13.483  71.023  1.00  0.00     0.022 F  
ENDBRANCH  42  43
ENDBRANCH  41  42
ENDBRANCH  14  41
ENDBRANCH   5   7
ENDBRANCH   4   5
ENDBRANCH   3   4
ENDBRANCH   2   3
TORSDOF 12
ENDMDL
MODEL      208
REMARK 921   NORMALIZED FREE ENERGY PREDICTED BY IDOCK:   -0.72 KCAL/MOL
REMARK 922        TOTAL FREE ENERGY PREDICTED BY IDOCK:   -2.24 KCAL/MOL
REMARK 923 INTER-LIGAND FREE ENERGY PREDICTED BY IDOCK:   -2.52 KCAL/MOL
REMARK 924 INTRA-LIGAND FREE ENERGY PREDICTED BY IDOCK:    0.28 KCAL/MOL
REMARK 927      BINDING AFFINITY PREDICTED BY RF-SCORE:    0.00 PKD
ROOT
HETATM    1  C   UNL     1     -12.501  16.539  66.130  1.00  0.00     3.638 C  
HETATM    2  S   UNL     1     -11.456  16.191  64.697  1.00  0.00    -0.055 SA 
ENDROOT
BRANCH   2   3
HETATM    3  C   UNL     1     -11.515  14.359  64.716  1.00  0.00    -0.402 C  
BRANCH   3   4
HETATM    4  C   UNL     1     -10.200  13.744  65.240  1.00  0.00    -0.335 C  
BRANCH   4   5
HETATM    5  N   UNL     1     -10.037  14.006  66.659  1.00  0.00    -0.270 NA 
HETATM    6  H   UNL     1     -10.684  14.638  67.131  1.00  0.00     0.000 HD 
BRANCH   5   7
HETATM    7  C   UNL     1      -9.017  13.411  67.380  1.00  0.00    -0.215 A  
HETATM    8  C   UNL     1      -9.212  12.159  67.985  1.00  0.00    -0.194 A  
HETATM    9  N   UNL     1     -10.287  11.292  67.985  1.00  0.00    -0.177 NA 
HETATM   10  C   UNL     1      -9.865  10.228  68.650  1.00  0.00    -0.173 A  
HETATM   11  N   UNL     1      -8.572  10.384  69.104  1.00  0.00    -0.159 NA 
HETATM   12  C   UNL     1      -8.145  11.611  68.683  1.00  0.00    -0.121 A  
HETATM   13  N   UNL     1      -7.801  14.011  67.537  1.00  0.00    -0.174 NA 
HETATM   14  C   UNL     1      -6.863  13.387  68.280  1.00  0.00    -0.106 A  
HETATM   15  N   UNL     1      -6.951  12.174  68.875  1.00  0.00    -0.102 NA 
BRANCH  11  16
HETATM   16  C   UNL     1      -7.796   9.326  69.714  1.00  0.00    -0.100 C  
HETATM   17  O   UNL     1      -8.225   8.087  69.136  1.00  0.00    -0.126 OA 
HETATM   18  C   UNL     1      -9.054   7.379  70.073  1.00  0.00    -0.148 C  
HETATM   19  H   UNL     1      -6.634   8.330  72.627  1.00  0.00     0.000 HD 
HETATM   20  O   UNL     1      -6.607   8.475  71.689  1.00  0.00    -0.061 OA 
HETATM   21  C   UNL     1      -8.958   8.088  71.420  1.00  0.00    -0.141 C  
HETATM   22  H   UNL     1      -8.596   7.573  73.284  1.00  0.00     0.000 HD 
HETATM   23  C   UNL     1      -7.838   9.091  71.232  1.00  0.00    -0.085 C  
HETATM   24  O   UNL     1      -8.656   7.132  72.445  1.00  0.00    -0.118 OA 
BRANCH  18  25
HETATM   25  C   UNL     1     -10.504   7.281  69.594  1.00  0.00    -0.231 C  
BRANCH  25  26
HETATM   26  O   UNL     1     -10.607   6.051  68.876  1.00  0.00    -0.227 OA 
BRANCH  26  27
HETATM   27  P   UNL     1     -10.226   6.135  67.320  1.00  0.00    -0.259 P  
HETATM   28  O   UNL     1     -10.854   4.717  66.863  1.00  0.00     0.025 OA 
HETATM   29  O   UNL     1     -10.785   7.300  66.558  1.00  0.00    -0.128 OA 
BRANCH  27  30
HETATM   30  O   UNL     1      -8.594   6.057  67.305  1.00  0.00    -0.108 OA 
HETATM   31  P   UNL     1      -7.806   6.603  65.866  1.00  0.00    -0.114 P  
HETATM   32  C   UNL     1      -6.973   7.181  64.342  1.00  0.00    -0.052 C  
HETATM   33  O   UNL     1      -8.179   5.145  65.187  1.00  0.00    -0.119 OA 
HETATM   34  O   UNL     1      -8.966   7.581  65.540  1.00  0.00    -0.054 OA 
HETATM   35 CL   UNL     1      -8.007   6.975  62.848  1.00  0.00    -0.113 Cl 
HETATM   36  P   UNL     1      -6.732   8.994  64.429  1.00  0.00    -0.080 P  
HETATM   37 CL   UNL     1      -5.522   6.162  64.065  1.00  0.00    -0.017 Cl 
HETATM   38  O   UNL     1      -5.147   8.757  64.850  1.00  0.00    -0.037 OA 
HETATM   39  O   UNL     1      -7.123   9.008  66.044  1.00  0.00    -0.083 OA 
HETATM   40  O   UNL     1      -6.527  10.527  64.503  1.00  0.00    -0.082 OA 
ENDBRANCH  27  30
ENDBRANCH  26  27
ENDBRANCH  25  26
ENDBRANCH  18  25
ENDBRANCH  11  16
BRANCH  14  41
HETATM   41  S   UNL     1      -5.313  14.218  68.549  1.00  0.00    -0.106 SA 
BRANCH  41  42
HETATM   42  C   UNL     1      -5.735  15.241  70.000  1.00  0.00    -0.131 C  
BRANCH  42  43
HETATM   43  C   UNL     1      -5.344  16.683  69.702  1.00  0.00    -0.152 C  
HETATM   44  C   UNL     1      -6.446  17.437  68.991  1.00  0.00    -0.226 C  
HETATM   45  F   UNL     1      -6.773  18.558  69.677  1.00  0.00    -0.258 F  
HETATM   46  F   UNL     1      -7.570  16.710  68.839  1.00  0.00    -0.191 F  
HETATM   47  F   UNL     1      -6.043  17.829  67.762  1.00  0.00    -0.146 F  
ENDBRANCH  42  43
ENDBRANCH  41  42
ENDBRANCH  14  41
ENDBRANCH   5   7
ENDBRANCH   4   5
ENDBRANCH   3   4
ENDBRANCH   2   3
TORSDOF 12
ENDMDL
MODEL      209
REMARK 921   NORMALIZED FREE ENERGY PREDICTED BY IDOCK:   -0.67 KCAL/MOL
REMARK 922        TOTAL FREE ENERGY PREDICTED BY IDOCK:   -2.14 KCAL/MOL
REMARK 923 INTER-LIGAND FREE ENERGY PREDICTED BY IDOCK:   -6.78 KCAL/MOL
REMARK 924 INTRA-LIGAND FREE ENERGY PREDICTED BY IDOCK:    4.63 KCAL/MOL
REMARK 927      BINDING AFFINITY PREDICTED BY RF-SCORE:    0.00 PKD
ROOT
HETATM    1  C   UNL     1      -5.479   9.095  72.243  1.00  0.00    -0.076 C  
HETATM    2  S   UNL     1      -5.151   8.012  70.834  1.00  0.00    -0.026 SA 
ENDROOT
BRANCH   2   3
HETATM    3  C   UNL     1      -5.822   6.440  71.495  1.00  0.00    -0.032 C  
BRANCH   3   4
HETATM    4  C   UNL     1      -7.364   6.403  71.448  1.00  0.00    -0.084 C  
BRANCH   4   5
HETATM    5  N   UNL     1      -7.847   6.722  70.116  1.00  0.00    -0.105 NA 
HETATM    6  H   UNL     1      -7.873   5.994  69.403  1.00  0.00     0.000 HD 
BRANCH   5   7
HETATM    7  C   UNL     1      -8.271   8.001  69.800  1.00  0.00    -0.120 A  
HETATM    8  C   UNL     1      -9.622   8.356  69.945  1.00  0.00    -0.171 A  
HETATM    9  N   UNL     1     -10.715   7.654  70.413  1.00  0.00    -0.232 NA 
HETATM   10  C   UNL     1     -11.710   8.528  70.400  1.00  0.00     0.001 A  
HETATM   11  N   UNL     1     -11.311   9.755  69.914  1.00  0.00    -0.223 NA 
HETATM   12  C   UNL     1      -9.980   9.657  69.623  1.00  0.00    -0.221 A  
HETATM   13  N   UNL     1      -7.410   8.952  69.336  1.00  0.00    -0.074 NA 
HETATM   14  C   UNL     1      -7.899  10.168  69.017  1.00  0.00    -0.107 A  
HETATM   15  N   UNL     1      -9.173  10.608  69.149  1.00  0.00    -0.178 NA 
BRANCH  11  16
HETATM   16  C   UNL     1     -12.138  10.942  69.939  1.00  0.00    -0.354 C  
HETATM   17  O   UNL     1     -12.506  11.242  68.587  1.00  0.00    -0.442 OA 
HETATM   18  C   UNL     1     -11.737  12.359  68.114  1.00  0.00    -0.353 C  
HETATM   19  H   UNL     1     -12.359  13.904  71.356  1.00  0.00     0.000 HD 
HETATM   20  O   UNL     1     -12.690  13.086  71.006  1.00  0.00    -0.333 OA 
HETATM   21  C   UNL     1     -11.004  12.968  69.305  1.00  0.00    -0.067 C  
HETATM   22  H   UNL     1     -10.780  14.762  70.081  1.00  0.00     0.000 HD 
HETATM   23  C   UNL     1     -11.603  12.266  70.506  1.00  0.00     0.313 C  
HETATM   24  O   UNL     1     -11.236  14.383  69.339  1.00  0.00    -0.264 OA 
BRANCH  18  25
HETATM   25  C   UNL     1     -10.763  11.955  67.005  1.00  0.00    -0.240 C  
BRANCH  25  26
HETATM   26  O   UNL     1     -10.993  12.856  65.921  1.00  0.00    -0.272 OA 
BRANCH  26  27
HETATM   27  P   UNL     1     -11.309  14.370  66.346  1.00  0.00    -0.363 P  
HETATM   28  O   UNL     1     -11.553  14.968  64.865  1.00  0.00    -0.386 OA 
HETATM   29  O   UNL     1     -12.476  14.575  67.265  1.00  0.00    -0.157 OA 
BRANCH  27  30
HETATM   30  O   UNL     1      -9.891  14.919  66.946  1.00  0.00    -0.231 OA 
HETATM   31  P   UNL     1      -9.616  16.623  66.846  1.00  0.00    -0.274 P  
HETATM   32  C   UNL     1      -9.326  18.427  66.740  1.00  0.00    -0.296 C  
HETATM   33  O   UNL     1      -9.201  16.396  65.264  1.00  0.00    -0.166 OA 
HETATM   34  O   UNL     1     -11.138  16.924  66.892  1.00  0.00     0.012 OA 
HETATM   35 CL   UNL     1     -10.192  19.201  65.327  1.00  0.00     0.500 Cl 
HETATM   36  P   UNL     1     -10.082  19.253  68.188  1.00  0.00    -0.431 P  
HETATM   37 CL   UNL     1      -7.578  18.706  66.442  1.00  0.00    -0.270 Cl 
HETATM   38  O   UNL     1      -8.590  19.356  68.901  1.00  0.00    -0.369 OA 
HETATM   39  O   UNL     1     -10.308  17.795  68.951  1.00  0.00    -0.368 OA 
HETATM   40  O   UNL     1     -10.720  19.951  69.413  1.00  0.00     0.244 OA 
ENDBRANCH  27  30
ENDBRANCH  26  27
ENDBRANCH  25  26
ENDBRANCH  18  25
ENDBRANCH  11  16
BRANCH  14  41
HETATM   41  S   UNL     1      -6.782  11.372  68.331  1.00  0.00    -0.069 SA 
BRANCH  41  42
HETATM   42  C   UNL     1      -5.580  10.274  67.508  1.00  0.00    -0.044 C  
BRANCH  42  43
HETATM   43  C   UNL     1      -6.318   9.450  66.461  1.00  0.00    -0.066 C  
HETATM   44  C   UNL     1      -6.284  10.102  65.096  1.00  0.00    -0.121 C  
HETATM   45  F   UNL     1      -5.769   9.250  64.177  1.00  0.00    -0.065 F  
HETATM   46  F   UNL     1      -5.543  11.227  65.066  1.00  0.00    -0.050 F  
HETATM   47  F   UNL     1      -7.531  10.421  64.685  1.00  0.00    -0.146 F  
ENDBRANCH  42  43
ENDBRANCH  41  42
ENDBRANCH  14  41
ENDBRANCH   5   7
ENDBRANCH   4   5
ENDBRANCH   3   4
ENDBRANCH   2   3
TORSDOF 12
ENDMDL
MODEL      210
REMARK 921   NORMALIZED FREE ENERGY PREDICTED BY IDOCK:   -0.66 KCAL/MOL
REMARK 922        TOTAL FREE ENERGY PREDICTED BY IDOCK:   -2.14 KCAL/MOL
REMARK 923 INTER-LIGAND FREE ENERGY PREDICTED BY IDOCK:   -2.16 KCAL/MOL
REMARK 924 INTRA-LIGAND FREE ENERGY PREDICTED BY IDOCK:    0.02 KCAL/MOL
REMARK 927      BINDING AFFINITY PREDICTED BY RF-SCORE:    0.00 PKD
ROOT
HETATM    1  C   UNL     1      -7.210  20.744  72.067  1.00  0.00     2.339 C  
HETATM    2  S   UNL     1      -7.098  19.982  70.432  1.00  0.00     0.595 SA 
ENDROOT
BRANCH   2   3
HETATM    3  C   UNL     1      -8.865  20.041  69.947  1.00  0.00     1.006 C  
BRANCH   3   4
HETATM    4  C   UNL     1      -9.075  19.631  68.474  1.00  0.00    -0.312 C  
BRANCH   4   5
HETATM    5  N   UNL     1      -8.074  18.663  68.061  1.00  0.00    -0.268 NA 
HETATM    6  H   UNL     1      -7.265  18.974  67.523  1.00  0.00     0.000 HD 
BRANCH   5   7
HETATM    7  C   UNL     1      -8.202  17.324  68.387  1.00  0.00    -0.260 A  
HETATM    8  C   UNL     1      -7.074  16.489  68.415  1.00  0.00    -0.160 A  
HETATM    9  N   UNL     1      -5.733  16.743  68.206  1.00  0.00    -0.116 NA 
HETATM   10  C   UNL     1      -5.127  15.592  68.450  1.00  0.00    -0.096 A  
HETATM   11  N   UNL     1      -6.025  14.597  68.778  1.00  0.00    -0.082 NA 
HETATM   12  C   UNL     1      -7.269  15.160  68.762  1.00  0.00    -0.127 A  
HETATM   13  N   UNL     1      -9.413  16.767  68.683  1.00  0.00    -0.247 NA 
HETATM   14  C   UNL     1      -9.468  15.448  68.961  1.00  0.00    -0.236 A  
HETATM   15  N   UNL     1      -8.436  14.575  69.037  1.00  0.00    -0.100 NA 
BRANCH  11  16
HETATM   16  C   UNL     1      -5.640  13.286  69.253  1.00  0.00    -0.079 C  
HETATM   17  O   UNL     1      -5.556  12.420  68.115  1.00  0.00    -0.054 OA 
HETATM   18  C   UNL     1      -6.703  11.554  68.081  1.00  0.00    -0.062 C  
HETATM   19  H   UNL     1      -6.243  11.139  71.673  1.00  0.00     0.000 HD 
HETATM   20  O   UNL     1      -5.705  11.609  71.048  1.00  0.00    -0.339 OA 
HETATM   21  C   UNL     1      -7.447  11.704  69.404  1.00  0.00     0.160 C  
HETATM   22  H   UNL     1      -8.158  10.500  70.788  1.00  0.00     0.000 HD 
HETATM   23  C   UNL     1      -6.511  12.526  70.266  1.00  0.00     0.313 C  
HETATM   24  O   UNL     1      -7.694  10.407  69.965  1.00  0.00    -0.136 OA 
BRANCH  18  25
HETATM   25  C   UNL     1      -7.613  11.857  66.890  1.00  0.00    -0.093 C  
BRANCH  25  26
HETATM   26  O   UNL     1      -8.165  10.605  66.479  1.00  0.00    -0.128 OA 
BRANCH  26  27
HETATM   27  P   UNL     1      -8.664  10.546  64.955  1.00  0.00    -0.149 P  
HETATM   28  O   UNL     1      -9.874  11.611  65.078  1.00  0.00    -0.247 OA 
HETATM   29  O   UNL     1      -7.656  10.916  63.909  1.00  0.00     0.235 OA 
BRANCH  27  30
HETATM   30  O   UNL     1      -9.262   9.034  64.791  1.00  0.00    -0.123 OA 
HETATM   31  P   UNL     1      -8.109   7.746  64.756  1.00  0.00    -0.051 P  
HETATM   32  C   UNL     1      -6.888   6.383  64.719  1.00  0.00    -0.050 C  
HETATM   33  O   UNL     1      -7.830   8.127  63.174  1.00  0.00    -0.135 OA 
HETATM   34  O   UNL     1      -7.102   8.554  65.617  1.00  0.00    -0.076 OA 
HETATM   35 CL   UNL     1      -5.265   6.905  64.057  1.00  0.00    -0.027 Cl 
HETATM   36  P   UNL     1      -6.490   5.874  66.431  1.00  0.00    -0.045 P  
HETATM   37 CL   UNL     1      -7.481   5.117  63.592  1.00  0.00    -0.051 Cl 
HETATM   38  O   UNL     1      -7.503   4.572  66.274  1.00  0.00    -0.080 OA 
HETATM   39  O   UNL     1      -7.766   6.752  67.031  1.00  0.00    -0.097 OA 
HETATM   40  O   UNL     1      -6.153   5.443  67.880  1.00  0.00    -0.021 OA 
ENDBRANCH  27  30
ENDBRANCH  26  27
ENDBRANCH  25  26
ENDBRANCH  18  25
ENDBRANCH  11  16
BRANCH  14  41
HETATM   41  S   UNL     1     -11.063  14.717  69.260  1.00  0.00    -0.277 SA 
BRANCH  41  42
HETATM   42  C   UNL     1     -11.116  14.777  71.083  1.00  0.00     0.067 C  
BRANCH  42  43
HETATM   43  C   UNL     1     -12.066  15.891  71.501  1.00  0.00    -0.533 C  
HETATM   44  C   UNL     1     -13.101  15.414  72.496  1.00  0.00    -0.422 C  
HETATM   45  F   UNL     1     -13.068  16.174  73.616  1.00  0.00    -0.562 F  
HETATM   46  F   UNL     1     -12.922  14.131  72.869  1.00  0.00    -0.482 F  
HETATM   47  F   UNL     1     -14.346  15.521  71.981  1.00  0.00    -0.550 F  
ENDBRANCH  42  43
ENDBRANCH  41  42
ENDBRANCH  14  41
ENDBRANCH   5   7
ENDBRANCH   4   5
ENDBRANCH   3   4
ENDBRANCH   2   3
TORSDOF 12
ENDMDL
MODEL      211
REMARK 921   NORMALIZED FREE ENERGY PREDICTED BY IDOCK:   -0.65 KCAL/MOL
REMARK 922        TOTAL FREE ENERGY PREDICTED BY IDOCK:   -2.11 KCAL/MOL
REMARK 923 INTER-LIGAND FREE ENERGY PREDICTED BY IDOCK:   -2.39 KCAL/MOL
REMARK 924 INTRA-LIGAND FREE ENERGY PREDICTED BY IDOCK:    0.28 KCAL/MOL
REMARK 927      BINDING AFFINITY PREDICTED BY RF-SCORE:    0.00 PKD
ROOT
HETATM    1  C   UNL     1      -5.249  15.577  69.480  1.00  0.00    -0.099 C  
HETATM    2  S   UNL     1      -5.222  14.215  70.667  1.00  0.00    -0.125 SA 
ENDROOT
BRANCH   2   3
HETATM    3  C   UNL     1      -7.005  13.789  70.681  1.00  0.00     1.062 C  
BRANCH   3   4
HETATM    4  C   UNL     1      -7.614  13.804  69.263  1.00  0.00     0.198 C  
BRANCH   4   5
HETATM    5  N   UNL     1      -6.598  13.528  68.262  1.00  0.00    -0.093 NA 
HETATM    6  H   UNL     1      -6.029  14.293  67.900  1.00  0.00     0.000 HD 
BRANCH   5   7
HETATM    7  C   UNL     1      -6.392  12.243  67.792  1.00  0.00    -0.101 A  
HETATM    8  C   UNL     1      -6.522  11.143  68.654  1.00  0.00    -0.049 A  
HETATM    9  N   UNL     1      -6.881  11.051  69.985  1.00  0.00    -0.145 NA 
HETATM   10  C   UNL     1      -6.916   9.752  70.238  1.00  0.00    -0.135 A  
HETATM   11  N   UNL     1      -6.566   9.003  69.134  1.00  0.00    -0.049 NA 
HETATM   12  C   UNL     1      -6.315   9.880  68.118  1.00  0.00    -0.055 A  
HETATM   13  N   UNL     1      -6.053  11.997  66.493  1.00  0.00    -0.096 NA 
HETATM   14  C   UNL     1      -5.836  10.721  66.112  1.00  0.00    -0.133 A  
HETATM   15  N   UNL     1      -5.964   9.600  66.862  1.00  0.00    -0.055 NA 
BRANCH  11  16
HETATM   16  C   UNL     1      -6.675   7.562  69.068  1.00  0.00    -0.049 C  
HETATM   17  O   UNL     1      -7.196   7.226  67.776  1.00  0.00    -0.085 OA 
HETATM   18  C   UNL     1      -8.579   6.856  67.895  1.00  0.00    -0.122 C  
HETATM   19  H   UNL     1      -7.611   4.961  70.854  1.00  0.00     0.000 HD 
HETATM   20  O   UNL     1      -7.066   5.437  70.239  1.00  0.00    -0.058 OA 
HETATM   21  C   UNL     1      -8.905   6.711  69.377  1.00  0.00    -0.134 C  
HETATM   22  H   UNL     1      -9.754   5.361  70.530  1.00  0.00     0.000 HD 
HETATM   23  C   UNL     1      -7.556   6.790  70.063  1.00  0.00    -0.100 C  
HETATM   24  O   UNL     1      -9.551   5.451  69.606  1.00  0.00    -0.141 OA 
BRANCH  18  25
HETATM   25  C   UNL     1      -9.503   7.868  67.215  1.00  0.00    -0.149 C  
BRANCH  25  26
HETATM   26  O   UNL     1     -10.452   8.272  68.203  1.00  0.00    -0.211 OA 
BRANCH  26  27
HETATM   27  P   UNL     1     -10.638   9.858  68.363  1.00  0.00    -0.217 P  
HETATM   28  O   UNL     1     -12.100   9.977  67.684  1.00  0.00     1.086 OA 
HETATM   29  O   UNL     1     -10.591  10.397  69.762  1.00  0.00    -0.247 OA 
BRANCH  27  30
HETATM   30  O   UNL     1      -9.505  10.493  67.372  1.00  0.00    -0.152 OA 
HETATM   31  P   UNL     1     -10.057  11.643  66.203  1.00  0.00    -0.244 P  
HETATM   32  C   UNL     1     -10.641  12.859  64.967  1.00  0.00    -0.315 C  
HETATM   33  O   UNL     1     -10.570  10.368  65.288  1.00  0.00    -0.191 OA 
HETATM   34  O   UNL     1     -11.240  12.074  67.110  1.00  0.00    -0.277 OA 
HETATM   35 CL   UNL     1     -12.379  12.583  64.469  1.00  0.00    -0.532 Cl 
HETATM   36  P   UNL     1     -10.690  14.525  65.726  1.00  0.00    -0.355 P  
HETATM   37 CL   UNL     1      -9.675  12.657  63.467  1.00  0.00     0.270 Cl 
HETATM   38  O   UNL     1      -9.259  14.901  64.979  1.00  0.00     0.622 OA 
HETATM   39  O   UNL     1      -9.826  13.994  67.041  1.00  0.00    -0.248 OA 
HETATM   40  O   UNL     1     -10.731  15.933  66.367  1.00  0.00    -0.308 OA 
ENDBRANCH  27  30
ENDBRANCH  26  27
ENDBRANCH  25  26
ENDBRANCH  18  25
ENDBRANCH  11  16
BRANCH  14  41
HETATM   41  S   UNL     1      -5.310  10.419  64.439  1.00  0.00    -0.145 SA 
BRANCH  41  42
HETATM   42  C   UNL     1      -5.573   8.617  64.331  1.00  0.00    -0.063 C  
BRANCH  42  43
HETATM   43  C   UNL     1      -6.868   8.364  63.570  1.00  0.00    -0.084 C  
HETATM   44  C   UNL     1      -7.400   6.966  63.801  1.00  0.00    -0.080 C  
HETATM   45  F   UNL     1      -8.672   7.014  64.264  1.00  0.00     0.101 F  
HETATM   46  F   UNL     1      -6.670   6.264  64.690  1.00  0.00    -0.035 F  
HETATM   47  F   UNL     1      -7.425   6.265  62.646  1.00  0.00    -0.047 F  
ENDBRANCH  42  43
ENDBRANCH  41  42
ENDBRANCH  14  41
ENDBRANCH   5   7
ENDBRANCH   4   5
ENDBRANCH   3   4
ENDBRANCH   2   3
TORSDOF 12
ENDMDL
MODEL      212
REMARK 921   NORMALIZED FREE ENERGY PREDICTED BY IDOCK:   -0.64 KCAL/MOL
REMARK 922        TOTAL FREE ENERGY PREDICTED BY IDOCK:   -2.09 KCAL/MOL
REMARK 923 INTER-LIGAND FREE ENERGY PREDICTED BY IDOCK:   -3.59 KCAL/MOL
REMARK 924 INTRA-LIGAND FREE ENERGY PREDICTED BY IDOCK:    1.50 KCAL/MOL
REMARK 927      BINDING AFFINITY PREDICTED BY RF-SCORE:    0.00 PKD
ROOT
HETATM    1  C   UNL     1     -12.555  14.685  66.764  1.00  0.00     0.432 C  
HETATM    2  S   UNL     1     -13.198  14.775  65.079  1.00  0.00     1.144 SA 
ENDROOT
BRANCH   2   3
HETATM    3  C   UNL     1     -13.030  13.015  64.594  1.00  0.00    -0.085 C  
BRANCH   3   4
HETATM    4  C   UNL     1     -12.034  12.828  63.429  1.00  0.00    -0.535 C  
BRANCH   4   5
HETATM    5  N   UNL     1     -11.072  11.783  63.736  1.00  0.00    -0.406 NA 
HETATM    6  H   UNL     1     -10.477  11.416  62.994  1.00  0.00     0.000 HD 
BRANCH   5   7
HETATM    7  C   UNL     1     -10.954  11.280  65.019  1.00  0.00    -0.156 A  
HETATM    8  C   UNL     1     -10.090  10.206  65.283  1.00  0.00    -0.274 A  
HETATM    9  N   UNL     1      -9.222   9.500  64.473  1.00  0.00    -0.216 NA 
HETATM   10  C   UNL     1      -8.607   8.657  65.289  1.00  0.00    -0.180 A  
HETATM   11  N   UNL     1      -9.063   8.769  66.585  1.00  0.00    -0.149 NA 
HETATM   12  C   UNL     1     -10.008   9.756  66.593  1.00  0.00    -0.229 A  
HETATM   13  N   UNL     1     -11.667  11.794  66.063  1.00  0.00    -0.418 NA 
HETATM   14  C   UNL     1     -11.526  11.233  67.282  1.00  0.00    -0.186 A  
HETATM   15  N   UNL     1     -10.701  10.218  67.635  1.00  0.00    -0.267 NA 
BRANCH  11  16
HETATM   16  C   UNL     1      -8.461   8.096  67.715  1.00  0.00    -0.132 C  
HETATM   17  O   UNL     1      -8.690   8.906  68.875  1.00  0.00    -0.133 OA 
HETATM   18  C   UNL     1      -7.477   9.587  69.234  1.00  0.00    -0.078 C  
HETATM   19  H   UNL     1      -5.754   6.441  68.589  1.00  0.00     0.000 HD 
HETATM   20  O   UNL     1      -6.684   6.632  68.574  1.00  0.00    -0.059 OA 
HETATM   21  C   UNL     1      -6.340   8.999  68.406  1.00  0.00    -0.054 C  
HETATM   22  H   UNL     1      -4.544   8.275  68.754  1.00  0.00     0.000 HD 
HETATM   23  C   UNL     1      -6.956   7.786  67.740  1.00  0.00    -0.081 C  
HETATM   24  O   UNL     1      -5.252   8.642  69.270  1.00  0.00    -0.034 OA 
BRANCH  18  25
HETATM   25  C   UNL     1      -7.590  11.100  69.034  1.00  0.00    -0.119 C  
BRANCH  25  26
HETATM   26  O   UNL     1      -7.308  11.695  70.302  1.00  0.00     0.624 OA 
BRANCH  26  27
HETATM   27  P   UNL     1      -5.925  12.505  70.384  1.00  0.00     0.124 P  
HETATM   28  O   UNL     1      -5.187  11.569  71.476  1.00  0.00    -0.285 OA 
HETATM   29  O   UNL     1      -5.154  12.639  69.104  1.00  0.00    -0.067 OA 
BRANCH  27  30
HETATM   30  O   UNL     1      -6.341  13.934  71.058  1.00  0.00    -0.062 OA 
HETATM   31  P   UNL     1      -6.749  15.214  69.969  1.00  0.00     0.006 P  
HETATM   32  C   UNL     1      -7.181  16.567  68.816  1.00  0.00    -0.197 C  
HETATM   33  O   UNL     1      -5.131  15.451  69.746  1.00  0.00    -0.095 OA 
HETATM   34  O   UNL     1      -7.228  14.210  68.887  1.00  0.00    -0.112 OA 
HETATM   35 CL   UNL     1      -6.331  16.421  67.203  1.00  0.00    -0.215 Cl 
HETATM   36  P   UNL     1      -8.950  16.442  68.362  1.00  0.00    -0.231 P  
HETATM   37 CL   UNL     1      -6.610  18.118  69.518  1.00  0.00    -0.200 Cl 
HETATM   38  O   UNL     1      -9.306  17.649  69.441  1.00  0.00     0.083 OA 
HETATM   39  O   UNL     1      -9.220  15.331  69.567  1.00  0.00    -0.243 OA 
HETATM   40  O   UNL     1     -10.446  16.337  67.980  1.00  0.00    -0.272 OA 
ENDBRANCH  27  30
ENDBRANCH  26  27
ENDBRANCH  25  26
ENDBRANCH  18  25
ENDBRANCH  11  16
BRANCH  14  41
HETATM   41  S   UNL     1     -12.525  11.855  68.617  1.00  0.00     1.021 SA 
BRANCH  41  42
HETATM   42  C   UNL     1     -12.721  10.340  69.615  1.00  0.00     0.443 C  
BRANCH  42  43
HETATM   43  C   UNL     1     -12.455  10.687  71.074  1.00  0.00    -0.515 C  
HETATM   44  C   UNL     1     -12.570   9.478  71.976  1.00  0.00    -0.376 C  
HETATM   45  F   UNL     1     -11.430   9.309  72.689  1.00  0.00    -0.148 F  
HETATM   46  F   UNL     1     -12.801   8.335  71.301  1.00  0.00    -0.309 F  
HETATM   47  F   UNL     1     -13.574   9.638  72.867  1.00  0.00    -0.348 F  
ENDBRANCH  42  43
ENDBRANCH  41  42
ENDBRANCH  14  41
ENDBRANCH   5   7
ENDBRANCH   4   5
ENDBRANCH   3   4
ENDBRANCH   2   3
TORSDOF 12
ENDMDL
MODEL      213
REMARK 921   NORMALIZED FREE ENERGY PREDICTED BY IDOCK:   -0.63 KCAL/MOL
REMARK 922        TOTAL FREE ENERGY PREDICTED BY IDOCK:   -2.07 KCAL/MOL
REMARK 923 INTER-LIGAND FREE ENERGY PREDICTED BY IDOCK:   -1.65 KCAL/MOL
REMARK 924 INTRA-LIGAND FREE ENERGY PREDICTED BY IDOCK:   -0.43 KCAL/MOL
REMARK 927      BINDING AFFINITY PREDICTED BY RF-SCORE:    0.00 PKD
ROOT
HETATM    1  C   UNL     1      -7.104  20.447  71.719  1.00  0.00     1.151 C  
HETATM    2  S   UNL     1      -6.959  19.691  70.085  1.00  0.00     0.241 SA 
ENDROOT
BRANCH   2   3
HETATM    3  C   UNL     1      -8.730  19.641  69.615  1.00  0.00     0.527 C  
BRANCH   3   4
HETATM    4  C   UNL     1      -8.933  19.123  68.175  1.00  0.00    -0.322 C  
BRANCH   4   5
HETATM    5  N   UNL     1      -7.937  18.119  67.843  1.00  0.00    -0.241 NA 
HETATM    6  H   UNL     1      -7.079  18.400  67.368  1.00  0.00     0.000 HD 
BRANCH   5   7
HETATM    7  C   UNL     1      -8.135  16.787  68.163  1.00  0.00    -0.197 A  
HETATM    8  C   UNL     1      -7.038  15.930  68.343  1.00  0.00    -0.117 A  
HETATM    9  N   UNL     1      -5.676  16.155  68.305  1.00  0.00    -0.101 NA 
HETATM   10  C   UNL     1      -5.131  14.994  68.635  1.00  0.00    -0.094 A  
HETATM   11  N   UNL     1      -6.085  14.022  68.856  1.00  0.00    -0.082 NA 
HETATM   12  C   UNL     1      -7.304  14.609  68.674  1.00  0.00    -0.125 A  
HETATM   13  N   UNL     1      -9.385  16.259  68.307  1.00  0.00    -0.200 NA 
HETATM   14  C   UNL     1      -9.504  14.945  68.587  1.00  0.00    -0.208 A  
HETATM   15  N   UNL     1      -8.509  14.052  68.804  1.00  0.00    -0.095 NA 
BRANCH  11  16
HETATM   16  C   UNL     1      -5.792  12.709  69.388  1.00  0.00    -0.094 C  
HETATM   17  O   UNL     1      -5.497  11.848  68.282  1.00  0.00    -0.043 OA 
HETATM   18  C   UNL     1      -6.615  10.982  68.032  1.00  0.00    -0.062 C  
HETATM   19  H   UNL     1      -6.832  10.550  71.645  1.00  0.00     0.000 HD 
HETATM   20  O   UNL     1      -6.187  11.023  71.132  1.00  0.00    -0.327 OA 
HETATM   21  C   UNL     1      -7.593  11.124  69.193  1.00  0.00    -0.098 C  
HETATM   22  H   UNL     1      -8.547   9.914  70.416  1.00  0.00     0.000 HD 
HETATM   23  C   UNL     1      -6.835  11.943  70.218  1.00  0.00     0.832 C  
HETATM   24  O   UNL     1      -7.938   9.825  69.693  1.00  0.00    -0.116 OA 
BRANCH  18  25
HETATM   25  C   UNL     1      -7.289  11.288  66.693  1.00  0.00    -0.131 C  
BRANCH  25  26
HETATM   26  O   UNL     1      -7.811  10.049  66.213  1.00  0.00    -0.106 OA 
BRANCH  26  27
HETATM   27  P   UNL     1      -6.782   9.156  65.366  1.00  0.00    -0.075 P  
HETATM   28  O   UNL     1      -6.380  10.269  64.265  1.00  0.00    -0.132 OA 
HETATM   29  O   UNL     1      -5.601   8.610  66.112  1.00  0.00    -0.037 OA 
BRANCH  27  30
HETATM   30  O   UNL     1      -7.722   8.006  64.684  1.00  0.00    -0.110 OA 
HETATM   31  P   UNL     1      -8.366   6.803  65.746  1.00  0.00    -0.130 P  
HETATM   32  C   UNL     1      -9.047   5.530  66.871  1.00  0.00    -0.115 C  
HETATM   33  O   UNL     1      -6.894   6.057  65.687  1.00  0.00    -0.053 OA 
HETATM   34  O   UNL     1      -8.346   7.781  66.950  1.00  0.00    -0.120 OA 
HETATM   35 CL   UNL     1      -7.985   5.232  68.329  1.00  0.00    -0.088 Cl 
HETATM   36  P   UNL     1     -10.604   6.143  67.615  1.00  0.00    -0.320 P  
HETATM   37 CL   UNL     1      -9.105   3.965  65.993  1.00  0.00    -0.140 Cl 
HETATM   38  O   UNL     1     -11.471   5.229  66.538  1.00  0.00     0.557 OA 
HETATM   39  O   UNL     1     -10.666   7.407  66.539  1.00  0.00    -0.119 OA 
HETATM   40  O   UNL     1     -11.921   6.661  68.243  1.00  0.00     0.834 OA 
ENDBRANCH  27  30
ENDBRANCH  26  27
ENDBRANCH  25  26
ENDBRANCH  18  25
ENDBRANCH  11  16
BRANCH  14  41
HETATM   41  S   UNL     1     -11.139  14.250  68.686  1.00  0.00    -0.266 SA 
BRANCH  41  42
HETATM   42  C   UNL     1     -10.735  12.510  69.058  1.00  0.00    -0.097 C  
BRANCH  42  43
HETATM   43  C   UNL     1     -11.598  12.054  70.228  1.00  0.00    -0.135 C  
HETATM   44  C   UNL     1     -11.597  10.549  70.383  1.00  0.00    -0.342 C  
HETATM   45  F   UNL     1     -11.207  10.202  71.633  1.00  0.00    -0.345 F  
HETATM   46  F   UNL     1     -10.775   9.929  69.514  1.00  0.00    -0.199 F  
HETATM   47  F   UNL     1     -12.839  10.047  70.202  1.00  0.00    -0.206 F  
ENDBRANCH  42  43
ENDBRANCH  41  42
ENDBRANCH  14  41
ENDBRANCH   5   7
ENDBRANCH   4   5
ENDBRANCH   3   4
ENDBRANCH   2   3
TORSDOF 12
ENDMDL
MODEL      214
REMARK 921   NORMALIZED FREE ENERGY PREDICTED BY IDOCK:   -0.59 KCAL/MOL
REMARK 922        TOTAL FREE ENERGY PREDICTED BY IDOCK:   -2.01 KCAL/MOL
REMARK 923 INTER-LIGAND FREE ENERGY PREDICTED BY IDOCK:   -3.37 KCAL/MOL
REMARK 924 INTRA-LIGAND FREE ENERGY PREDICTED BY IDOCK:    1.36 KCAL/MOL
REMARK 927      BINDING AFFINITY PREDICTED BY RF-SCORE:    0.00 PKD
ROOT
HETATM    1  C   UNL     1     -10.512   5.932  70.585  1.00  0.00    -0.253 C  
HETATM    2  S   UNL     1     -10.652   7.456  71.546  1.00  0.00    -0.205 SA 
ENDROOT
BRANCH   2   3
HETATM    3  C   UNL     1      -8.916   8.036  71.450  1.00  0.00    -0.141 C  
BRANCH   3   4
HETATM    4  C   UNL     1      -8.795   9.379  70.698  1.00  0.00    -0.220 C  
BRANCH   4   5
HETATM    5  N   UNL     1     -10.090   9.809  70.200  1.00  0.00    -0.253 NA 
HETATM    6  H   UNL     1     -10.800   9.112  69.977  1.00  0.00     0.000 HD 
BRANCH   5   7
HETATM    7  C   UNL     1     -10.373  11.152  70.022  1.00  0.00     0.624 A  
HETATM    8  C   UNL     1      -9.378  12.034  69.575  1.00  0.00     1.300 A  
HETATM    9  N   UNL     1      -8.064  11.829  69.201  1.00  0.00     0.145 NA 
HETATM   10  C   UNL     1      -7.640  13.013  68.787  1.00  0.00    -0.027 A  
HETATM   11  N   UNL     1      -8.617  13.980  68.907  1.00  0.00    -0.023 NA 
HETATM   12  C   UNL     1      -9.729  13.365  69.405  1.00  0.00     0.823 A  
HETATM   13  N   UNL     1     -11.611  11.667  70.279  1.00  0.00    -0.240 NA 
HETATM   14  C   UNL     1     -11.807  12.992  70.114  1.00  0.00    -0.252 A  
HETATM   15  N   UNL     1     -10.920  13.910  69.663  1.00  0.00    -0.081 NA 
BRANCH  11  16
HETATM   16  C   UNL     1      -8.493  15.322  68.381  1.00  0.00    -0.158 C  
HETATM   17  O   UNL     1      -9.784  15.940  68.463  1.00  0.00    -0.203 OA 
HETATM   18  C   UNL     1     -10.380  15.988  67.156  1.00  0.00    -0.295 C  
HETATM   19  H   UNL     1      -7.107  17.012  65.920  1.00  0.00     0.000 HD 
HETATM   20  O   UNL     1      -7.394  16.863  66.813  1.00  0.00    -0.186 OA 
HETATM   21  C   UNL     1      -9.315  15.599  66.136  1.00  0.00    -0.347 C  
HETATM   22  H   UNL     1      -8.608  16.338  64.455  1.00  0.00     0.000 HD 
HETATM   23  C   UNL     1      -8.029  15.565  66.936  1.00  0.00    -0.229 C  
HETATM   24  O   UNL     1      -9.272  16.580  65.090  1.00  0.00     0.188 OA 
BRANCH  18  25
HETATM   25  C   UNL     1     -11.609  15.083  67.055  1.00  0.00    -0.240 C  
BRANCH  25  26
HETATM   26  O   UNL     1     -11.369  14.202  65.956  1.00  0.00    -0.318 OA 
BRANCH  26  27
HETATM   27  P   UNL     1     -12.587  14.052  64.923  1.00  0.00    -0.186 P  
HETATM   28  O   UNL     1     -13.752  13.741  65.999  1.00  0.00     0.481 OA 
HETATM   29  O   UNL     1     -12.882  15.245  64.062  1.00  0.00    -0.613 OA 
BRANCH  27  30
HETATM   30  O   UNL     1     -12.228  12.700  64.078  1.00  0.00    -0.408 OA 
HETATM   31  P   UNL     1     -10.857  11.794  64.616  1.00  0.00    -0.309 P  
HETATM   32  C   UNL     1      -9.406  10.835  65.187  1.00  0.00    -0.217 C  
HETATM   33  O   UNL     1      -9.905  12.893  63.834  1.00  0.00    -0.258 OA 
HETATM   34  O   UNL     1     -11.039  12.287  66.076  1.00  0.00    -0.284 OA 
HETATM   35 CL   UNL     1      -8.148  11.876  66.009  1.00  0.00     0.280 Cl 
HETATM   36  P   UNL     1      -9.919   9.684  66.514  1.00  0.00    -0.240 P  
HETATM   37 CL   UNL     1      -8.585  10.135  63.751  1.00  0.00    -0.185 Cl 
HETATM   38  O   UNL     1      -9.937   8.439  65.420  1.00  0.00     0.551 OA 
HETATM   39  O   UNL     1     -11.524   9.954  66.182  1.00  0.00     0.965 OA 
HETATM   40  O   UNL     1     -10.353   8.709  67.636  1.00  0.00    -0.226 OA 
ENDBRANCH  27  30
ENDBRANCH  26  27
ENDBRANCH  25  26
ENDBRANCH  18  25
ENDBRANCH  11  16
BRANCH  14  41
HETATM   41  S   UNL     1     -13.400  13.666  70.534  1.00  0.00     0.596 SA 
BRANCH  41  42
HETATM   42  C   UNL     1     -13.491  13.219  72.301  1.00  0.00    -0.582 C  
BRANCH  42  43
HETATM   43  C   UNL     1     -12.574  14.152  73.081  1.00  0.00    -0.152 C  
HETATM   44  C   UNL     1     -13.078  15.578  73.079  1.00  0.00    -0.524 C  
HETATM   45  F   UNL     1     -13.220  16.033  74.347  1.00  0.00    -0.363 F  
HETATM   46  F   UNL     1     -14.268  15.717  72.463  1.00  0.00    -0.603 F  
HETATM   47  F   UNL     1     -12.198  16.397  72.461  1.00  0.00    -0.502 F  
ENDBRANCH  42  43
ENDBRANCH  41  42
ENDBRANCH  14  41
ENDBRANCH   5   7
ENDBRANCH   4   5
ENDBRANCH   3   4
ENDBRANCH   2   3
TORSDOF 12
ENDMDL
MODEL      215
REMARK 921   NORMALIZED FREE ENERGY PREDICTED BY IDOCK:   -0.52 KCAL/MOL
REMARK 922        TOTAL FREE ENERGY PREDICTED BY IDOCK:   -1.89 KCAL/MOL
REMARK 923 INTER-LIGAND FREE ENERGY PREDICTED BY IDOCK:   -3.06 KCAL/MOL
REMARK 924 INTRA-LIGAND FREE ENERGY PREDICTED BY IDOCK:    1.17 KCAL/MOL
REMARK 927      BINDING AFFINITY PREDICTED BY RF-SCORE:    0.00 PKD
ROOT
HETATM    1  C   UNL     1     -14.139  15.835  70.820  1.00  0.00     0.955 C  
HETATM    2  S   UNL     1     -12.508  15.619  70.071  1.00  0.00    -0.090 SA 
ENDROOT
BRANCH   2   3
HETATM    3  C   UNL     1     -12.402  13.790  70.098  1.00  0.00    -0.323 C  
BRANCH   3   4
HETATM    4  C   UNL     1     -10.942  13.296  70.197  1.00  0.00     0.742 C  
BRANCH   4   5
HETATM    5  N   UNL     1     -10.450  12.877  68.897  1.00  0.00    -0.419 NA 
HETATM    6  H   UNL     1     -10.743  13.383  68.061  1.00  0.00     0.000 HD 
BRANCH   5   7
HETATM    7  C   UNL     1      -9.589  11.800  68.776  1.00  0.00    -0.042 A  
HETATM    8  C   UNL     1     -10.022  10.505  69.102  1.00  0.00    -0.220 A  
HETATM    9  N   UNL     1     -11.246  10.020  69.521  1.00  0.00    -0.229 NA 
HETATM   10  C   UNL     1     -11.085   8.708  69.590  1.00  0.00    -0.013 A  
HETATM   11  N   UNL     1      -9.800   8.329  69.262  1.00  0.00    -0.182 NA 
HETATM   12  C   UNL     1      -9.115   9.467  68.947  1.00  0.00    -0.141 A  
HETATM   13  N   UNL     1      -8.302  11.951  68.348  1.00  0.00    -0.164 NA 
HETATM   14  C   UNL     1      -7.509  10.861  68.285  1.00  0.00    -0.093 A  
HETATM   15  N   UNL     1      -7.846   9.577  68.551  1.00  0.00    -0.085 NA 
BRANCH  11  16
HETATM   16  C   UNL     1      -9.381   6.954  69.091  1.00  0.00    -0.140 C  
HETATM   17  O   UNL     1      -8.266   6.950  68.191  1.00  0.00    -0.117 OA 
HETATM   18  C   UNL     1      -8.690   6.489  66.898  1.00  0.00    -0.115 C  
HETATM   19  H   UNL     1     -10.590   3.924  68.658  1.00  0.00     0.000 HD 
HETATM   20  O   UNL     1      -9.994   4.576  69.006  1.00  0.00    -0.165 OA 
HETATM   21  C   UNL     1     -10.105   5.936  67.034  1.00  0.00    -0.183 C  
HETATM   22  H   UNL     1     -11.048   4.283  66.532  1.00  0.00     0.000 HD 
HETATM   23  C   UNL     1     -10.347   5.899  68.529  1.00  0.00    -0.214 C  
HETATM   24  O   UNL     1     -10.167   4.628  66.448  1.00  0.00    -0.244 OA 
BRANCH  18  25
HETATM   25  C   UNL     1      -8.621   7.596  65.845  1.00  0.00    -0.148 C  
BRANCH  25  26
HETATM   26  O   UNL     1      -8.512   6.942  64.581  1.00  0.00    -0.005 OA 
BRANCH  26  27
HETATM   27  P   UNL     1      -7.520   7.643  63.532  1.00  0.00    -0.120 P  
HETATM   28  O   UNL     1      -8.580   8.677  62.884  1.00  0.00    -0.166 OA 
HETATM   29  O   UNL     1      -6.312   8.320  64.107  1.00  0.00    -0.065 OA 
BRANCH  27  30
HETATM   30  O   UNL     1      -7.168   6.457  62.465  1.00  0.00    -0.044 OA 
HETATM   31  P   UNL     1      -6.959   4.868  63.114  1.00  0.00    -0.040 P  
HETATM   32  C   UNL     1      -6.739   3.186  63.803  1.00  0.00    -0.032 C  
HETATM   33  O   UNL     1      -5.438   5.323  63.564  1.00  0.00    -0.013 OA 
HETATM   34  O   UNL     1      -7.910   5.173  64.302  1.00  0.00    -0.083 OA 
HETATM   35 CL   UNL     1      -6.138   3.202  65.530  1.00  0.00    -0.023 Cl 
HETATM   36  P   UNL     1      -8.369   2.366  63.942  1.00  0.00    -0.082 P  
HETATM   37 CL   UNL     1      -5.463   2.347  62.859  1.00  0.00    -0.007 Cl 
HETATM   38  O   UNL     1      -8.053   1.516  62.555  1.00  0.00    -0.053 OA 
HETATM   39  O   UNL     1      -9.085   3.544  63.017  1.00  0.00    -0.093 OA 
HETATM   40  O   UNL     1      -9.748   1.671  64.059  1.00  0.00    -0.132 OA 
ENDBRANCH  27  30
ENDBRANCH  26  27
ENDBRANCH  25  26
ENDBRANCH  18  25
ENDBRANCH  11  16
BRANCH  14  41
HETATM   41  S   UNL     1      -5.809  11.084  67.808  1.00  0.00    -0.047 SA 
BRANCH  41  42
HETATM   42  C   UNL     1      -5.459  12.699  68.582  1.00  0.00    -0.059 C  
BRANCH  42  43
HETATM   43  C   UNL     1      -5.671  13.789  67.539  1.00  0.00     0.083 C  
HETATM   44  C   UNL     1      -6.260  15.045  68.141  1.00  0.00    -0.136 C  
HETATM   45  F   UNL     1      -5.476  16.115  67.867  1.00  0.00    -0.093 F  
HETATM   46  F   UNL     1      -6.400  14.975  69.479  1.00  0.00    -0.101 F  
HETATM   47  F   UNL     1      -7.479  15.303  67.615  1.00  0.00    -0.125 F  
ENDBRANCH  42  43
ENDBRANCH  41  42
ENDBRANCH  14  41
ENDBRANCH   5   7
ENDBRANCH   4   5
ENDBRANCH   3   4
ENDBRANCH   2   3
TORSDOF 12
ENDMDL
MODEL      216
REMARK 921   NORMALIZED FREE ENERGY PREDICTED BY IDOCK:    0.05 KCAL/MOL
REMARK 922        TOTAL FREE ENERGY PREDICTED BY IDOCK:   -0.92 KCAL/MOL
REMARK 923 INTER-LIGAND FREE ENERGY PREDICTED BY IDOCK:   -3.02 KCAL/MOL
REMARK 924 INTRA-LIGAND FREE ENERGY PREDICTED BY IDOCK:    2.10 KCAL/MOL
REMARK 927      BINDING AFFINITY PREDICTED BY RF-SCORE:    0.00 PKD
ROOT
HETATM    1  C   UNL     1     -13.287  11.764  72.147  1.00  0.00    -0.228 C  
HETATM    2  S   UNL     1     -12.609  13.438  72.094  1.00  0.00     0.133 SA 
ENDROOT
BRANCH   2   3
HETATM    3  C   UNL     1     -13.178  13.943  70.427  1.00  0.00     0.242 C  
BRANCH   3   4
HETATM    4  C   UNL     1     -13.426  12.729  69.507  1.00  0.00     3.134 C  
BRANCH   4   5
HETATM    5  N   UNL     1     -12.200  12.330  68.838  1.00  0.00    -0.092 NA 
HETATM    6  H   UNL     1     -11.768  11.437  69.071  1.00  0.00     0.000 HD 
BRANCH   5   7
HETATM    7  C   UNL     1     -11.611  13.146  67.888  1.00  0.00    -0.336 A  
HETATM    8  C   UNL     1     -10.952  14.324  68.275  1.00  0.00    -0.247 A  
HETATM    9  N   UNL     1     -10.708  14.879  69.516  1.00  0.00    -0.250 NA 
HETATM   10  C   UNL     1      -9.968  15.949  69.269  1.00  0.00    -0.254 A  
HETATM   11  N   UNL     1      -9.750  16.124  67.918  1.00  0.00    -0.224 NA 
HETATM   12  C   UNL     1     -10.371  15.091  67.276  1.00  0.00    -0.249 A  
HETATM   13  N   UNL     1     -11.651  12.848  66.557  1.00  0.00    -0.351 NA 
HETATM   14  C   UNL     1     -11.083  13.705  65.684  1.00  0.00    -0.294 A  
HETATM   15  N   UNL     1     -10.406  14.844  65.965  1.00  0.00    -0.283 NA 
BRANCH  11  16
HETATM   16  C   UNL     1      -8.845  17.108  67.366  1.00  0.00    -0.212 C  
HETATM   17  O   UNL     1      -7.583  16.464  67.152  1.00  0.00    -0.152 OA 
HETATM   18  C   UNL     1      -6.655  16.870  68.171  1.00  0.00    -0.145 C  
HETATM   19  H   UNL     1      -7.932  20.252  67.707  1.00  0.00     0.000 HD 
HETATM   20  O   UNL     1      -8.141  19.458  67.228  1.00  0.00    -0.260 OA 
HETATM   21  C   UNL     1      -7.278  18.025  68.946  1.00  0.00    -0.259 C  
HETATM   22  H   UNL     1      -6.732  19.831  69.506  1.00  0.00     0.000 HD 
HETATM   23  C   UNL     1      -8.507  18.392  68.140  1.00  0.00    -0.285 C  
HETATM   24  O   UNL     1      -6.344  19.111  69.024  1.00  0.00    -0.247 OA 
BRANCH  18  25
HETATM   25  C   UNL     1      -6.281  15.712  69.098  1.00  0.00    -0.119 C  
BRANCH  25  26
HETATM   26  O   UNL     1      -6.297  14.532  68.294  1.00  0.00    -0.099 OA 
BRANCH  26  27
HETATM   27  P   UNL     1      -7.107  13.293  68.914  1.00  0.00     0.013 P  
HETATM   28  O   UNL     1      -6.410  13.283  70.372  1.00  0.00    -0.044 OA 
HETATM   29  O   UNL     1      -8.599  13.435  68.974  1.00  0.00     0.166 OA 
BRANCH  27  30
HETATM   30  O   UNL     1      -6.600  12.009  68.040  1.00  0.00    -0.061 OA 
HETATM   31  P   UNL     1      -6.662  10.468  68.822  1.00  0.00    -0.061 P  
HETATM   32  C   UNL     1      -6.729   8.837  69.650  1.00  0.00    -0.039 C  
HETATM   33  O   UNL     1      -5.260  10.875  69.591  1.00  0.00    -0.038 OA 
HETATM   34  O   UNL     1      -7.840  10.917  69.726  1.00  0.00     0.005 OA 
HETATM   35 CL   UNL     1      -6.549   8.957  71.465  1.00  0.00    -0.083 Cl 
HETATM   36  P   UNL     1      -8.401   8.119  69.448  1.00  0.00    -0.124 P  
HETATM   37 CL   UNL     1      -5.331   7.858  69.093  1.00  0.00    -0.025 Cl 
HETATM   38  O   UNL     1      -7.830   7.146  68.234  1.00  0.00    -0.117 OA 
HETATM   39  O   UNL     1      -8.795   9.257  68.305  1.00  0.00    -0.128 OA 
HETATM   40  O   UNL     1      -9.814   7.511  69.277  1.00  0.00    -0.165 OA 
ENDBRANCH  27  30
ENDBRANCH  26  27
ENDBRANCH  25  26
ENDBRANCH  18  25
ENDBRANCH  11  16
BRANCH  14  41
HETATM   41  S   UNL     1     -11.217  13.349  63.946  1.00  0.00    -0.096 SA 
BRANCH  41  42
HETATM   42  C   UNL     1     -11.275  11.526  63.986  1.00  0.00    -0.333 C  
BRANCH  42  43
HETATM   43  C   UNL     1      -9.910  11.010  64.422  1.00  0.00    -0.351 C  
HETATM   44  C   UNL     1      -9.337  10.015  63.437  1.00  0.00    -0.257 C  
HETATM   45  F   UNL     1      -8.112  10.414  63.018  1.00  0.00    -0.143 F  
HETATM   46  F   UNL     1     -10.106   9.851  62.343  1.00  0.00    -0.055 F  
HETATM   47  F   UNL     1      -9.182   8.803  64.015  1.00  0.00    -0.008 F  
ENDBRANCH  42  43
ENDBRANCH  41  42
ENDBRANCH  14  41
ENDBRANCH   5   7
ENDBRANCH   4   5
ENDBRANCH   3   4
ENDBRANCH   2   3
TORSDOF 12
ENDMDL
MODEL      217
REMARK 921   NORMALIZED FREE ENERGY PREDICTED BY IDOCK:    0.08 KCAL/MOL
REMARK 922        TOTAL FREE ENERGY PREDICTED BY IDOCK:   -0.87 KCAL/MOL
REMARK 923 INTER-LIGAND FREE ENERGY PREDICTED BY IDOCK:   -1.31 KCAL/MOL
REMARK 924 INTRA-LIGAND FREE ENERGY PREDICTED BY IDOCK:    0.43 KCAL/MOL
REMARK 927      BINDING AFFINITY PREDICTED BY RF-SCORE:    0.00 PKD
ROOT
HETATM    1  C   UNL     1     -11.989   4.379  74.014  1.00  0.00     1.631 C  
HETATM    2  S   UNL     1     -11.377   3.876  72.391  1.00  0.00     0.948 SA 
ENDROOT
BRANCH   2   3
HETATM    3  C   UNL     1     -10.939   5.520  71.708  1.00  0.00    -0.182 C  
BRANCH   3   4
HETATM    4  C   UNL     1      -9.902   6.253  72.585  1.00  0.00    -0.166 C  
BRANCH   4   5
HETATM    5  N   UNL     1     -10.202   7.672  72.662  1.00  0.00    -0.240 NA 
HETATM    6  H   UNL     1     -10.864   8.009  73.359  1.00  0.00     0.000 HD 
BRANCH   5   7
HETATM    7  C   UNL     1      -9.601   8.573  71.800  1.00  0.00    -0.267 A  
HETATM    8  C   UNL     1     -10.383   9.388  70.967  1.00  0.00    -0.312 A  
HETATM    9  N   UNL     1     -11.751   9.527  70.834  1.00  0.00    -0.298 NA 
HETATM   10  C   UNL     1     -11.909  10.506  69.957  1.00  0.00    -0.308 A  
HETATM   11  N   UNL     1     -10.699  10.984  69.496  1.00  0.00    -0.219 NA 
HETATM   12  C   UNL     1      -9.721  10.280  70.136  1.00  0.00     0.121 A  
HETATM   13  N   UNL     1      -8.244   8.700  71.721  1.00  0.00    -0.246 NA 
HETATM   14  C   UNL     1      -7.727   9.576  70.836  1.00  0.00     0.018 A  
HETATM   15  N   UNL     1      -8.399  10.419  70.016  1.00  0.00     0.082 NA 
BRANCH  11  16
HETATM   16  C   UNL     1     -10.559  12.157  68.661  1.00  0.00    -0.223 C  
HETATM   17  O   UNL     1     -11.491  12.032  67.579  1.00  0.00    -0.298 OA 
HETATM   18  C   UNL     1     -10.791  11.671  66.378  1.00  0.00    -0.287 C  
HETATM   19  H   UNL     1      -8.278  14.128  67.342  1.00  0.00     0.000 HD 
HETATM   20  O   UNL     1      -9.107  13.920  67.756  1.00  0.00    -0.176 OA 
HETATM   21  C   UNL     1      -9.295  11.805  66.643  1.00  0.00    -0.198 C  
HETATM   22  H   UNL     1      -7.760  12.673  65.770  1.00  0.00     0.000 HD 
HETATM   23  C   UNL     1      -9.218  12.494  67.990  1.00  0.00    -0.204 C  
HETATM   24  O   UNL     1      -8.692  12.589  65.604  1.00  0.00     0.449 OA 
BRANCH  18  25
HETATM   25  C   UNL     1     -11.150  10.260  65.908  1.00  0.00     0.568 C  
BRANCH  25  26
HETATM   26  O   UNL     1     -10.876   9.389  67.007  1.00  0.00    -0.187 OA 
BRANCH  26  27
HETATM   27  P   UNL     1     -10.152   8.011  66.621  1.00  0.00    -0.118 P  
HETATM   28  O   UNL     1      -9.143   7.933  67.882  1.00  0.00    -0.132 OA 
HETATM   29  O   UNL     1     -11.035   6.805  66.498  1.00  0.00    -0.133 OA 
BRANCH  27  30
HETATM   30  O   UNL     1      -9.322   8.365  65.259  1.00  0.00     0.051 OA 
HETATM   31  P   UNL     1      -7.879   7.456  64.974  1.00  0.00    -0.127 P  
HETATM   32  C   UNL     1      -6.352   6.493  64.672  1.00  0.00    -0.038 C  
HETATM   33  O   UNL     1      -7.118   8.450  66.050  1.00  0.00    -0.067 OA 
HETATM   34  O   UNL     1      -8.427   6.239  65.766  1.00  0.00    -0.139 OA 
HETATM   35 CL   UNL     1      -5.559   5.922  66.218  1.00  0.00    -0.013 Cl 
HETATM   36  P   UNL     1      -6.775   4.927  63.824  1.00  0.00    -0.044 P  
HETATM   37 CL   UNL     1      -5.148   7.566  63.884  1.00  0.00    -0.029 Cl 
HETATM   38  O   UNL     1      -6.290   5.584  62.382  1.00  0.00    -0.021 OA 
HETATM   39  O   UNL     1      -8.315   5.466  63.512  1.00  0.00    -0.123 OA 
HETATM   40  O   UNL     1      -7.133   3.603  63.105  1.00  0.00    -0.046 OA 
ENDBRANCH  27  30
ENDBRANCH  26  27
ENDBRANCH  25  26
ENDBRANCH  18  25
ENDBRANCH  11  16
BRANCH  14  41
HETATM   41  S   UNL     1      -5.956   9.670  70.681  1.00  0.00    -0.080 SA 
BRANCH  41  42
HETATM   42  C   UNL     1      -5.511   7.916  70.920  1.00  0.00    -0.030 C  
BRANCH  42  43
HETATM   43  C   UNL     1      -6.792   7.091  70.922  1.00  0.00    -0.054 C  
HETATM   44  C   UNL     1      -6.690   5.880  70.021  1.00  0.00    -0.052 C  
HETATM   45  F   UNL     1      -6.962   4.749  70.714  1.00  0.00    -0.033 F  
HETATM   46  F   UNL     1      -5.470   5.734  69.468  1.00  0.00    -0.004 F  
HETATM   47  F   UNL     1      -7.589   5.954  69.015  1.00  0.00    -0.081 F  
ENDBRANCH  42  43
ENDBRANCH  41  42
ENDBRANCH  14  41
ENDBRANCH   5   7
ENDBRANCH   4   5
ENDBRANCH   3   4
ENDBRANCH   2   3
TORSDOF 12
ENDMDL
MODEL      218
REMARK 921   NORMALIZED FREE ENERGY PREDICTED BY IDOCK:    0.34 KCAL/MOL
REMARK 922        TOTAL FREE ENERGY PREDICTED BY IDOCK:   -0.43 KCAL/MOL
REMARK 923 INTER-LIGAND FREE ENERGY PREDICTED BY IDOCK:   -6.41 KCAL/MOL
REMARK 924 INTRA-LIGAND FREE ENERGY PREDICTED BY IDOCK:    5.98 KCAL/MOL
REMARK 927      BINDING AFFINITY PREDICTED BY RF-SCORE:    0.00 PKD
ROOT
HETATM    1  C   UNL     1      -8.544  19.582  68.060  1.00  0.00    -0.325 C  
HETATM    2  S   UNL     1     -10.075  18.673  68.367  1.00  0.00    -0.374 SA 
ENDROOT
BRANCH   2   3
HETATM    3  C   UNL     1      -9.950  17.412  67.042  1.00  0.00    -0.295 C  
BRANCH   3   4
HETATM    4  C   UNL     1     -11.214  17.375  66.157  1.00  0.00     0.756 C  
BRANCH   4   5
HETATM    5  N   UNL     1     -11.253  16.159  65.364  1.00  0.00    -0.085 NA 
HETATM    6  H   UNL     1     -11.820  16.129  64.517  1.00  0.00     0.000 HD 
BRANCH   5   7
HETATM    7  C   UNL     1     -10.532  15.040  65.742  1.00  0.00    -0.337 A  
HETATM    8  C   UNL     1     -10.987  13.755  65.406  1.00  0.00    -0.309 A  
HETATM    9  N   UNL     1     -12.080  13.325  64.679  1.00  0.00    -0.388 NA 
HETATM   10  C   UNL     1     -11.949  12.009  64.617  1.00  0.00    -0.249 A  
HETATM   11  N   UNL     1     -10.834  11.570  65.299  1.00  0.00    -0.280 NA 
HETATM   12  C   UNL     1     -10.212  12.676  65.804  1.00  0.00    -0.272 A  
HETATM   13  N   UNL     1      -9.371  15.137  66.453  1.00  0.00    -0.281 NA 
HETATM   14  C   UNL     1      -8.737  14.003  66.816  1.00  0.00    -0.110 A  
HETATM   15  N   UNL     1      -9.085  12.729  66.515  1.00  0.00    -0.191 NA 
BRANCH  11  16
HETATM   16  C   UNL     1     -10.350  10.207  65.264  1.00  0.00    -0.084 C  
HETATM   17  O   UNL     1     -10.477   9.668  66.586  1.00  0.00    -0.221 OA 
HETATM   18  C   UNL     1      -9.185   9.613  67.211  1.00  0.00    -0.134 C  
HETATM   19  H   UNL     1      -7.918   8.363  64.030  1.00  0.00     0.000 HD 
HETATM   20  O   UNL     1      -8.812   8.557  64.288  1.00  0.00     0.026 OA 
HETATM   21  C   UNL     1      -8.132   9.908  66.149  1.00  0.00    -0.119 C  
HETATM   22  H   UNL     1      -6.462   9.077  65.521  1.00  0.00     0.000 HD 
HETATM   23  C   UNL     1      -8.905   9.892  64.846  1.00  0.00    -0.193 C  
HETATM   24  O   UNL     1      -7.118   8.894  66.183  1.00  0.00    -0.082 OA 
BRANCH  18  25
HETATM   25  C   UNL     1      -9.078  10.584  68.389  1.00  0.00    -0.148 C  
BRANCH  25  26
HETATM   26  O   UNL     1      -8.311   9.916  69.392  1.00  0.00    -0.128 OA 
BRANCH  26  27
HETATM   27  P   UNL     1      -6.775  10.368  69.491  1.00  0.00    -0.112 P  
HETATM   28  O   UNL     1      -6.854  11.637  68.494  1.00  0.00    -0.063 OA 
HETATM   29  O   UNL     1      -6.272  10.723  70.859  1.00  0.00    -0.342 OA 
BRANCH  27  30
HETATM   30  O   UNL     1      -5.954   9.146  68.781  1.00  0.00    -0.043 OA 
HETATM   31  P   UNL     1      -6.532   7.545  69.088  1.00  0.00    -0.041 P  
HETATM   32  C   UNL     1      -7.145   5.852  69.412  1.00  0.00    -0.065 C  
HETATM   33  O   UNL     1      -5.759   7.615  70.544  1.00  0.00    -0.026 OA 
HETATM   34  O   UNL     1      -7.982   8.055  69.303  1.00  0.00    -0.112 OA 
HETATM   35 CL   UNL     1      -7.982   5.700  71.031  1.00  0.00    -0.108 Cl 
HETATM   36  P   UNL     1      -8.475   5.445  68.221  1.00  0.00    -0.095 P  
HETATM   37 CL   UNL     1      -5.736   4.742  69.495  1.00  0.00    -0.015 Cl 
HETATM   38  O   UNL     1      -7.395   4.562  67.326  1.00  0.00    -0.072 OA 
HETATM   39  O   UNL     1      -8.105   6.773  67.295  1.00  0.00    -0.115 OA 
HETATM   40  O   UNL     1      -9.599   5.101  67.213  1.00  0.00    -0.128 OA 
ENDBRANCH  27  30
ENDBRANCH  26  27
ENDBRANCH  25  26
ENDBRANCH  18  25
ENDBRANCH  11  16
BRANCH  14  41
HETATM   41  S   UNL     1      -7.272  14.140  67.816  1.00  0.00    -0.187 SA 
BRANCH  41  42
HETATM   42  C   UNL     1      -6.816  15.878  67.496  1.00  0.00    -0.183 C  
BRANCH  42  43
HETATM   43  C   UNL     1      -5.573  16.208  68.312  1.00  0.00    -0.107 C  
HETATM   44  C   UNL     1      -5.867  17.193  69.422  1.00  0.00    -0.212 C  
HETATM   45  F   UNL     1      -5.485  16.687  70.619  1.00  0.00    -0.191 F  
HETATM   46  F   UNL     1      -7.172  17.512  69.513  1.00  0.00    -0.193 F  
HETATM   47  F   UNL     1      -5.176  18.341  69.239  1.00  0.00    -0.177 F  
ENDBRANCH  42  43
ENDBRANCH  41  42
ENDBRANCH  14  41
ENDBRANCH   5   7
ENDBRANCH   4   5
ENDBRANCH   3   4
ENDBRANCH   2   3
TORSDOF 12
ENDMDL
MODEL      219
REMARK 921   NORMALIZED FREE ENERGY PREDICTED BY IDOCK:    0.42 KCAL/MOL
REMARK 922        TOTAL FREE ENERGY PREDICTED BY IDOCK:   -0.29 KCAL/MOL
REMARK 923 INTER-LIGAND FREE ENERGY PREDICTED BY IDOCK:    0.18 KCAL/MOL
REMARK 924 INTRA-LIGAND FREE ENERGY PREDICTED BY IDOCK:   -0.47 KCAL/MOL
REMARK 927      BINDING AFFINITY PREDICTED BY RF-SCORE:    0.00 PKD
ROOT
HETATM    1  C   UNL     1     -13.568  13.450  71.507  1.00  0.00    -0.133 C  
HETATM    2  S   UNL     1     -12.127  12.366  71.616  1.00  0.00     1.268 SA 
ENDROOT
BRANCH   2   3
HETATM    3  C   UNL     1     -12.857  10.822  70.950  1.00  0.00    -0.351 C  
BRANCH   3   4
HETATM    4  C   UNL     1     -11.881   9.630  71.052  1.00  0.00    -0.347 C  
BRANCH   4   5
HETATM    5  N   UNL     1     -10.976   9.607  69.916  1.00  0.00    -0.243 NA 
HETATM    6  H   UNL     1     -11.258  10.044  69.039  1.00  0.00     0.000 HD 
BRANCH   5   7
HETATM    7  C   UNL     1      -9.736   8.999  70.008  1.00  0.00    -0.185 A  
HETATM    8  C   UNL     1      -9.629   7.665  70.432  1.00  0.00    -0.168 A  
HETATM    9  N   UNL     1     -10.583   6.727  70.773  1.00  0.00    -0.218 NA 
HETATM   10  C   UNL     1      -9.898   5.617  71.007  1.00  0.00    -0.178 A  
HETATM   11  N   UNL     1      -8.541   5.809  70.860  1.00  0.00    -0.128 NA 
HETATM   12  C   UNL     1      -8.358   7.111  70.491  1.00  0.00    -0.131 A  
HETATM   13  N   UNL     1      -8.583   9.664  69.702  1.00  0.00    -0.170 NA 
HETATM   14  C   UNL     1      -7.407   9.019  69.845  1.00  0.00    -0.060 A  
HETATM   15  N   UNL     1      -7.209   7.733  70.219  1.00  0.00    -0.061 NA 
BRANCH  11  16
HETATM   16  C   UNL     1      -7.566   4.741  70.889  1.00  0.00    -0.069 C  
HETATM   17  O   UNL     1      -6.484   5.118  70.029  1.00  0.00    -0.032 OA 
HETATM   18  C   UNL     1      -6.563   4.376  68.800  1.00  0.00    -0.045 C  
HETATM   19  H   UNL     1      -7.333   1.458  70.844  1.00  0.00     0.000 HD 
HETATM   20  O   UNL     1      -7.100   2.338  71.115  1.00  0.00    -0.032 OA 
HETATM   21  C   UNL     1      -7.614   3.286  68.973  1.00  0.00    -0.048 C  
HETATM   22  H   UNL     1      -7.721   1.343  68.678  1.00  0.00     0.000 HD 
HETATM   23  C   UNL     1      -7.941   3.316  70.452  1.00  0.00    -0.045 C  
HETATM   24  O   UNL     1      -7.067   2.023  68.570  1.00  0.00    -0.042 OA 
BRANCH  18  25
HETATM   25  C   UNL     1      -6.884   5.279  67.608  1.00  0.00    -0.060 C  
BRANCH  25  26
HETATM   26  O   UNL     1      -7.771   4.537  66.770  1.00  0.00    -0.089 OA 
BRANCH  26  27
HETATM   27  P   UNL     1      -7.586   4.779  65.195  1.00  0.00    -0.079 P  
HETATM   28  O   UNL     1      -6.966   3.334  64.821  1.00  0.00    -0.053 OA 
HETATM   29  O   UNL     1      -8.828   5.106  64.420  1.00  0.00    -0.131 OA 
BRANCH  27  30
HETATM   30  O   UNL     1      -6.428   5.928  65.103  1.00  0.00    -0.040 OA 
HETATM   31  P   UNL     1      -6.880   7.424  64.363  1.00  0.00    -0.058 P  
HETATM   32  C   UNL     1      -7.359   9.008  63.581  1.00  0.00    -0.100 C  
HETATM   33  O   UNL     1      -6.681   6.686  62.900  1.00  0.00    -0.041 OA 
HETATM   34  O   UNL     1      -8.363   7.243  64.782  1.00  0.00    -0.093 OA 
HETATM   35 CL   UNL     1      -8.687   8.811  62.340  1.00  0.00    -0.191 Cl 
HETATM   36  P   UNL     1      -8.126  10.100  64.834  1.00  0.00    -0.138 P  
HETATM   37 CL   UNL     1      -5.946   9.647  62.675  1.00  0.00    -0.097 Cl 
HETATM   38  O   UNL     1      -6.703  10.939  64.966  1.00  0.00     0.114 OA 
HETATM   39  O   UNL     1      -7.617   9.109  66.066  1.00  0.00    -0.093 OA 
HETATM   40  O   UNL     1      -8.773  11.024  65.894  1.00  0.00    -0.178 OA 
ENDBRANCH  27  30
ENDBRANCH  26  27
ENDBRANCH  25  26
ENDBRANCH  18  25
ENDBRANCH  11  16
BRANCH  14  41
HETATM   41  S   UNL     1      -5.907   9.922  69.526  1.00  0.00    -0.037 SA 
BRANCH  41  42
HETATM   42  C   UNL     1      -6.102  11.308  70.697  1.00  0.00     0.012 C  
BRANCH  42  43
HETATM   43  C   UNL     1      -6.223  12.600  69.899  1.00  0.00    -0.088 C  
HETATM   44  C   UNL     1      -6.729  13.747  70.746  1.00  0.00     0.728 C  
HETATM   45  F   UNL     1      -5.867  14.790  70.695  1.00  0.00    -0.133 F  
HETATM   46  F   UNL     1      -6.890  13.416  72.042  1.00  0.00     1.851 F  
HETATM   47  F   UNL     1      -7.919  14.194  70.286  1.00  0.00     0.595 F  
ENDBRANCH  42  43
ENDBRANCH  41  42
ENDBRANCH  14  41
ENDBRANCH   5   7
ENDBRANCH   4   5
ENDBRANCH   3   4
ENDBRANCH   2   3
TORSDOF 12
ENDMDL
MODEL      220
REMARK 921   NORMALIZED FREE ENERGY PREDICTED BY IDOCK:    0.49 KCAL/MOL
REMARK 922        TOTAL FREE ENERGY PREDICTED BY IDOCK:   -0.18 KCAL/MOL
REMARK 923 INTER-LIGAND FREE ENERGY PREDICTED BY IDOCK:   -3.32 KCAL/MOL
REMARK 924 INTRA-LIGAND FREE ENERGY PREDICTED BY IDOCK:    3.14 KCAL/MOL
REMARK 927      BINDING AFFINITY PREDICTED BY RF-SCORE:    0.00 PKD
ROOT
HETATM    1  C   UNL     1     -12.439   1.484  62.944  1.00  0.00     2.372 C  
HETATM    2  S   UNL     1     -10.649   1.474  62.698  1.00  0.00    -0.128 SA 
ENDROOT
BRANCH   2   3
HETATM    3  C   UNL     1     -10.266   3.198  63.187  1.00  0.00    -0.154 C  
BRANCH   3   4
HETATM    4  C   UNL     1      -9.425   3.260  64.481  1.00  0.00    -0.148 C  
BRANCH   4   5
HETATM    5  N   UNL     1      -9.949   4.265  65.389  1.00  0.00    -0.213 NA 
HETATM    6  H   UNL     1     -10.888   4.156  65.772  1.00  0.00     0.000 HD 
BRANCH   5   7
HETATM    7  C   UNL     1      -9.192   5.368  65.741  1.00  0.00    -0.138 A  
HETATM    8  C   UNL     1      -9.745   6.382  66.541  1.00  0.00    -0.129 A  
HETATM    9  N   UNL     1     -10.982   6.512  67.140  1.00  0.00    -0.397 NA 
HETATM   10  C   UNL     1     -10.903   7.633  67.840  1.00  0.00    -0.035 A  
HETATM   11  N   UNL     1      -9.677   8.246  67.694  1.00  0.00    -0.152 NA 
HETATM   12  C   UNL     1      -8.929   7.455  66.869  1.00  0.00    -0.135 A  
HETATM   13  N   UNL     1      -7.900   5.518  65.327  1.00  0.00    -0.091 NA 
HETATM   14  C   UNL     1      -7.233   6.635  65.682  1.00  0.00    -0.070 A  
HETATM   15  N   UNL     1      -7.671   7.647  66.468  1.00  0.00    -0.095 NA 
BRANCH  11  16
HETATM   16  C   UNL     1      -9.249   9.392  68.467  1.00  0.00    -0.131 C  
HETATM   17  O   UNL     1      -9.599   9.147  69.835  1.00  0.00    -0.172 OA 
HETATM   18  C   UNL     1     -10.750   9.932  70.186  1.00  0.00    -0.308 C  
HETATM   19  H   UNL     1      -9.178  12.681  68.382  1.00  0.00     0.000 HD 
HETATM   20  O   UNL     1      -8.841  11.813  68.569  1.00  0.00    -0.169 OA 
HETATM   21  C   UNL     1     -11.013  10.920  69.055  1.00  0.00    -0.235 C  
HETATM   22  H   UNL     1     -11.315  12.857  68.890  1.00  0.00     0.000 HD 
HETATM   23  C   UNL     1      -9.793  10.797  68.164  1.00  0.00    -0.158 C  
HETATM   24  O   UNL     1     -11.152  12.241  69.594  1.00  0.00    -0.111 OA 
BRANCH  18  25
HETATM   25  C   UNL     1     -11.976   9.058  70.461  1.00  0.00    -0.010 C  
BRANCH  25  26
HETATM   26  O   UNL     1     -12.016   8.856  71.874  1.00  0.00    -0.325 OA 
BRANCH  26  27
HETATM   27  P   UNL     1     -10.862   7.909  72.462  1.00  0.00    -0.388 P  
HETATM   28  O   UNL     1      -9.627   8.938  72.296  1.00  0.00    -0.295 OA 
HETATM   29  O   UNL     1     -11.046   7.431  73.871  1.00  0.00    -0.072 OA 
BRANCH  27  30
HETATM   30  O   UNL     1     -10.740   6.704  71.365  1.00  0.00    -0.222 OA 
HETATM   31  P   UNL     1      -9.564   5.478  71.691  1.00  0.00    -0.157 P  
HETATM   32  C   UNL     1      -8.320   4.181  72.037  1.00  0.00    -0.104 C  
HETATM   33  O   UNL     1      -8.418   6.518  71.117  1.00  0.00    -0.125 OA 
HETATM   34  O   UNL     1      -9.677   5.704  73.222  1.00  0.00    -0.149 OA 
HETATM   35 CL   UNL     1      -6.907   4.799  73.019  1.00  0.00    -0.069 Cl 
HETATM   36  P   UNL     1      -9.054   2.907  73.127  1.00  0.00    -0.090 P  
HETATM   37 CL   UNL     1      -7.617   3.636  70.477  1.00  0.00    -0.041 Cl 
HETATM   38  O   UNL     1      -9.280   1.921  71.814  1.00  0.00    -0.078 OA 
HETATM   39  O   UNL     1     -10.578   3.521  72.886  1.00  0.00    -0.166 OA 
HETATM   40  O   UNL     1      -9.675   1.828  74.049  1.00  0.00    -0.073 OA 
ENDBRANCH  27  30
ENDBRANCH  26  27
ENDBRANCH  25  26
ENDBRANCH  18  25
ENDBRANCH  11  16
BRANCH  14  41
HETATM   41  S   UNL     1      -5.579   6.860  65.064  1.00  0.00    -0.032 SA 
BRANCH  41  42
HETATM   42  C   UNL     1      -5.133   5.132  64.682  1.00  0.00    -0.009 C  
BRANCH  42  43
HETATM   43  C   UNL     1      -5.652   4.798  63.289  1.00  0.00    -0.016 C  
HETATM   44  C   UNL     1      -6.327   3.445  63.243  1.00  0.00    -0.022 C  
HETATM   45  F   UNL     1      -7.588   3.561  62.763  1.00  0.00    -0.050 F  
HETATM   46  F   UNL     1      -6.405   2.852  64.450  1.00  0.00    -0.020 F  
HETATM   47  F   UNL     1      -5.664   2.606  62.416  1.00  0.00    -0.007 F  
ENDBRANCH  42  43
ENDBRANCH  41  42
ENDBRANCH  14  41
ENDBRANCH   5   7
ENDBRANCH   4   5
ENDBRANCH   3   4
ENDBRANCH   2   3
TORSDOF 12
ENDMDL
MODEL      221
REMARK 921   NORMALIZED FREE ENERGY PREDICTED BY IDOCK:    0.71 KCAL/MOL
REMARK 922        TOTAL FREE ENERGY PREDICTED BY IDOCK:    0.20 KCAL/MOL
REMARK 923 INTER-LIGAND FREE ENERGY PREDICTED BY IDOCK:   -2.86 KCAL/MOL
REMARK 924 INTRA-LIGAND FREE ENERGY PREDICTED BY IDOCK:    3.06 KCAL/MOL
REMARK 927      BINDING AFFINITY PREDICTED BY RF-SCORE:    0.00 PKD
ROOT
HETATM    1  C   UNL     1     -12.418   1.471  62.930  1.00  0.00     2.372 C  
HETATM    2  S   UNL     1     -10.628   1.484  62.684  1.00  0.00    -0.128 SA 
ENDROOT
BRANCH   2   3
HETATM    3  C   UNL     1     -10.271   3.223  63.142  1.00  0.00    -0.166 C  
BRANCH   3   4
HETATM    4  C   UNL     1      -9.421   3.320  64.427  1.00  0.00    -0.145 C  
BRANCH   4   5
HETATM    5  N   UNL     1      -9.992   4.283  65.352  1.00  0.00    -0.213 NA 
HETATM    6  H   UNL     1     -10.914   4.111  65.752  1.00  0.00     0.000 HD 
BRANCH   5   7
HETATM    7  C   UNL     1      -9.302   5.432  65.698  1.00  0.00    -0.083 A  
HETATM    8  C   UNL     1      -9.906   6.404  66.512  1.00  0.00    -0.116 A  
HETATM    9  N   UNL     1     -11.139   6.451  67.132  1.00  0.00    -0.386 NA 
HETATM   10  C   UNL     1     -11.121   7.572  67.837  1.00  0.00     0.187 A  
HETATM   11  N   UNL     1      -9.940   8.264  67.674  1.00  0.00    -0.177 NA 
HETATM   12  C   UNL     1      -9.157   7.527  66.833  1.00  0.00    -0.141 A  
HETATM   13  N   UNL     1      -8.030   5.667  65.264  1.00  0.00    -0.108 NA 
HETATM   14  C   UNL     1      -7.430   6.824  65.614  1.00  0.00    -0.082 A  
HETATM   15  N   UNL     1      -7.921   7.801  66.412  1.00  0.00    -0.097 NA 
BRANCH  11  16
HETATM   16  C   UNL     1      -9.574   9.432  68.446  1.00  0.00    -0.146 C  
HETATM   17  O   UNL     1      -9.873   9.154  69.819  1.00  0.00    -0.168 OA 
HETATM   18  C   UNL     1     -11.067   9.854  70.205  1.00  0.00    -0.296 C  
HETATM   19  H   UNL     1      -9.736  12.718  68.387  1.00  0.00     0.000 HD 
HETATM   20  O   UNL     1      -9.335  11.875  68.558  1.00  0.00    -0.196 OA 
HETATM   21  C   UNL     1     -11.426  10.829  69.088  1.00  0.00    -0.298 C  
HETATM   22  H   UNL     1     -11.867  12.741  68.947  1.00  0.00     0.000 HD 
HETATM   23  C   UNL     1     -10.222  10.797  68.168  1.00  0.00    -0.172 C  
HETATM   24  O   UNL     1     -11.644  12.133  69.642  1.00  0.00    -0.298 OA 
BRANCH  18  25
HETATM   25  C   UNL     1     -12.222   8.895  70.501  1.00  0.00     0.163 C  
BRANCH  25  26
HETATM   26  O   UNL     1     -12.217   8.686  71.914  1.00  0.00    -0.309 OA 
BRANCH  26  27
HETATM   27  P   UNL     1     -10.849   8.101  72.514  1.00  0.00    -0.307 P  
HETATM   28  O   UNL     1      -9.953   9.437  72.362  1.00  0.00     0.350 OA 
HETATM   29  O   UNL     1     -10.905   7.584  73.921  1.00  0.00    -0.244 OA 
BRANCH  27  30
HETATM   30  O   UNL     1     -10.380   6.983  71.418  1.00  0.00    -0.198 OA 
HETATM   31  P   UNL     1      -9.424   5.670  72.012  1.00  0.00    -0.150 P  
HETATM   32  C   UNL     1      -8.413   4.281  72.642  1.00  0.00    -0.101 C  
HETATM   33  O   UNL     1      -8.124   6.686  71.974  1.00  0.00    -0.102 OA 
HETATM   34  O   UNL     1     -10.061   5.777  73.423  1.00  0.00    -0.176 OA 
HETATM   35 CL   UNL     1      -7.419   4.737  74.108  1.00  0.00    -0.081 Cl 
HETATM   36  P   UNL     1      -9.513   2.967  73.283  1.00  0.00    -0.092 P  
HETATM   37 CL   UNL     1      -7.221   3.825  71.378  1.00  0.00    -0.032 Cl 
HETATM   38  O   UNL     1      -9.289   2.105  71.885  1.00  0.00    -0.084 OA 
HETATM   39  O   UNL     1     -10.840   3.684  72.588  1.00  0.00    -0.069 OA 
HETATM   40  O   UNL     1     -10.444   1.854  73.824  1.00  0.00    -0.096 OA 
ENDBRANCH  27  30
ENDBRANCH  26  27
ENDBRANCH  25  26
ENDBRANCH  18  25
ENDBRANCH  11  16
BRANCH  14  41
HETATM   41  S   UNL     1      -5.805   7.158  64.970  1.00  0.00    -0.037 SA 
BRANCH  41  42
HETATM   42  C   UNL     1      -5.832   8.982  64.939  1.00  0.00    -0.063 C  
BRANCH  42  43
HETATM   43  C   UNL     1      -5.410   9.494  66.310  1.00  0.00    -0.044 C  
HETATM   44  C   UNL     1      -6.378  10.520  66.857  1.00  0.00    -0.074 C  
HETATM   45  F   UNL     1      -6.833  10.140  68.075  1.00  0.00    -0.067 F  
HETATM   46  F   UNL     1      -7.450  10.710  66.063  1.00  0.00    -0.123 F  
HETATM   47  F   UNL     1      -5.769  11.716  67.017  1.00  0.00    -0.070 F  
ENDBRANCH  42  43
ENDBRANCH  41  42
ENDBRANCH  14  41
ENDBRANCH   5   7
ENDBRANCH   4   5
ENDBRANCH   3   4
ENDBRANCH   2   3
TORSDOF 12
ENDMDL
MODEL      222
REMARK 921   NORMALIZED FREE ENERGY PREDICTED BY IDOCK:    1.18 KCAL/MOL
REMARK 922        TOTAL FREE ENERGY PREDICTED BY IDOCK:    1.00 KCAL/MOL
REMARK 923 INTER-LIGAND FREE ENERGY PREDICTED BY IDOCK:   -0.37 KCAL/MOL
REMARK 924 INTRA-LIGAND FREE ENERGY PREDICTED BY IDOCK:    1.37 KCAL/MOL
REMARK 927      BINDING AFFINITY PREDICTED BY RF-SCORE:    0.00 PKD
ROOT
HETATM    1  C   UNL     1      -6.113  20.384  71.564  1.00  0.00    -0.140 C  
HETATM    2  S   UNL     1      -5.132  18.910  71.927  1.00  0.00     0.186 SA 
ENDROOT
BRANCH   2   3
HETATM    3  C   UNL     1      -5.585  17.880  70.481  1.00  0.00    -0.184 C  
BRANCH   3   4
HETATM    4  C   UNL     1      -6.313  16.585  70.898  1.00  0.00     1.285 C  
BRANCH   4   5
HETATM    5  N   UNL     1      -6.264  15.599  69.832  1.00  0.00    -0.163 NA 
HETATM    6  H   UNL     1      -5.383  15.133  69.618  1.00  0.00     0.000 HD 
BRANCH   5   7
HETATM    7  C   UNL     1      -7.397  15.284  69.102  1.00  0.00    -0.172 A  
HETATM    8  C   UNL     1      -7.579  13.987  68.598  1.00  0.00    -0.130 A  
HETATM    9  N   UNL     1      -6.820  12.838  68.714  1.00  0.00    -0.092 NA 
HETATM   10  C   UNL     1      -7.530  11.901  68.104  1.00  0.00    -0.100 A  
HETATM   11  N   UNL     1      -8.699  12.403  67.574  1.00  0.00    -0.170 NA 
HETATM   12  C   UNL     1      -8.741  13.732  67.886  1.00  0.00    -0.183 A  
HETATM   13  N   UNL     1      -8.366  16.209  68.841  1.00  0.00    -0.221 NA 
HETATM   14  C   UNL     1      -9.429  15.840  68.096  1.00  0.00    -0.199 A  
HETATM   15  N   UNL     1      -9.700  14.612  67.593  1.00  0.00    -0.212 NA 
BRANCH  11  16
HETATM   16  C   UNL     1      -9.744  11.584  67.000  1.00  0.00    -0.184 C  
HETATM   17  O   UNL     1     -10.251  10.737  68.040  1.00  0.00    -0.169 OA 
HETATM   18  C   UNL     1      -9.753   9.401  67.861  1.00  0.00    -0.152 C  
HETATM   19  H   UNL     1     -10.462   9.827  64.311  1.00  0.00     0.000 HD 
HETATM   20  O   UNL     1     -10.644  10.413  65.036  1.00  0.00    -0.190 OA 
HETATM   21  C   UNL     1      -9.082   9.326  66.493  1.00  0.00    -0.154 C  
HETATM   22  H   UNL     1      -9.172   8.148  64.920  1.00  0.00     0.000 HD 
HETATM   23  C   UNL     1      -9.450  10.636  65.827  1.00  0.00    -0.200 C  
HETATM   24  O   UNL     1      -9.590   8.195  65.772  1.00  0.00    -0.037 OA 
BRANCH  18  25
HETATM   25  C   UNL     1      -8.792   8.995  68.979  1.00  0.00    -0.136 C  
BRANCH  25  26
HETATM   26  O   UNL     1      -9.550   8.198  69.890  1.00  0.00    -0.173 OA 
BRANCH  26  27
HETATM   27  P   UNL     1      -9.730   6.661  69.467  1.00  0.00    -0.149 P  
HETATM   28  O   UNL     1      -9.445   5.999  70.914  1.00  0.00    -0.165 OA 
HETATM   29  O   UNL     1     -11.063   6.278  68.895  1.00  0.00    -0.336 OA 
BRANCH  27  30
HETATM   30  O   UNL     1      -8.473   6.375  68.462  1.00  0.00    -0.119 OA 
HETATM   31  P   UNL     1      -8.583   4.965  67.467  1.00  0.00    -0.103 P  
HETATM   32  C   UNL     1      -8.701   3.472  66.414  1.00  0.00    -0.124 C  
HETATM   33  O   UNL     1      -8.118   4.081  68.782  1.00  0.00    -0.070 OA 
HETATM   34  O   UNL     1     -10.134   5.023  67.467  1.00  0.00    -0.174 OA 
HETATM   35 CL   UNL     1      -9.708   2.148  67.173  1.00  0.00     0.228 Cl 
HETATM   36  P   UNL     1      -9.630   3.873  64.889  1.00  0.00    -0.191 P  
HETATM   37 CL   UNL     1      -7.057   2.776  66.227  1.00  0.00    -0.056 Cl 
HETATM   38  O   UNL     1      -8.202   3.985  64.055  1.00  0.00    -0.089 OA 
HETATM   39  O   UNL     1      -9.531   5.500  65.209  1.00  0.00     0.017 OA 
HETATM   40  O   UNL     1     -10.415   4.213  63.598  1.00  0.00    -0.142 OA 
ENDBRANCH  27  30
ENDBRANCH  26  27
ENDBRANCH  25  26
ENDBRANCH  18  25
ENDBRANCH  11  16
BRANCH  14  41
HETATM   41  S   UNL     1     -10.642  17.077  67.689  1.00  0.00    -0.303 SA 
BRANCH  41  42
HETATM   42  C   UNL     1     -11.198  16.470  66.061  1.00  0.00     0.372 C  
BRANCH  42  43
HETATM   43  C   UNL     1     -10.697  17.432  64.991  1.00  0.00     0.293 C  
HETATM   44  C   UNL     1     -11.009  18.873  65.331  1.00  0.00     0.427 C  
HETATM   45  F   UNL     1      -9.876  19.615  65.329  1.00  0.00    -0.040 F  
HETATM   46  F   UNL     1     -11.587  19.017  66.539  1.00  0.00     0.257 F  
HETATM   47  F   UNL     1     -11.839  19.414  64.411  1.00  0.00     1.990 F  
ENDBRANCH  42  43
ENDBRANCH  41  42
ENDBRANCH  14  41
ENDBRANCH   5   7
ENDBRANCH   4   5
ENDBRANCH   3   4
ENDBRANCH   2   3
TORSDOF 12
ENDMDL
MODEL      223
REMARK 921   NORMALIZED FREE ENERGY PREDICTED BY IDOCK:    1.31 KCAL/MOL
REMARK 922        TOTAL FREE ENERGY PREDICTED BY IDOCK:    1.23 KCAL/MOL
REMARK 923 INTER-LIGAND FREE ENERGY PREDICTED BY IDOCK:   -2.85 KCAL/MOL
REMARK 924 INTRA-LIGAND FREE ENERGY PREDICTED BY IDOCK:    4.08 KCAL/MOL
REMARK 927      BINDING AFFINITY PREDICTED BY RF-SCORE:    0.00 PKD
ROOT
HETATM    1  C   UNL     1     -13.290  10.529  71.391  1.00  0.00    -0.246 C  
HETATM    2  S   UNL     1     -13.684   8.799  71.729  1.00  0.00    -0.426 SA 
ENDROOT
BRANCH   2   3
HETATM    3  C   UNL     1     -12.113   8.020  71.198  1.00  0.00    -0.265 C  
BRANCH   3   4
HETATM    4  C   UNL     1     -12.346   6.662  70.501  1.00  0.00    -0.023 C  
BRANCH   4   5
HETATM    5  N   UNL     1     -11.843   6.689  69.138  1.00  0.00    -0.432 NA 
HETATM    6  H   UNL     1     -12.334   6.170  68.411  1.00  0.00     0.000 HD 
BRANCH   5   7
HETATM    7  C   UNL     1     -10.706   7.409  68.814  1.00  0.00    -0.118 A  
HETATM    8  C   UNL     1      -9.915   7.029  67.719  1.00  0.00    -0.152 A  
HETATM    9  N   UNL     1     -10.056   6.022  66.783  1.00  0.00    -0.173 NA 
HETATM   10  C   UNL     1      -9.053   6.202  65.938  1.00  0.00    -0.085 A  
HETATM   11  N   UNL     1      -8.253   7.263  66.306  1.00  0.00    -0.117 NA 
HETATM   12  C   UNL     1      -8.795   7.799  67.439  1.00  0.00    -0.127 A  
HETATM   13  N   UNL     1     -10.311   8.496  69.538  1.00  0.00    -0.215 NA 
HETATM   14  C   UNL     1      -9.174   9.130  69.184  1.00  0.00    -0.144 A  
HETATM   15  N   UNL     1      -8.365   8.854  68.134  1.00  0.00    -0.124 NA 
BRANCH  11  16
HETATM   16  C   UNL     1      -7.185   7.793  65.486  1.00  0.00    -0.064 C  
HETATM   17  O   UNL     1      -7.030   9.178  65.818  1.00  0.00    -0.082 OA 
HETATM   18  C   UNL     1      -7.598   9.991  64.778  1.00  0.00    -0.143 C  
HETATM   19  H   UNL     1      -6.012   7.716  62.412  1.00  0.00     0.000 HD 
HETATM   20  O   UNL     1      -5.954   7.735  63.360  1.00  0.00    -0.056 OA 
HETATM   21  C   UNL     1      -7.922   9.085  63.594  1.00  0.00    -0.150 C  
HETATM   22  H   UNL     1      -7.569   9.081  61.659  1.00  0.00     0.000 HD 
HETATM   23  C   UNL     1      -7.277   7.762  63.953  1.00  0.00    -0.085 C  
HETATM   24  O   UNL     1      -7.367   9.645  62.396  1.00  0.00    -0.108 OA 
BRANCH  18  25
HETATM   25  C   UNL     1      -8.837  10.750  65.256  1.00  0.00    -0.187 C  
BRANCH  25  26
HETATM   26  O   UNL     1      -9.675  10.912  64.112  1.00  0.00    -0.244 OA 
BRANCH  26  27
HETATM   27  P   UNL     1     -10.846  11.998  64.271  1.00  0.00    -0.412 P  
HETATM   28  O   UNL     1     -11.718  11.572  62.978  1.00  0.00    -0.091 OA 
HETATM   29  O   UNL     1     -11.627  11.953  65.551  1.00  0.00    -0.317 OA 
BRANCH  27  30
HETATM   30  O   UNL     1     -10.102  13.427  64.000  1.00  0.00    -0.286 OA 
HETATM   31  P   UNL     1     -10.246  14.621  65.243  1.00  0.00    -0.308 P  
HETATM   32  C   UNL     1     -10.398  15.884  66.559  1.00  0.00    -0.300 C  
HETATM   33  O   UNL     1     -11.752  14.956  64.657  1.00  0.00    -0.409 OA 
HETATM   34  O   UNL     1     -10.401  13.535  66.341  1.00  0.00    -0.278 OA 
HETATM   35 CL   UNL     1     -11.940  15.716  67.527  1.00  0.00     0.210 Cl 
HETATM   36  P   UNL     1      -9.093  15.618  67.814  1.00  0.00    -0.182 P  
HETATM   37 CL   UNL     1     -10.491  17.503  65.787  1.00  0.00    -0.295 Cl 
HETATM   38  O   UNL     1      -8.208  16.850  67.147  1.00  0.00    -0.177 OA 
HETATM   39  O   UNL     1      -8.298  14.553  66.819  1.00  0.00    -0.163 OA 
HETATM   40  O   UNL     1      -7.988  15.393  68.876  1.00  0.00    -0.148 OA 
ENDBRANCH  27  30
ENDBRANCH  26  27
ENDBRANCH  25  26
ENDBRANCH  18  25
ENDBRANCH  11  16
BRANCH  14  41
HETATM   41  S   UNL     1      -8.622  10.492  70.188  1.00  0.00     0.982 SA 
BRANCH  41  42
HETATM   42  C   UNL     1     -10.220  11.102  70.823  1.00  0.00     2.835 C  
BRANCH  42  43
HETATM   43  C   UNL     1     -10.618  12.335  70.023  1.00  0.00     1.241 C  
HETATM   44  C   UNL     1     -11.163  11.977  68.658  1.00  0.00    -0.258 C  
HETATM   45  F   UNL     1     -12.397  12.508  68.485  1.00  0.00    -0.275 F  
HETATM   46  F   UNL     1     -11.262  10.648  68.461  1.00  0.00    -0.248 F  
HETATM   47  F   UNL     1     -10.376  12.479  67.680  1.00  0.00    -0.208 F  
ENDBRANCH  42  43
ENDBRANCH  41  42
ENDBRANCH  14  41
ENDBRANCH   5   7
ENDBRANCH   4   5
ENDBRANCH   3   4
ENDBRANCH   2   3
TORSDOF 12
ENDMDL
MODEL      224
REMARK 921   NORMALIZED FREE ENERGY PREDICTED BY IDOCK:    1.53 KCAL/MOL
REMARK 922        TOTAL FREE ENERGY PREDICTED BY IDOCK:    1.59 KCAL/MOL
REMARK 923 INTER-LIGAND FREE ENERGY PREDICTED BY IDOCK:   -4.88 KCAL/MOL
REMARK 924 INTRA-LIGAND FREE ENERGY PREDICTED BY IDOCK:    6.47 KCAL/MOL
REMARK 927      BINDING AFFINITY PREDICTED BY RF-SCORE:    0.00 PKD
ROOT
HETATM    1  C   UNL     1     -10.019  11.771  64.426  1.00  0.00    -0.251 C  
HETATM    2  S   UNL     1      -9.706  11.002  62.821  1.00  0.00    -0.218 SA 
ENDROOT
BRANCH   2   3
HETATM    3  C   UNL     1      -7.886  11.206  62.737  1.00  0.00     0.225 C  
BRANCH   3   4
HETATM    4  C   UNL     1      -7.155   9.850  62.644  1.00  0.00    -0.118 C  
BRANCH   4   5
HETATM    5  N   UNL     1      -8.076   8.751  62.877  1.00  0.00    -0.165 NA 
HETATM    6  H   UNL     1      -8.741   8.490  62.149  1.00  0.00     0.000 HD 
BRANCH   5   7
HETATM    7  C   UNL     1      -8.063   8.053  64.071  1.00  0.00    -0.102 A  
HETATM    8  C   UNL     1      -7.348   8.545  65.174  1.00  0.00    -0.081 A  
HETATM    9  N   UNL     1      -6.615   9.702  65.356  1.00  0.00    -0.077 NA 
HETATM   10  C   UNL     1      -6.242   9.671  66.625  1.00  0.00    -0.065 A  
HETATM   11  N   UNL     1      -6.677   8.528  67.262  1.00  0.00    -0.062 NA 
HETATM   12  C   UNL     1      -7.385   7.804  66.346  1.00  0.00    -0.079 A  
HETATM   13  N   UNL     1      -8.730   6.871  64.222  1.00  0.00     0.435 NA 
HETATM   14  C   UNL     1      -8.648   6.228  65.406  1.00  0.00    -0.092 A  
HETATM   15  N   UNL     1      -8.008   6.638  66.527  1.00  0.00    -0.104 NA 
BRANCH  11  16
HETATM   16  C   UNL     1      -6.560   8.302  68.686  1.00  0.00    -0.054 C  
HETATM   17  O   UNL     1      -7.852   8.521  69.267  1.00  0.00    -0.095 OA 
HETATM   18  C   UNL     1      -7.868   9.788  69.945  1.00  0.00    -0.161 C  
HETATM   19  H   UNL     1      -4.576   8.910  71.241  1.00  0.00     0.000 HD 
HETATM   20  O   UNL     1      -5.173   8.393  70.712  1.00  0.00    -0.025 OA 
HETATM   21  C   UNL     1      -6.436  10.307  70.012  1.00  0.00    -0.116 C  
HETATM   22  H   UNL     1      -5.232  11.007  71.402  1.00  0.00     0.000 HD 
HETATM   23  C   UNL     1      -5.595   9.137  69.542  1.00  0.00    -0.034 C  
HETATM   24  O   UNL     1      -6.124  10.684  71.360  1.00  0.00    -0.332 OA 
BRANCH  18  25
HETATM   25  C   UNL     1      -8.795  10.792  69.259  1.00  0.00    -0.023 C  
BRANCH  25  26
HETATM   26  O   UNL     1     -10.035  10.116  69.048  1.00  0.00    -0.186 OA 
BRANCH  26  27
HETATM   27  P   UNL     1     -10.701  10.343  67.607  1.00  0.00    -0.305 P  
HETATM   28  O   UNL     1     -10.659   8.809  67.100  1.00  0.00    -0.291 OA 
HETATM   29  O   UNL     1     -12.082  10.929  67.595  1.00  0.00    -0.323 OA 
BRANCH  27  30
HETATM   30  O   UNL     1      -9.598  11.233  66.795  1.00  0.00    -0.188 OA 
HETATM   31  P   UNL     1      -9.279  12.818  67.409  1.00  0.00    -0.212 P  
HETATM   32  C   UNL     1      -8.942  14.495  68.060  1.00  0.00    -0.180 C  
HETATM   33  O   UNL     1     -10.667  13.314  66.665  1.00  0.00    -0.277 OA 
HETATM   34  O   UNL     1      -9.650  12.389  68.853  1.00  0.00     0.011 OA 
HETATM   35 CL   UNL     1     -10.377  15.217  68.934  1.00  0.00    -0.235 Cl 
HETATM   36  P   UNL     1      -7.669  14.396  69.372  1.00  0.00     0.246 P  
HETATM   37 CL   UNL     1      -8.624  15.591  66.675  1.00  0.00    -0.306 Cl 
HETATM   38  O   UNL     1      -6.523  14.909  68.291  1.00  0.00    -0.099 OA 
HETATM   39  O   UNL     1      -7.309  12.828  68.958  1.00  0.00    -0.057 OA 
HETATM   40  O   UNL     1      -6.592  14.312  70.481  1.00  0.00    -0.101 OA 
ENDBRANCH  27  30
ENDBRANCH  26  27
ENDBRANCH  25  26
ENDBRANCH  18  25
ENDBRANCH  11  16
BRANCH  14  41
HETATM   41  S   UNL     1      -9.449   4.647  65.563  1.00  0.00    -0.175 SA 
BRANCH  41  42
HETATM   42  C   UNL     1      -9.849   4.657  67.343  1.00  0.00    -0.165 C  
BRANCH  42  43
HETATM   43  C   UNL     1      -8.744   3.920  68.089  1.00  0.00    -0.124 C  
HETATM   44  C   UNL     1      -8.319   4.652  69.344  1.00  0.00    -0.075 C  
HETATM   45  F   UNL     1      -8.426   3.842  70.424  1.00  0.00    -0.063 F  
HETATM   46  F   UNL     1      -9.054   5.754  69.587  1.00  0.00    -0.128 F  
HETATM   47  F   UNL     1      -7.025   5.032  69.261  1.00  0.00    -0.048 F  
ENDBRANCH  42  43
ENDBRANCH  41  42
ENDBRANCH  14  41
ENDBRANCH   5   7
ENDBRANCH   4   5
ENDBRANCH   3   4
ENDBRANCH   2   3
TORSDOF 12
ENDMDL
MODEL      225
REMARK 921   NORMALIZED FREE ENERGY PREDICTED BY IDOCK:    2.01 KCAL/MOL
REMARK 922        TOTAL FREE ENERGY PREDICTED BY IDOCK:    2.41 KCAL/MOL
REMARK 923 INTER-LIGAND FREE ENERGY PREDICTED BY IDOCK:   -2.86 KCAL/MOL
REMARK 924 INTRA-LIGAND FREE ENERGY PREDICTED BY IDOCK:    5.27 KCAL/MOL
REMARK 927      BINDING AFFINITY PREDICTED BY RF-SCORE:    0.00 PKD
ROOT
HETATM    1  C   UNL     1      -8.561  19.584  68.055  1.00  0.00    -0.325 C  
HETATM    2  S   UNL     1     -10.153  18.756  68.272  1.00  0.00    -0.384 SA 
ENDROOT
BRANCH   2   3
HETATM    3  C   UNL     1     -10.131  17.666  66.798  1.00  0.00    -0.334 C  
BRANCH   3   4
HETATM    4  C   UNL     1     -11.391  17.847  65.925  1.00  0.00     1.218 C  
BRANCH   4   5
HETATM    5  N   UNL     1     -11.478  16.801  64.922  1.00  0.00    -0.240 NA 
HETATM    6  H   UNL     1     -12.040  16.953  64.084  1.00  0.00     0.000 HD 
BRANCH   5   7
HETATM    7  C   UNL     1     -10.810  15.600  65.086  1.00  0.00    -0.431 A  
HETATM    8  C   UNL     1     -11.285  14.433  64.468  1.00  0.00    -0.306 A  
HETATM    9  N   UNL     1     -12.353  14.207  63.622  1.00  0.00    -0.751 NA 
HETATM   10  C   UNL     1     -12.258  12.929  63.290  1.00  0.00    -0.397 A  
HETATM   11  N   UNL     1     -11.191  12.313  63.911  1.00  0.00    -0.382 NA 
HETATM   12  C   UNL     1     -10.563  13.265  64.663  1.00  0.00    -0.404 A  
HETATM   13  N   UNL     1      -9.683  15.502  65.850  1.00  0.00    -0.337 NA 
HETATM   14  C   UNL     1      -9.101  14.293  65.992  1.00  0.00     0.131 A  
HETATM   15  N   UNL     1      -9.471  13.124  65.416  1.00  0.00     0.131 NA 
BRANCH  11  16
HETATM   16  C   UNL     1     -10.746  10.970  63.611  1.00  0.00    -0.199 C  
HETATM   17  O   UNL     1     -11.185  10.120  64.677  1.00  0.00     1.447 OA 
HETATM   18  C   UNL     1     -10.072   9.794  65.525  1.00  0.00    -0.172 C  
HETATM   19  H   UNL     1      -8.144   9.308  62.470  1.00  0.00     0.000 HD 
HETATM   20  O   UNL     1      -9.068   9.505  62.575  1.00  0.00    -0.263 OA 
HETATM   21  C   UNL     1      -8.797  10.263  64.833  1.00  0.00    -0.192 C  
HETATM   22  H   UNL     1      -7.049   9.484  64.374  1.00  0.00     0.000 HD 
HETATM   23  C   UNL     1      -9.252  10.652  63.441  1.00  0.00    -0.270 C  
HETATM   24  O   UNL     1      -7.843   9.192  64.806  1.00  0.00    -0.110 OA 
BRANCH  18  25
HETATM   25  C   UNL     1     -10.212  10.413  66.917  1.00  0.00    -0.227 C  
BRANCH  25  26
HETATM   26  O   UNL     1      -9.606   9.496  67.828  1.00  0.00    -0.131 OA 
BRANCH  26  27
HETATM   27  P   UNL     1      -8.165   9.935  68.382  1.00  0.00    -0.110 P  
HETATM   28  O   UNL     1      -7.574   8.455  68.652  1.00  0.00    -0.097 OA 
HETATM   29  O   UNL     1      -7.314  10.750  67.454  1.00  0.00    -0.090 OA 
BRANCH  27  30
HETATM   30  O   UNL     1      -8.494  10.676  69.800  1.00  0.00    -0.002 OA 
HETATM   31  P   UNL     1     -10.055  11.405  69.949  1.00  0.00     1.593 P  
HETATM   32  C   UNL     1     -11.707  12.176  70.105  1.00  0.00    -0.218 C  
HETATM   33  O   UNL     1      -9.470  12.679  69.077  1.00  0.00     0.184 OA 
HETATM   34  O   UNL     1     -10.678  10.398  68.946  1.00  0.00    -0.197 OA 
HETATM   35 CL   UNL     1     -12.388  12.723  68.499  1.00  0.00     0.062 Cl 
HETATM   36  P   UNL     1     -12.917  10.919  70.659  1.00  0.00     0.059 P  
HETATM   37 CL   UNL     1     -11.549  13.669  71.091  1.00  0.00     0.378 Cl 
HETATM   38  O   UNL     1     -12.822  11.515  72.202  1.00  0.00    -0.274 OA 
HETATM   39  O   UNL     1     -11.699   9.854  71.031  1.00  0.00    -0.321 OA 
HETATM   40  O   UNL     1     -13.940   9.856  71.129  1.00  0.00    -0.105 OA 
ENDBRANCH  27  30
ENDBRANCH  26  27
ENDBRANCH  25  26
ENDBRANCH  18  25
ENDBRANCH  11  16
BRANCH  14  41
HETATM   41  S   UNL     1      -7.683  14.161  67.060  1.00  0.00     0.332 SA 
BRANCH  41  42
HETATM   42  C   UNL     1      -7.178  15.912  67.153  1.00  0.00    -0.219 C  
BRANCH  42  43
HETATM   43  C   UNL     1      -5.986  16.019  68.096  1.00  0.00    -0.124 C  
HETATM   44  C   UNL     1      -6.333  16.760  69.369  1.00  0.00    -0.222 C  
HETATM   45  F   UNL     1      -6.044  16.000  70.453  1.00  0.00    -0.168 F  
HETATM   46  F   UNL     1      -7.635  17.098  69.446  1.00  0.00    -0.214 F  
HETATM   47  F   UNL     1      -5.607  17.895  69.477  1.00  0.00    -0.179 F  
ENDBRANCH  42  43
ENDBRANCH  41  42
ENDBRANCH  14  41
ENDBRANCH   5   7
ENDBRANCH   4   5
ENDBRANCH   3   4
ENDBRANCH   2   3
TORSDOF 12
ENDMDL
MODEL      226
REMARK 921   NORMALIZED FREE ENERGY PREDICTED BY IDOCK:    2.25 KCAL/MOL
REMARK 922        TOTAL FREE ENERGY PREDICTED BY IDOCK:    2.82 KCAL/MOL
REMARK 923 INTER-LIGAND FREE ENERGY PREDICTED BY IDOCK:    0.99 KCAL/MOL
REMARK 924 INTRA-LIGAND FREE ENERGY PREDICTED BY IDOCK:    1.82 KCAL/MOL
REMARK 927      BINDING AFFINITY PREDICTED BY RF-SCORE:    0.00 PKD
ROOT
HETATM    1  C   UNL     1      -7.922  15.099  72.014  1.00  0.00     5.546 C  
HETATM    2  S   UNL     1      -6.403  14.837  71.072  1.00  0.00     0.361 SA 
ENDROOT
BRANCH   2   3
HETATM    3  C   UNL     1      -7.126  14.333  69.464  1.00  0.00    -0.045 C  
BRANCH   3   4
HETATM    4  C   UNL     1      -6.380  14.966  68.270  1.00  0.00    -0.121 C  
BRANCH   4   5
HETATM    5  N   UNL     1      -7.084  14.706  67.027  1.00  0.00    -0.339 NA 
HETATM    6  H   UNL     1      -6.949  15.331  66.232  1.00  0.00     0.000 HD 
BRANCH   5   7
HETATM    7  C   UNL     1      -7.936  13.622  66.904  1.00  0.00     0.223 A  
HETATM    8  C   UNL     1      -7.428  12.314  66.926  1.00  0.00     0.017 A  
HETATM    9  N   UNL     1      -6.147  11.825  67.096  1.00  0.00    -0.129 NA 
HETATM   10  C   UNL     1      -6.286  10.508  67.112  1.00  0.00    -0.068 A  
HETATM   11  N   UNL     1      -7.599  10.127  66.929  1.00  0.00    -0.098 NA 
HETATM   12  C   UNL     1      -8.335  11.271  66.812  1.00  0.00    -0.156 A  
HETATM   13  N   UNL     1      -9.284  13.778  66.753  1.00  0.00    -0.253 NA 
HETATM   14  C   UNL     1     -10.050  12.678  66.608  1.00  0.00    -0.241 A  
HETATM   15  N   UNL     1      -9.654  11.383  66.643  1.00  0.00    -0.187 NA 
BRANCH  11  16
HETATM   16  C   UNL     1      -8.072   8.767  67.064  1.00  0.00    -0.099 C  
HETATM   17  O   UNL     1      -8.105   8.457  68.463  1.00  0.00    -0.119 OA 
HETATM   18  C   UNL     1      -6.995   7.606  68.795  1.00  0.00    -0.071 C  
HETATM   19  H   UNL     1      -7.740   5.775  65.733  1.00  0.00     0.000 HD 
HETATM   20  O   UNL     1      -8.211   6.497  66.133  1.00  0.00    -0.112 OA 
HETATM   21  C   UNL     1      -6.347   7.144  67.495  1.00  0.00    -0.047 C  
HETATM   22  H   UNL     1      -5.792   5.430  66.704  1.00  0.00     0.000 HD 
HETATM   23  C   UNL     1      -7.311   7.598  66.418  1.00  0.00    -0.079 C  
HETATM   24  O   UNL     1      -6.196   5.718  67.514  1.00  0.00    -0.028 OA 
BRANCH  18  25
HETATM   25  C   UNL     1      -5.986   8.311  69.704  1.00  0.00    -0.029 C  
BRANCH  25  26
HETATM   26  O   UNL     1      -5.759   7.435  70.808  1.00  0.00    -0.027 OA 
BRANCH  26  27
HETATM   27  P   UNL     1      -6.941   7.382  71.893  1.00  0.00    -0.065 P  
HETATM   28  O   UNL     1      -6.262   6.321  72.906  1.00  0.00    -0.052 OA 
HETATM   29  O   UNL     1      -7.300   8.681  72.551  1.00  0.00    -0.285 OA 
BRANCH  27  30
HETATM   30  O   UNL     1      -8.182   6.680  71.094  1.00  0.00    -0.118 OA 
HETATM   31  P   UNL     1      -8.402   4.983  71.345  1.00  0.00    -0.121 P  
HETATM   32  C   UNL     1      -8.635   3.187  71.610  1.00  0.00    -0.069 C  
HETATM   33  O   UNL     1      -7.177   4.732  70.267  1.00  0.00    -0.048 OA 
HETATM   34  O   UNL     1      -7.772   5.058  72.761  1.00  0.00    -0.094 OA 
HETATM   35 CL   UNL     1      -7.074   2.323  72.010  1.00  0.00    -0.036 Cl 
HETATM   36  P   UNL     1      -9.649   2.919  73.110  1.00  0.00    -0.103 P  
HETATM   37 CL   UNL     1      -9.209   2.454  70.075  1.00  0.00    -0.181 Cl 
HETATM   38  O   UNL     1     -10.977   2.647  72.156  1.00  0.00     0.387 OA 
HETATM   39  O   UNL     1     -10.061   4.527  73.167  1.00  0.00    -0.145 OA 
HETATM   40  O   UNL     1     -10.508   2.692  74.378  1.00  0.00    -0.147 OA 
ENDBRANCH  27  30
ENDBRANCH  26  27
ENDBRANCH  25  26
ENDBRANCH  18  25
ENDBRANCH  11  16
BRANCH  14  41
HETATM   41  S   UNL     1     -11.793  12.897  66.325  1.00  0.00    -0.413 SA 
BRANCH  41  42
HETATM   42  C   UNL     1     -12.268  13.770  67.855  1.00  0.00    -0.159 C  
BRANCH  42  43
HETATM   43  C   UNL     1     -11.154  13.589  68.878  1.00  0.00    -0.305 C  
HETATM   44  C   UNL     1     -11.083  14.744  69.852  1.00  0.00    -0.233 C  
HETATM   45  F   UNL     1     -11.174  14.296  71.127  1.00  0.00    -0.148 F  
HETATM   46  F   UNL     1     -12.062  15.651  69.669  1.00  0.00    -0.332 F  
HETATM   47  F   UNL     1      -9.901  15.390  69.744  1.00  0.00    -0.239 F  
ENDBRANCH  42  43
ENDBRANCH  41  42
ENDBRANCH  14  41
ENDBRANCH   5   7
ENDBRANCH   4   5
ENDBRANCH   3   4
ENDBRANCH   2   3
TORSDOF 12
ENDMDL
MODEL      227
REMARK 921   NORMALIZED FREE ENERGY PREDICTED BY IDOCK:    2.39 KCAL/MOL
REMARK 922        TOTAL FREE ENERGY PREDICTED BY IDOCK:    3.06 KCAL/MOL
REMARK 923 INTER-LIGAND FREE ENERGY PREDICTED BY IDOCK:    2.50 KCAL/MOL
REMARK 924 INTRA-LIGAND FREE ENERGY PREDICTED BY IDOCK:    0.56 KCAL/MOL
REMARK 927      BINDING AFFINITY PREDICTED BY RF-SCORE:    0.00 PKD
ROOT
HETATM    1  C   UNL     1     -10.053  11.757  64.429  1.00  0.00    -0.282 C  
HETATM    2  S   UNL     1     -10.011  10.747  62.931  1.00  0.00    -0.063 SA 
ENDROOT
BRANCH   2   3
HETATM    3  C   UNL     1      -8.198  10.563  62.740  1.00  0.00    -0.160 C  
BRANCH   3   4
HETATM    4  C   UNL     1      -7.742   9.100  62.929  1.00  0.00    -0.116 C  
BRANCH   4   5
HETATM    5  N   UNL     1      -8.807   8.299  63.506  1.00  0.00    -0.216 NA 
HETATM    6  H   UNL     1      -9.571   7.977  62.913  1.00  0.00     0.000 HD 
BRANCH   5   7
HETATM    7  C   UNL     1      -8.798   7.966  64.849  1.00  0.00     0.278 A  
HETATM    8  C   UNL     1      -7.872   8.559  65.721  1.00  0.00    -0.100 A  
HETATM    9  N   UNL     1      -6.900   9.519  65.520  1.00  0.00    -0.082 NA 
HETATM   10  C   UNL     1      -6.394   9.747  66.723  1.00  0.00    -0.065 A  
HETATM   11  N   UNL     1      -6.979   8.951  67.686  1.00  0.00    -0.074 NA 
HETATM   12  C   UNL     1      -7.924   8.192  67.058  1.00  0.00    -0.104 A  
HETATM   13  N   UNL     1      -9.672   7.057  65.372  1.00  0.00     0.962 NA 
HETATM   14  C   UNL     1      -9.586   6.757  66.684  1.00  0.00    -0.163 A  
HETATM   15  N   UNL     1      -8.748   7.295  67.602  1.00  0.00    -0.125 NA 
BRANCH  11  16
HETATM   16  C   UNL     1      -6.745   9.098  69.106  1.00  0.00    -0.050 C  
HETATM   17  O   UNL     1      -7.926   9.669  69.683  1.00  0.00    -0.106 OA 
HETATM   18  C   UNL     1      -7.696  11.056  69.979  1.00  0.00     0.723 C  
HETATM   19  H   UNL     1      -4.438  10.038  71.258  1.00  0.00     0.000 HD 
HETATM   20  O   UNL     1      -5.152   9.502  70.933  1.00  0.00    -0.031 OA 
HETATM   21  C   UNL     1      -6.207  11.336  69.807  1.00  0.00    -0.124 C  
HETATM   22  H   UNL     1      -4.779  12.179  70.867  1.00  0.00     0.000 HD 
HETATM   23  C   UNL     1      -5.589   9.965  69.631  1.00  0.00    -0.037 C  
HETATM   24  O   UNL     1      -5.707  12.005  70.973  1.00  0.00    -0.352 OA 
BRANCH  18  25
HETATM   25  C   UNL     1      -8.543  11.977  69.099  1.00  0.00     0.507 C  
BRANCH  25  26
HETATM   26  O   UNL     1      -7.630  12.853  68.438  1.00  0.00    -0.122 OA 
BRANCH  26  27
HETATM   27  P   UNL     1      -7.897  14.419  68.669  1.00  0.00    -0.122 P  
HETATM   28  O   UNL     1      -6.362  14.875  68.883  1.00  0.00    -0.084 OA 
HETATM   29  O   UNL     1      -8.579  15.150  67.551  1.00  0.00    -0.163 OA 
BRANCH  27  30
HETATM   30  O   UNL     1      -8.704  14.480  70.088  1.00  0.00     0.714 OA 
HETATM   31  P   UNL     1     -10.426  14.623  69.994  1.00  0.00     0.388 P  
HETATM   32  C   UNL     1     -12.247  14.774  69.893  1.00  0.00    -0.311 C  
HETATM   33  O   UNL     1     -10.210  16.234  69.706  1.00  0.00    -0.245 OA 
HETATM   34  O   UNL     1     -10.462  13.902  68.620  1.00  0.00    -0.241 OA 
HETATM   35 CL   UNL     1     -12.803  15.632  68.377  1.00  0.00     1.298 Cl 
HETATM   36  P   UNL     1     -12.988  13.109  69.719  1.00  0.00     1.511 P  
HETATM   37 CL   UNL     1     -12.810  15.796  71.257  1.00  0.00    -0.530 Cl 
HETATM   38  O   UNL     1     -13.375  13.119  71.330  1.00  0.00    -0.267 OA 
HETATM   39  O   UNL     1     -11.545  12.383  70.105  1.00  0.00    -0.222 OA 
HETATM   40  O   UNL     1     -13.616  11.701  69.573  1.00  0.00     1.990 OA 
ENDBRANCH  27  30
ENDBRANCH  26  27
ENDBRANCH  25  26
ENDBRANCH  18  25
ENDBRANCH  11  16
BRANCH  14  41
HETATM   41  S   UNL     1     -10.673   5.508  67.336  1.00  0.00    -0.033 SA 
BRANCH  41  42
HETATM   42  C   UNL     1     -10.974   6.173  69.008  1.00  0.00    -0.367 C  
BRANCH  42  43
HETATM   43  C   UNL     1      -9.954   5.561  69.960  1.00  0.00    -0.285 C  
HETATM   44  C   UNL     1      -9.533   6.531  71.042  1.00  0.00    -0.164 C  
HETATM   45  F   UNL     1      -9.741   5.994  72.268  1.00  0.00    -0.159 F  
HETATM   46  F   UNL     1     -10.201   7.700  70.993  1.00  0.00    -0.193 F  
HETATM   47  F   UNL     1      -8.214   6.809  70.950  1.00  0.00    -0.115 F  
ENDBRANCH  42  43
ENDBRANCH  41  42
ENDBRANCH  14  41
ENDBRANCH   5   7
ENDBRANCH   4   5
ENDBRANCH   3   4
ENDBRANCH   2   3
TORSDOF 12
ENDMDL
MODEL      228
REMARK 921   NORMALIZED FREE ENERGY PREDICTED BY IDOCK:    2.52 KCAL/MOL
REMARK 922        TOTAL FREE ENERGY PREDICTED BY IDOCK:    3.28 KCAL/MOL
REMARK 923 INTER-LIGAND FREE ENERGY PREDICTED BY IDOCK:    2.48 KCAL/MOL
REMARK 924 INTRA-LIGAND FREE ENERGY PREDICTED BY IDOCK:    0.80 KCAL/MOL
REMARK 927      BINDING AFFINITY PREDICTED BY RF-SCORE:    0.00 PKD
ROOT
HETATM    1  C   UNL     1     -13.850  16.576  70.000  1.00  0.00     5.535 C  
HETATM    2  S   UNL     1     -12.232  16.337  69.233  1.00  0.00     0.751 SA 
ENDROOT
BRANCH   2   3
HETATM    3  C   UNL     1     -11.901  14.611  69.755  1.00  0.00    -0.316 C  
BRANCH   3   4
HETATM    4  C   UNL     1     -10.392  14.344  69.948  1.00  0.00     0.333 C  
BRANCH   4   5
HETATM    5  N   UNL     1      -9.824  13.722  68.765  1.00  0.00    -0.393 NA 
HETATM    6  H   UNL     1      -9.915  14.184  67.860  1.00  0.00     0.000 HD 
BRANCH   5   7
HETATM    7  C   UNL     1      -9.161  12.510  68.847  1.00  0.00     0.318 A  
HETATM    8  C   UNL     1      -9.877  11.323  69.071  1.00  0.00    -0.082 A  
HETATM    9  N   UNL     1     -11.229  11.072  69.202  1.00  0.00    -0.232 NA 
HETATM   10  C   UNL     1     -11.320   9.756  69.310  1.00  0.00    -0.014 A  
HETATM   11  N   UNL     1     -10.081   9.150  69.286  1.00  0.00    -0.187 NA 
HETATM   12  C   UNL     1      -9.154  10.140  69.131  1.00  0.00    -0.183 A  
HETATM   13  N   UNL     1      -7.805  12.421  68.724  1.00  0.00    -0.041 NA 
HETATM   14  C   UNL     1      -7.222  11.210  68.847  1.00  0.00    -0.106 A  
HETATM   15  N   UNL     1      -7.829  10.015  69.035  1.00  0.00    -0.093 NA 
BRANCH  11  16
HETATM   16  C   UNL     1      -9.883   7.718  69.220  1.00  0.00    -0.173 C  
HETATM   17  O   UNL     1      -8.612   7.485  68.600  1.00  0.00    -0.129 OA 
HETATM   18  C   UNL     1      -8.809   7.046  67.246  1.00  0.00    -0.119 C  
HETATM   19  H   UNL     1     -11.476   4.922  68.532  1.00  0.00     0.000 HD 
HETATM   20  O   UNL     1     -10.868   5.477  69.005  1.00  0.00    -0.227 OA 
HETATM   21  C   UNL     1     -10.292   6.748  67.056  1.00  0.00    -0.268 C  
HETATM   22  H   UNL     1     -11.373   5.260  66.357  1.00  0.00     0.000 HD 
HETATM   23  C   UNL     1     -10.867   6.819  68.456  1.00  0.00    -0.222 C  
HETATM   24  O   UNL     1     -10.449   5.446  66.476  1.00  0.00    -0.252 OA 
BRANCH  18  25
HETATM   25  C   UNL     1      -8.311   8.079  66.233  1.00  0.00    -0.121 C  
BRANCH  25  26
HETATM   26  O   UNL     1      -8.911   7.736  64.983  1.00  0.00     0.047 OA 
BRANCH  26  27
HETATM   27  P   UNL     1      -7.901   7.667  63.738  1.00  0.00    -0.046 P  
HETATM   28  O   UNL     1      -8.484   8.927  62.911  1.00  0.00    -0.196 OA 
HETATM   29  O   UNL     1      -6.441   7.794  64.055  1.00  0.00    -0.056 OA 
BRANCH  27  30
HETATM   30  O   UNL     1      -8.294   6.271  62.984  1.00  0.00    -0.054 OA 
HETATM   31  P   UNL     1      -7.565   4.828  63.599  1.00  0.00    -0.071 P  
HETATM   32  C   UNL     1      -6.793   3.302  64.250  1.00  0.00    -0.044 C  
HETATM   33  O   UNL     1      -6.201   5.241  62.766  1.00  0.00    -0.020 OA 
HETATM   34  O   UNL     1      -7.445   5.434  65.023  1.00  0.00    -0.070 OA 
HETATM   35 CL   UNL     1      -5.166   3.607  65.026  1.00  0.00    -0.009 Cl 
HETATM   36  P   UNL     1      -7.796   2.656  65.639  1.00  0.00    -0.079 P  
HETATM   37 CL   UNL     1      -6.468   2.196  62.874  1.00  0.00    -0.013 Cl 
HETATM   38  O   UNL     1      -8.464   1.529  64.624  1.00  0.00    -0.074 OA 
HETATM   39  O   UNL     1      -9.046   3.683  65.266  1.00  0.00    -0.132 OA 
HETATM   40  O   UNL     1      -8.645   2.108  66.812  1.00  0.00    -0.097 OA 
ENDBRANCH  27  30
ENDBRANCH  26  27
ENDBRANCH  25  26
ENDBRANCH  18  25
ENDBRANCH  11  16
BRANCH  14  41
HETATM   41  S   UNL     1      -5.446  11.119  68.771  1.00  0.00    -0.039 SA 
BRANCH  41  42
HETATM   42  C   UNL     1      -5.168   9.481  69.525  1.00  0.00    -0.035 C  
BRANCH  42  43
HETATM   43  C   UNL     1      -5.482   9.576  71.012  1.00  0.00    -0.055 C  
HETATM   44  C   UNL     1      -6.404   8.467  71.471  1.00  0.00    -0.057 C  
HETATM   45  F   UNL     1      -5.845   7.780  72.496  1.00  0.00    -0.039 F  
HETATM   46  F   UNL     1      -6.691   7.582  70.497  1.00  0.00    -0.044 F  
HETATM   47  F   UNL     1      -7.573   8.972  71.923  1.00  0.00    -0.118 F  
ENDBRANCH  42  43
ENDBRANCH  41  42
ENDBRANCH  14  41
ENDBRANCH   5   7
ENDBRANCH   4   5
ENDBRANCH   3   4
ENDBRANCH   2   3
TORSDOF 12
ENDMDL
MODEL      229
REMARK 921   NORMALIZED FREE ENERGY PREDICTED BY IDOCK:    2.55 KCAL/MOL
REMARK 922        TOTAL FREE ENERGY PREDICTED BY IDOCK:    3.33 KCAL/MOL
REMARK 923 INTER-LIGAND FREE ENERGY PREDICTED BY IDOCK:   -0.26 KCAL/MOL
REMARK 924 INTRA-LIGAND FREE ENERGY PREDICTED BY IDOCK:    3.59 KCAL/MOL
REMARK 927      BINDING AFFINITY PREDICTED BY RF-SCORE:    0.00 PKD
ROOT
HETATM    1  C   UNL     1     -12.723  16.728  66.176  1.00  0.00     5.452 C  
HETATM    2  S   UNL     1     -11.685  16.426  64.728  1.00  0.00     0.532 SA 
ENDROOT
BRANCH   2   3
HETATM    3  C   UNL     1     -11.720  14.593  64.707  1.00  0.00    -0.428 C  
BRANCH   3   4
HETATM    4  C   UNL     1     -10.386  13.983  65.186  1.00  0.00    -0.400 C  
BRANCH   4   5
HETATM    5  N   UNL     1     -10.180  14.241  66.601  1.00  0.00    -0.267 NA 
HETATM    6  H   UNL     1     -10.785  14.905  67.084  1.00  0.00     0.000 HD 
BRANCH   5   7
HETATM    7  C   UNL     1      -9.174  13.599  67.302  1.00  0.00    -0.232 A  
HETATM    8  C   UNL     1      -9.432  12.389  67.964  1.00  0.00    -0.208 A  
HETATM    9  N   UNL     1     -10.567  11.605  68.045  1.00  0.00    -0.194 NA 
HETATM   10  C   UNL     1     -10.193  10.537  68.733  1.00  0.00    -0.190 A  
HETATM   11  N   UNL     1      -8.873  10.614  69.126  1.00  0.00    -0.152 NA 
HETATM   12  C   UNL     1      -8.378  11.789  68.638  1.00  0.00    -0.079 A  
HETATM   13  N   UNL     1      -7.912  14.113  67.384  1.00  0.00    -0.186 NA 
HETATM   14  C   UNL     1      -6.990  13.449  68.111  1.00  0.00    -0.116 A  
HETATM   15  N   UNL     1      -7.139  12.269  68.757  1.00  0.00    -0.107 NA 
BRANCH  11  16
HETATM   16  C   UNL     1      -8.150   9.525  69.745  1.00  0.00    -0.140 C  
HETATM   17  O   UNL     1      -8.614   8.305  69.154  1.00  0.00    -0.135 OA 
HETATM   18  C   UNL     1      -9.487   7.625  70.071  1.00  0.00    -0.161 C  
HETATM   19  H   UNL     1      -7.081   8.473  72.675  1.00  0.00     0.000 HD 
HETATM   20  O   UNL     1      -7.032   8.621  71.738  1.00  0.00    -0.087 OA 
HETATM   21  C   UNL     1      -9.390   8.324  71.423  1.00  0.00    -0.172 C  
HETATM   22  H   UNL     1      -9.083   7.788  73.291  1.00  0.00     0.000 HD 
HETATM   23  C   UNL     1      -8.230   9.285  71.261  1.00  0.00     0.098 C  
HETATM   24  O   UNL     1      -9.144   7.353  72.449  1.00  0.00    -0.128 OA 
BRANCH  18  25
HETATM   25  C   UNL     1     -10.930   7.584  69.564  1.00  0.00    -0.113 C  
BRANCH  25  26
HETATM   26  O   UNL     1     -10.942   6.680  68.459  1.00  0.00    -0.258 OA 
BRANCH  26  27
HETATM   27  P   UNL     1      -9.814   5.539  68.498  1.00  0.00    -0.167 P  
HETATM   28  O   UNL     1     -10.225   4.778  67.132  1.00  0.00    -0.188 OA 
HETATM   29  O   UNL     1      -8.390   6.009  68.506  1.00  0.00    -0.112 OA 
BRANCH  27  30
HETATM   30  O   UNL     1     -10.217   4.626  69.791  1.00  0.00    -0.234 OA 
HETATM   31  P   UNL     1      -8.914   3.868  70.639  1.00  0.00    -0.115 P  
HETATM   32  C   UNL     1      -7.534   3.067  71.536  1.00  0.00    -0.040 C  
HETATM   33  O   UNL     1      -8.901   2.717  69.456  1.00  0.00    -0.073 OA 
HETATM   34  O   UNL     1      -7.922   4.985  70.217  1.00  0.00    -0.075 OA 
HETATM   35 CL   UNL     1      -6.099   2.715  70.459  1.00  0.00    -0.018 Cl 
HETATM   36  P   UNL     1      -6.848   4.235  72.768  1.00  0.00    -0.056 P  
HETATM   37 CL   UNL     1      -8.093   1.467  72.129  1.00  0.00    -0.044 Cl 
HETATM   38  O   UNL     1      -7.686   3.455  73.966  1.00  0.00    -0.063 OA 
HETATM   39  O   UNL     1      -8.141   5.259  72.576  1.00  0.00    -0.101 OA 
HETATM   40  O   UNL     1      -6.268   5.222  73.810  1.00  0.00    -0.052 OA 
ENDBRANCH  27  30
ENDBRANCH  26  27
ENDBRANCH  25  26
ENDBRANCH  18  25
ENDBRANCH  11  16
BRANCH  14  41
HETATM   41  S   UNL     1      -5.373  14.173  68.281  1.00  0.00    -0.119 SA 
BRANCH  41  42
HETATM   42  C   UNL     1      -5.669  15.319  69.670  1.00  0.00    -0.113 C  
BRANCH  42  43
HETATM   43  C   UNL     1      -5.193  16.706  69.259  1.00  0.00    -0.130 C  
HETATM   44  C   UNL     1      -6.343  17.673  69.082  1.00  0.00    -0.232 C  
HETATM   45  F   UNL     1      -6.166  18.768  69.859  1.00  0.00    -0.259 F  
HETATM   46  F   UNL     1      -7.538  17.138  69.401  1.00  0.00    -0.214 F  
HETATM   47  F   UNL     1      -6.415  18.104  67.803  1.00  0.00    -0.176 F  
ENDBRANCH  42  43
ENDBRANCH  41  42
ENDBRANCH  14  41
ENDBRANCH   5   7
ENDBRANCH   4   5
ENDBRANCH   3   4
ENDBRANCH   2   3
TORSDOF 12
ENDMDL
MODEL      230
REMARK 921   NORMALIZED FREE ENERGY PREDICTED BY IDOCK:    2.59 KCAL/MOL
REMARK 922        TOTAL FREE ENERGY PREDICTED BY IDOCK:    3.40 KCAL/MOL
REMARK 923 INTER-LIGAND FREE ENERGY PREDICTED BY IDOCK:   -0.45 KCAL/MOL
REMARK 924 INTRA-LIGAND FREE ENERGY PREDICTED BY IDOCK:    3.84 KCAL/MOL
REMARK 927      BINDING AFFINITY PREDICTED BY RF-SCORE:    0.00 PKD
ROOT
HETATM    1  C   UNL     1      -5.741  15.843  73.490  1.00  0.00     2.371 C  
HETATM    2  S   UNL     1      -5.390  14.095  73.197  1.00  0.00    -0.191 SA 
ENDROOT
BRANCH   2   3
HETATM    3  C   UNL     1      -5.997  13.948  71.473  1.00  0.00    -0.012 C  
BRANCH   3   4
HETATM    4  C   UNL     1      -6.545  15.288  70.937  1.00  0.00     0.581 C  
BRANCH   4   5
HETATM    5  N   UNL     1      -7.943  15.160  70.564  1.00  0.00     0.317 NA 
HETATM    6  H   UNL     1      -8.664  15.535  71.179  1.00  0.00     0.000 HD 
BRANCH   5   7
HETATM    7  C   UNL     1      -8.310  14.536  69.384  1.00  0.00     0.167 A  
HETATM    8  C   UNL     1      -7.341  13.924  68.574  1.00  0.00    -0.116 A  
HETATM    9  N   UNL     1      -5.979  13.760  68.729  1.00  0.00    -0.081 NA 
HETATM   10  C   UNL     1      -5.604  13.030  67.690  1.00  0.00    -0.105 A  
HETATM   11  N   UNL     1      -6.663  12.742  66.855  1.00  0.00     0.042 NA 
HETATM   12  C   UNL     1      -7.776  13.305  67.411  1.00  0.00    -0.140 A  
HETATM   13  N   UNL     1      -9.608  14.497  68.964  1.00  0.00    -0.154 NA 
HETATM   14  C   UNL     1      -9.889  13.900  67.787  1.00  0.00    -0.237 A  
HETATM   15  N   UNL     1      -9.030  13.263  66.956  1.00  0.00    -0.227 NA 
BRANCH  11  16
HETATM   16  C   UNL     1      -6.585  11.828  65.736  1.00  0.00     1.280 C  
HETATM   17  O   UNL     1      -7.874  11.223  65.580  1.00  0.00     0.126 OA 
HETATM   18  C   UNL     1      -7.839   9.875  66.077  1.00  0.00    -0.111 C  
HETATM   19  H   UNL     1      -4.620   9.552  64.397  1.00  0.00     0.000 HD 
HETATM   20  O   UNL     1      -5.232  10.278  64.391  1.00  0.00    -0.092 OA 
HETATM   21  C   UNL     1      -6.384   9.509  66.349  1.00  0.00    -0.069 C  
HETATM   22  H   UNL     1      -5.173   8.028  65.890  1.00  0.00     0.000 HD 
HETATM   23  C   UNL     1      -5.595  10.653  65.745  1.00  0.00    -0.134 C  
HETATM   24  O   UNL     1      -6.079   8.256  65.721  1.00  0.00    -0.044 OA 
BRANCH  18  25
HETATM   25  C   UNL     1      -8.701   9.705  67.329  1.00  0.00    -0.132 C  
BRANCH  25  26
HETATM   26  O   UNL     1      -7.962   8.863  68.214  1.00  0.00    -0.103 OA 
BRANCH  26  27
HETATM   27  P   UNL     1      -8.563   7.389  68.416  1.00  0.00    -0.122 P  
HETATM   28  O   UNL     1      -7.162   6.585  68.466  1.00  0.00    -0.080 OA 
HETATM   29  O   UNL     1      -9.410   7.176  69.636  1.00  0.00    -0.150 OA 
BRANCH  27  30
HETATM   30  O   UNL     1      -9.338   7.080  67.011  1.00  0.00    -0.135 OA 
HETATM   31  P   UNL     1      -8.701   5.796  66.043  1.00  0.00    -0.148 P  
HETATM   32  C   UNL     1      -8.027   4.437  65.019  1.00  0.00    -0.097 C  
HETATM   33  O   UNL     1      -7.546   6.853  65.518  1.00  0.00    -0.082 OA 
HETATM   34  O   UNL     1      -8.136   5.066  67.290  1.00  0.00    -0.106 OA 
HETATM   35 CL   UNL     1      -6.229   4.198  65.255  1.00  0.00    -0.027 Cl 
HETATM   36  P   UNL     1      -8.731   2.844  65.579  1.00  0.00    -0.134 P  
HETATM   37 CL   UNL     1      -8.229   4.873  63.289  1.00  0.00    -0.103 Cl 
HETATM   38  O   UNL     1      -9.795   2.873  64.309  1.00  0.00    -0.152 OA 
HETATM   39  O   UNL     1      -9.867   3.626  66.505  1.00  0.00    -0.139 OA 
HETATM   40  O   UNL     1      -9.328   1.496  66.053  1.00  0.00    -0.026 OA 
ENDBRANCH  27  30
ENDBRANCH  26  27
ENDBRANCH  25  26
ENDBRANCH  18  25
ENDBRANCH  11  16
BRANCH  14  41
HETATM   41  S   UNL     1     -11.572  13.931  67.208  1.00  0.00    -0.387 SA 
BRANCH  41  42
HETATM   42  C   UNL     1     -12.264  12.518  68.132  1.00  0.00     0.161 C  
BRANCH  42  43
HETATM   43  C   UNL     1     -11.578  12.447  69.490  1.00  0.00    -0.353 C  
HETATM   44  C   UNL     1     -11.887  11.157  70.217  1.00  0.00    -0.366 C  
HETATM   45  F   UNL     1     -10.742  10.515  70.551  1.00  0.00    -0.333 F  
HETATM   46  F   UNL     1     -12.633  10.305  69.487  1.00  0.00    -0.155 F  
HETATM   47  F   UNL     1     -12.553  11.403  71.367  1.00  0.00    -0.447 F  
ENDBRANCH  42  43
ENDBRANCH  41  42
ENDBRANCH  14  41
ENDBRANCH   5   7
ENDBRANCH   4   5
ENDBRANCH   3   4
ENDBRANCH   2   3
TORSDOF 12
ENDMDL
MODEL      231
REMARK 921   NORMALIZED FREE ENERGY PREDICTED BY IDOCK:    2.68 KCAL/MOL
REMARK 922        TOTAL FREE ENERGY PREDICTED BY IDOCK:    3.55 KCAL/MOL
REMARK 923 INTER-LIGAND FREE ENERGY PREDICTED BY IDOCK:    0.20 KCAL/MOL
REMARK 924 INTRA-LIGAND FREE ENERGY PREDICTED BY IDOCK:    3.36 KCAL/MOL
REMARK 927      BINDING AFFINITY PREDICTED BY RF-SCORE:    0.00 PKD
ROOT
HETATM    1  C   UNL     1      -5.739  15.840  73.489  1.00  0.00     2.107 C  
HETATM    2  S   UNL     1      -5.367  14.095  73.202  1.00  0.00    -0.191 SA 
ENDROOT
BRANCH   2   3
HETATM    3  C   UNL     1      -5.974  13.935  71.480  1.00  0.00    -0.012 C  
BRANCH   3   4
HETATM    4  C   UNL     1      -6.536  15.266  70.938  1.00  0.00     0.581 C  
BRANCH   4   5
HETATM    5  N   UNL     1      -7.935  15.123  70.571  1.00  0.00     0.317 NA 
HETATM    6  H   UNL     1      -8.656  15.505  71.182  1.00  0.00     0.000 HD 
BRANCH   5   7
HETATM    7  C   UNL     1      -8.301  14.476  69.403  1.00  0.00     0.167 A  
HETATM    8  C   UNL     1      -7.330  13.855  68.602  1.00  0.00    -0.117 A  
HETATM    9  N   UNL     1      -5.967  13.701  68.758  1.00  0.00    -0.080 NA 
HETATM   10  C   UNL     1      -5.590  12.954  67.731  1.00  0.00    -0.130 A  
HETATM   11  N   UNL     1      -6.650  12.645  66.904  1.00  0.00    -0.028 NA 
HETATM   12  C   UNL     1      -7.764  13.213  67.451  1.00  0.00    -0.145 A  
HETATM   13  N   UNL     1      -9.599  14.423  68.986  1.00  0.00    -0.117 NA 
HETATM   14  C   UNL     1      -9.880  13.803  67.821  1.00  0.00    -0.234 A  
HETATM   15  N   UNL     1      -9.019  13.156  67.001  1.00  0.00    -0.226 NA 
BRANCH  11  16
HETATM   16  C   UNL     1      -6.568  11.712  65.801  1.00  0.00     0.965 C  
HETATM   17  O   UNL     1      -7.852  11.090  65.665  1.00  0.00    -0.076 OA 
HETATM   18  C   UNL     1      -7.799   9.752  66.187  1.00  0.00    -0.107 C  
HETATM   19  H   UNL     1      -4.589   9.432  64.491  1.00  0.00     0.000 HD 
HETATM   20  O   UNL     1      -5.209  10.152  64.476  1.00  0.00    -0.078 OA 
HETATM   21  C   UNL     1      -6.339   9.407  66.455  1.00  0.00    -0.066 C  
HETATM   22  H   UNL     1      -5.115   7.930  66.016  1.00  0.00     0.000 HD 
HETATM   23  C   UNL     1      -5.566  10.547  65.825  1.00  0.00    -0.104 C  
HETATM   24  O   UNL     1      -6.025   8.146  65.849  1.00  0.00    -0.037 OA 
BRANCH  18  25
HETATM   25  C   UNL     1      -8.652   9.596  67.448  1.00  0.00    -0.125 C  
BRANCH  25  26
HETATM   26  O   UNL     1      -7.897   8.781  68.344  1.00  0.00    -0.102 OA 
BRANCH  26  27
HETATM   27  P   UNL     1      -8.482   7.306  68.585  1.00  0.00    -0.128 P  
HETATM   28  O   UNL     1     -10.053   7.673  68.476  1.00  0.00    -0.178 OA 
HETATM   29  O   UNL     1      -8.054   6.251  67.608  1.00  0.00    -0.115 OA 
BRANCH  27  30
HETATM   30  O   UNL     1      -8.090   6.971  70.135  1.00  0.00    -0.125 OA 
HETATM   31  P   UNL     1      -9.406   6.781  71.242  1.00  0.00    -0.164 P  
HETATM   32  C   UNL     1     -10.798   6.579  72.412  1.00  0.00    -0.233 C  
HETATM   33  O   UNL     1      -9.500   8.427  71.310  1.00  0.00    -0.160 OA 
HETATM   34  O   UNL     1     -10.355   6.303  70.111  1.00  0.00    -0.186 OA 
HETATM   35 CL   UNL     1     -12.273   7.546  71.930  1.00  0.00    -0.326 Cl 
HETATM   36  P   UNL     1     -11.400   4.851  72.352  1.00  0.00     0.309 P  
HETATM   37 CL   UNL     1     -10.299   7.230  74.009  1.00  0.00    -0.276 Cl 
HETATM   38  O   UNL     1     -10.570   4.519  73.747  1.00  0.00    -0.200 OA 
HETATM   39  O   UNL     1     -10.067   4.375  71.485  1.00  0.00    -0.188 OA 
HETATM   40  O   UNL     1     -11.909   3.390  72.302  1.00  0.00     1.570 OA 
ENDBRANCH  27  30
ENDBRANCH  26  27
ENDBRANCH  25  26
ENDBRANCH  18  25
ENDBRANCH  11  16
BRANCH  14  41
HETATM   41  S   UNL     1     -11.563  13.815  67.245  1.00  0.00    -0.384 SA 
BRANCH  41  42
HETATM   42  C   UNL     1     -12.443  13.403  68.790  1.00  0.00     0.307 C  
BRANCH  42  43
HETATM   43  C   UNL     1     -11.572  13.822  69.967  1.00  0.00    -0.265 C  
HETATM   44  C   UNL     1     -12.380  14.463  71.073  1.00  0.00    -0.357 C  
HETATM   45  F   UNL     1     -12.178  13.815  72.245  1.00  0.00    -0.181 F  
HETATM   46  F   UNL     1     -13.705  14.459  70.830  1.00  0.00    -0.361 F  
HETATM   47  F   UNL     1     -12.002  15.747  71.261  1.00  0.00    -0.325 F  
ENDBRANCH  42  43
ENDBRANCH  41  42
ENDBRANCH  14  41
ENDBRANCH   5   7
ENDBRANCH   4   5
ENDBRANCH   3   4
ENDBRANCH   2   3
TORSDOF 12
ENDMDL
MODEL      232
REMARK 921   NORMALIZED FREE ENERGY PREDICTED BY IDOCK:    2.73 KCAL/MOL
REMARK 922        TOTAL FREE ENERGY PREDICTED BY IDOCK:    3.63 KCAL/MOL
REMARK 923 INTER-LIGAND FREE ENERGY PREDICTED BY IDOCK:   -0.02 KCAL/MOL
REMARK 924 INTRA-LIGAND FREE ENERGY PREDICTED BY IDOCK:    3.65 KCAL/MOL
REMARK 927      BINDING AFFINITY PREDICTED BY RF-SCORE:    0.00 PKD
ROOT
HETATM    1  C   UNL     1     -12.701   1.623  63.088  1.00  0.00     4.729 C  
HETATM    2  S   UNL     1     -10.906   1.478  62.938  1.00  0.00    -0.192 SA 
ENDROOT
BRANCH   2   3
HETATM    3  C   UNL     1     -10.428   3.203  63.336  1.00  0.00    -0.224 C  
BRANCH   3   4
HETATM    4  C   UNL     1      -9.828   3.325  64.753  1.00  0.00    -0.093 C  
BRANCH   4   5
HETATM    5  N   UNL     1     -10.324   4.514  65.423  1.00  0.00    -0.410 NA 
HETATM    6  H   UNL     1     -11.326   4.623  65.577  1.00  0.00     0.000 HD 
BRANCH   5   7
HETATM    7  C   UNL     1      -9.457   5.502  65.854  1.00  0.00    -0.096 A  
HETATM    8  C   UNL     1      -9.951   6.656  66.482  1.00  0.00    -0.084 A  
HETATM    9  N   UNL     1     -11.231   7.040  66.831  1.00  0.00    -0.138 NA 
HETATM   10  C   UNL     1     -11.078   8.186  67.475  1.00  0.00     0.375 A  
HETATM   11  N   UNL     1      -9.755   8.573  67.530  1.00  0.00    -0.154 NA 
HETATM   12  C   UNL     1      -9.028   7.603  66.902  1.00  0.00    -0.138 A  
HETATM   13  N   UNL     1      -8.106   5.400  65.682  1.00  0.00    -0.111 NA 
HETATM   14  C   UNL     1      -7.323   6.416  66.099  1.00  0.00    -0.080 A  
HETATM   15  N   UNL     1      -7.705   7.548  66.735  1.00  0.00    -0.100 NA 
BRANCH  11  16
HETATM   16  C   UNL     1      -9.272   9.692  68.309  1.00  0.00    -0.129 C  
HETATM   17  O   UNL     1      -9.983   9.692  69.554  1.00  0.00    -0.184 OA 
HETATM   18  C   UNL     1     -10.974  10.732  69.544  1.00  0.00    -0.266 C  
HETATM   19  H   UNL     1      -8.434  12.862  68.028  1.00  0.00     0.000 HD 
HETATM   20  O   UNL     1      -8.359  11.973  68.353  1.00  0.00    -0.160 OA 
HETATM   21  C   UNL     1     -10.728  11.608  68.320  1.00  0.00    -0.213 C  
HETATM   22  H   UNL     1     -10.532  13.532  67.955  1.00  0.00     0.000 HD 
HETATM   23  C   UNL     1      -9.394  11.131  67.785  1.00  0.00    -0.164 C  
HETATM   24  O   UNL     1     -10.686  12.986  68.717  1.00  0.00    -0.248 OA 
BRANCH  18  25
HETATM   25  C   UNL     1     -12.396  10.168  69.551  1.00  0.00     0.320 C  
BRANCH  25  26
HETATM   26  O   UNL     1     -12.704   9.873  70.914  1.00  0.00    -0.321 OA 
BRANCH  26  27
HETATM   27  P   UNL     1     -11.786   8.748  71.594  1.00  0.00    -0.387 P  
HETATM   28  O   UNL     1     -12.325   8.910  73.109  1.00  0.00     0.057 OA 
HETATM   29  O   UNL     1     -11.935   7.353  71.061  1.00  0.00    -0.304 OA 
BRANCH  27  30
HETATM   30  O   UNL     1     -10.269   9.344  71.471  1.00  0.00    -0.308 OA 
HETATM   31  P   UNL     1      -8.991   8.331  72.048  1.00  0.00    -0.232 P  
HETATM   32  C   UNL     1      -7.639   7.259  72.657  1.00  0.00    -0.083 C  
HETATM   33  O   UNL     1      -9.379   8.822  73.575  1.00  0.00     0.112 OA 
HETATM   34  O   UNL     1      -9.805   7.045  71.748  1.00  0.00    -0.164 OA 
HETATM   35 CL   UNL     1      -8.176   6.134  73.995  1.00  0.00    -0.106 Cl 
HETATM   36  P   UNL     1      -7.128   6.107  71.330  1.00  0.00    -0.081 P  
HETATM   37 CL   UNL     1      -6.371   8.300  73.388  1.00  0.00    -0.106 Cl 
HETATM   38  O   UNL     1      -5.818   7.068  71.007  1.00  0.00    -0.031 OA 
HETATM   39  O   UNL     1      -7.993   6.963  70.200  1.00  0.00    -0.111 OA 
HETATM   40  O   UNL     1      -6.696   5.132  70.207  1.00  0.00    -0.037 OA 
ENDBRANCH  27  30
ENDBRANCH  26  27
ENDBRANCH  25  26
ENDBRANCH  18  25
ENDBRANCH  11  16
BRANCH  14  41
HETATM   41  S   UNL     1      -5.573   6.310  65.792  1.00  0.00    -0.017 SA 
BRANCH  41  42
HETATM   42  C   UNL     1      -5.362   4.500  65.708  1.00  0.00    -0.009 C  
BRANCH  42  43
HETATM   43  C   UNL     1      -5.328   4.086  64.242  1.00  0.00    -0.013 C  
HETATM   44  C   UNL     1      -6.339   3.004  63.933  1.00  0.00    -0.022 C  
HETATM   45  F   UNL     1      -7.158   3.395  62.927  1.00  0.00    -0.041 F  
HETATM   46  F   UNL     1      -7.114   2.688  64.988  1.00  0.00    -0.050 F  
HETATM   47  F   UNL     1      -5.722   1.874  63.524  1.00  0.00    -0.007 F  
ENDBRANCH  42  43
ENDBRANCH  41  42
ENDBRANCH  14  41
ENDBRANCH   5   7
ENDBRANCH   4   5
ENDBRANCH   3   4
ENDBRANCH   2   3
TORSDOF 12
ENDMDL
MODEL      233
REMARK 921   NORMALIZED FREE ENERGY PREDICTED BY IDOCK:    2.74 KCAL/MOL
REMARK 922        TOTAL FREE ENERGY PREDICTED BY IDOCK:    3.65 KCAL/MOL
REMARK 923 INTER-LIGAND FREE ENERGY PREDICTED BY IDOCK:   -0.73 KCAL/MOL
REMARK 924 INTRA-LIGAND FREE ENERGY PREDICTED BY IDOCK:    4.38 KCAL/MOL
REMARK 927      BINDING AFFINITY PREDICTED BY RF-SCORE:    0.00 PKD
ROOT
HETATM    1  C   UNL     1     -12.684  19.576  67.588  1.00  0.00     5.266 C  
HETATM    2  S   UNL     1     -11.051  20.306  67.844  1.00  0.00     1.065 SA 
ENDROOT
BRANCH   2   3
HETATM    3  C   UNL     1     -10.084  19.318  66.641  1.00  0.00    -0.399 C  
BRANCH   3   4
HETATM    4  C   UNL     1     -10.926  18.919  65.410  1.00  0.00     0.427 C  
BRANCH   4   5
HETATM    5  N   UNL     1     -10.925  17.477  65.230  1.00  0.00    -0.477 NA 
HETATM    6  H   UNL     1     -11.488  17.063  64.488  1.00  0.00     0.000 HD 
BRANCH   5   7
HETATM    7  C   UNL     1     -10.170  16.658  66.052  1.00  0.00    -0.351 A  
HETATM    8  C   UNL     1      -8.879  17.043  66.445  1.00  0.00    -0.278 A  
HETATM    9  N   UNL     1      -8.141  18.185  66.198  1.00  0.00    -0.470 NA 
HETATM   10  C   UNL     1      -7.028  18.027  66.896  1.00  0.00    -0.191 A  
HETATM   11  N   UNL     1      -7.002  16.817  67.558  1.00  0.00    -0.133 NA 
HETATM   12  C   UNL     1      -8.179  16.183  67.279  1.00  0.00    -0.177 A  
HETATM   13  N   UNL     1     -10.640  15.458  66.501  1.00  0.00    -0.301 NA 
HETATM   14  C   UNL     1      -9.838  14.697  67.273  1.00  0.00    -0.231 A  
HETATM   15  N   UNL     1      -8.596  14.996  67.722  1.00  0.00    -0.156 NA 
BRANCH  11  16
HETATM   16  C   UNL     1      -5.991  16.445  68.524  1.00  0.00    -0.116 C  
HETATM   17  O   UNL     1      -5.323  15.280  68.024  1.00  0.00    -0.114 OA 
HETATM   18  C   UNL     1      -5.769  14.121  68.747  1.00  0.00    -0.082 C  
HETATM   19  H   UNL     1      -5.504  16.148  71.765  1.00  0.00     0.000 HD 
HETATM   20  O   UNL     1      -5.268  16.365  70.871  1.00  0.00    -0.190 OA 
HETATM   21  C   UNL     1      -6.591  14.595  69.941  1.00  0.00    -0.167 C  
HETATM   22  H   UNL     1      -6.625  14.254  71.878  1.00  0.00     0.000 HD 
HETATM   23  C   UNL     1      -6.372  16.094  69.971  1.00  0.00    -0.077 C  
HETATM   24  O   UNL     1      -6.114  13.959  71.135  1.00  0.00    -0.181 OA 
BRANCH  18  25
HETATM   25  C   UNL     1      -6.570  13.167  67.860  1.00  0.00    -0.137 C  
BRANCH  25  26
HETATM   26  O   UNL     1      -5.615  12.346  67.188  1.00  0.00    -0.240 OA 
BRANCH  26  27
HETATM   27  P   UNL     1      -5.919  10.771  67.228  1.00  0.00    -0.065 P  
HETATM   28  O   UNL     1      -5.197  10.371  65.839  1.00  0.00    -0.046 OA 
HETATM   29  O   UNL     1      -5.383  10.018  68.410  1.00  0.00    -0.036 OA 
BRANCH  27  30
HETATM   30  O   UNL     1      -7.542  10.675  67.065  1.00  0.00    -0.103 OA 
HETATM   31  P   UNL     1      -8.237   9.094  67.158  1.00  0.00    -0.113 P  
HETATM   32  C   UNL     1      -8.972   7.421  67.258  1.00  0.00    -0.124 C  
HETATM   33  O   UNL     1      -7.768   8.867  65.592  1.00  0.00    -0.085 OA 
HETATM   34  O   UNL     1      -7.089   8.587  68.070  1.00  0.00    -0.082 OA 
HETATM   35 CL   UNL     1      -7.823   6.109  66.708  1.00  0.00    -0.103 Cl 
HETATM   36  P   UNL     1      -9.278   6.992  69.011  1.00  0.00    -0.134 P  
HETATM   37 CL   UNL     1     -10.365   7.343  66.128  1.00  0.00     0.312 Cl 
HETATM   38  O   UNL     1     -10.882   7.360  68.816  1.00  0.00    -0.155 OA 
HETATM   39  O   UNL     1      -9.010   8.562  69.483  1.00  0.00    -0.146 OA 
HETATM   40  O   UNL     1      -9.537   6.630  70.494  1.00  0.00    -0.168 OA 
ENDBRANCH  27  30
ENDBRANCH  26  27
ENDBRANCH  25  26
ENDBRANCH  18  25
ENDBRANCH  11  16
BRANCH  14  41
HETATM   41  S   UNL     1     -10.429  13.097  67.781  1.00  0.00    -0.232 SA 
BRANCH  41  42
HETATM   42  C   UNL     1     -12.081  13.542  68.415  1.00  0.00    -0.258 C  
BRANCH  42  43
HETATM   43  C   UNL     1     -11.914  14.181  69.788  1.00  0.00    -0.396 C  
HETATM   44  C   UNL     1     -12.012  15.689  69.730  1.00  0.00    -0.354 C  
HETATM   45  F   UNL     1     -12.972  16.135  70.575  1.00  0.00    -0.288 F  
HETATM   46  F   UNL     1     -12.307  16.153  68.500  1.00  0.00    -0.149 F  
HETATM   47  F   UNL     1     -10.849  16.261  70.116  1.00  0.00    -0.296 F  
ENDBRANCH  42  43
ENDBRANCH  41  42
ENDBRANCH  14  41
ENDBRANCH   5   7
ENDBRANCH   4   5
ENDBRANCH   3   4
ENDBRANCH   2   3
TORSDOF 12
ENDMDL
MODEL      234
REMARK 921   NORMALIZED FREE ENERGY PREDICTED BY IDOCK:    2.95 KCAL/MOL
REMARK 922        TOTAL FREE ENERGY PREDICTED BY IDOCK:    4.00 KCAL/MOL
REMARK 923 INTER-LIGAND FREE ENERGY PREDICTED BY IDOCK:    0.79 KCAL/MOL
REMARK 924 INTRA-LIGAND FREE ENERGY PREDICTED BY IDOCK:    3.21 KCAL/MOL
REMARK 927      BINDING AFFINITY PREDICTED BY RF-SCORE:    0.00 PKD
ROOT
HETATM    1  C   UNL     1     -11.489   8.157  66.773  1.00  0.00     2.400 C  
HETATM    2  S   UNL     1      -9.753   8.129  66.272  1.00  0.00    -0.088 SA 
ENDROOT
BRANCH   2   3
HETATM    3  C   UNL     1      -9.688   6.469  65.497  1.00  0.00     0.779 C  
BRANCH   3   4
HETATM    4  C   UNL     1     -10.997   5.679  65.708  1.00  0.00     0.756 C  
BRANCH   4   5
HETATM    5  N   UNL     1     -11.256   5.480  67.124  1.00  0.00    -0.140 NA 
HETATM    6  H   UNL     1     -12.219   5.421  67.455  1.00  0.00     0.000 HD 
BRANCH   5   7
HETATM    7  C   UNL     1     -10.215   5.368  68.028  1.00  0.00    -0.164 A  
HETATM    8  C   UNL     1     -10.201   6.151  69.194  1.00  0.00    -0.194 A  
HETATM    9  N   UNL     1     -11.102   7.066  69.701  1.00  0.00    -0.243 NA 
HETATM   10  C   UNL     1     -10.600   7.422  70.873  1.00  0.00    -0.223 A  
HETATM   11  N   UNL     1      -9.397   6.798  71.130  1.00  0.00    -0.159 NA 
HETATM   12  C   UNL     1      -9.135   5.983  70.066  1.00  0.00    -0.146 A  
HETATM   13  N   UNL     1      -9.172   4.512  67.824  1.00  0.00    -0.123 NA 
HETATM   14  C   UNL     1      -8.175   4.479  68.733  1.00  0.00    -0.081 A  
HETATM   15  N   UNL     1      -8.089   5.173  69.892  1.00  0.00    -0.081 NA 
BRANCH  11  16
HETATM   16  C   UNL     1      -8.705   6.867  72.398  1.00  0.00    -0.126 C  
HETATM   17  O   UNL     1      -8.389   8.243  72.644  1.00  0.00    -0.162 OA 
HETATM   18  C   UNL     1      -6.990   8.467  72.402  1.00  0.00    -0.056 C  
HETATM   19  H   UNL     1      -6.388   5.332  74.160  1.00  0.00     0.000 HD 
HETATM   20  O   UNL     1      -7.204   5.798  74.024  1.00  0.00    -0.081 OA 
HETATM   21  C   UNL     1      -6.317   7.111  72.224  1.00  0.00    -0.048 C  
HETATM   22  H   UNL     1      -4.746   6.186  72.964  1.00  0.00     0.000 HD 
HETATM   23  C   UNL     1      -7.385   6.112  72.620  1.00  0.00    -0.089 C  
HETATM   24  O   UNL     1      -5.165   7.031  73.075  1.00  0.00    -0.037 OA 
BRANCH  18  25
HETATM   25  C   UNL     1      -6.757   9.371  71.190  1.00  0.00    -0.042 C  
BRANCH  25  26
HETATM   26  O   UNL     1      -8.033   9.904  70.835  1.00  0.00    -0.198 OA 
BRANCH  26  27
HETATM   27  P   UNL     1      -8.084  10.676  69.430  1.00  0.00     0.052 P  
HETATM   28  O   UNL     1      -6.644  11.403  69.526  1.00  0.00    -0.107 OA 
HETATM   29  O   UNL     1      -8.234   9.822  68.205  1.00  0.00    -0.104 OA 
BRANCH  27  30
HETATM   30  O   UNL     1      -9.281  11.772  69.621  1.00  0.00     0.923 OA 
HETATM   31  P   UNL     1      -9.448  12.961  68.376  1.00  0.00    -0.041 P  
HETATM   32  C   UNL     1      -9.624  14.218  67.058  1.00  0.00    -0.257 C  
HETATM   33  O   UNL     1      -8.189  13.771  69.073  1.00  0.00     0.024 OA 
HETATM   34  O   UNL     1      -8.855  12.002  67.310  1.00  0.00    -0.169 OA 
HETATM   35 CL   UNL     1      -8.043  14.586  66.215  1.00  0.00     0.787 Cl 
HETATM   36  P   UNL     1     -10.664  13.547  65.710  1.00  0.00    -0.285 P  
HETATM   37 CL   UNL     1     -10.136  15.766  67.812  1.00  0.00    -0.236 Cl 
HETATM   38  O   UNL     1     -11.958  14.405  66.289  1.00  0.00    -0.396 OA 
HETATM   39  O   UNL     1     -11.133  12.266  66.656  1.00  0.00    -0.268 OA 
HETATM   40  O   UNL     1     -11.544  12.980  64.569  1.00  0.00    -0.329 OA 
ENDBRANCH  27  30
ENDBRANCH  26  27
ENDBRANCH  25  26
ENDBRANCH  18  25
ENDBRANCH  11  16
BRANCH  14  41
HETATM   41  S   UNL     1      -6.779   3.422  68.413  1.00  0.00    -0.046 SA 
BRANCH  41  42
HETATM   42  C   UNL     1      -7.629   1.933  67.788  1.00  0.00    -0.055 C  
BRANCH  42  43
HETATM   43  C   UNL     1      -7.565   1.945  66.267  1.00  0.00    -0.062 C  
HETATM   44  C   UNL     1      -6.350   2.685  65.753  1.00  0.00    -0.024 C  
HETATM   45  F   UNL     1      -5.621   1.890  64.934  1.00  0.00    -0.007 F  
HETATM   46  F   UNL     1      -5.535   3.109  66.738  1.00  0.00    -0.016 F  
HETATM   47  F   UNL     1      -6.717   3.767  65.031  1.00  0.00    -0.042 F  
ENDBRANCH  42  43
ENDBRANCH  41  42
ENDBRANCH  14  41
ENDBRANCH   5   7
ENDBRANCH   4   5
ENDBRANCH   3   4
ENDBRANCH   2   3
TORSDOF 12
ENDMDL
MODEL      235
REMARK 921   NORMALIZED FREE ENERGY PREDICTED BY IDOCK:    3.43 KCAL/MOL
REMARK 922        TOTAL FREE ENERGY PREDICTED BY IDOCK:    4.82 KCAL/MOL
REMARK 923 INTER-LIGAND FREE ENERGY PREDICTED BY IDOCK:    2.83 KCAL/MOL
REMARK 924 INTRA-LIGAND FREE ENERGY PREDICTED BY IDOCK:    1.99 KCAL/MOL
REMARK 927      BINDING AFFINITY PREDICTED BY RF-SCORE:    0.00 PKD
ROOT
HETATM    1  C   UNL     1      -9.835   4.820  72.651  1.00  0.00    -0.149 C  
HETATM    2  S   UNL     1      -8.707   3.945  71.545  1.00  0.00    -0.100 SA 
ENDROOT
BRANCH   2   3
HETATM    3  C   UNL     1      -7.123   4.267  72.409  1.00  0.00    -0.061 C  
BRANCH   3   4
HETATM    4  C   UNL     1      -6.828   5.777  72.532  1.00  0.00    -0.078 C  
BRANCH   4   5
HETATM    5  N   UNL     1      -6.622   6.371  71.222  1.00  0.00    -0.050 NA 
HETATM    6  H   UNL     1      -5.680   6.635  70.933  1.00  0.00     0.000 HD 
BRANCH   5   7
HETATM    7  C   UNL     1      -7.685   6.583  70.362  1.00  0.00    -0.098 A  
HETATM    8  C   UNL     1      -8.595   7.624  70.602  1.00  0.00    -0.135 A  
HETATM    9  N   UNL     1      -8.644   8.599  71.580  1.00  0.00    -0.183 NA 
HETATM   10  C   UNL     1      -9.678   9.357  71.251  1.00  0.00    -0.139 A  
HETATM   11  N   UNL     1     -10.316   8.895  70.118  1.00  0.00    -0.199 NA 
HETATM   12  C   UNL     1      -9.631   7.792  69.696  1.00  0.00    -0.163 A  
HETATM   13  N   UNL     1      -7.893   5.796  69.266  1.00  0.00    -0.089 NA 
HETATM   14  C   UNL     1      -8.968   6.041  68.490  1.00  0.00    -0.114 A  
HETATM   15  N   UNL     1      -9.879   7.033  68.627  1.00  0.00    -0.145 NA 
BRANCH  11  16
HETATM   16  C   UNL     1     -11.370   9.613  69.435  1.00  0.00     0.002 C  
HETATM   17  O   UNL     1     -11.079   9.576  68.032  1.00  0.00    -0.157 OA 
HETATM   18  C   UNL     1     -10.578  10.854  67.609  1.00  0.00    -0.224 C  
HETATM   19  H   UNL     1     -13.202  12.338  69.659  1.00  0.00     0.000 HD 
HETATM   20  O   UNL     1     -13.031  11.423  69.468  1.00  0.00     0.139 OA 
HETATM   21  C   UNL     1     -10.783  11.844  68.751  1.00  0.00    -0.224 C  
HETATM   22  H   UNL     1     -11.563  13.638  68.966  1.00  0.00     0.000 HD 
HETATM   23  C   UNL     1     -11.647  11.092  69.743  1.00  0.00    -0.334 C  
HETATM   24  O   UNL     1     -11.435  13.021  68.255  1.00  0.00    -0.270 OA 
BRANCH  18  25
HETATM   25  C   UNL     1      -9.109  10.782  67.189  1.00  0.00    -0.144 C  
BRANCH  25  26
HETATM   26  O   UNL     1      -8.357  11.362  68.255  1.00  0.00    -0.138 OA 
BRANCH  26  27
HETATM   27  P   UNL     1      -7.689  12.783  67.926  1.00  0.00    -0.176 P  
HETATM   28  O   UNL     1      -6.588  12.788  69.110  1.00  0.00    -0.099 OA 
HETATM   29  O   UNL     1      -7.087  12.936  66.560  1.00  0.00     0.542 OA 
BRANCH  27  30
HETATM   30  O   UNL     1      -8.870  13.863  68.253  1.00  0.00    -0.177 OA 
HETATM   31  P   UNL     1      -9.246  15.000  67.005  1.00  0.00    -0.258 P  
HETATM   32  C   UNL     1      -9.643  16.202  65.683  1.00  0.00    -0.150 C  
HETATM   33  O   UNL     1      -7.919  15.860  67.479  1.00  0.00    -0.129 OA 
HETATM   34  O   UNL     1      -8.793  14.012  65.897  1.00  0.00     0.328 OA 
HETATM   35 CL   UNL     1      -8.213  16.565  64.603  1.00  0.00     5.756 Cl 
HETATM   36  P   UNL     1     -10.854  15.460  64.527  1.00  0.00     0.343 P  
HETATM   37 CL   UNL     1     -10.076  17.768  66.448  1.00  0.00    -0.344 Cl 
HETATM   38  O   UNL     1     -12.069  16.316  65.260  1.00  0.00     0.883 OA 
HETATM   39  O   UNL     1     -11.148  14.208  65.577  1.00  0.00    -0.297 OA 
HETATM   40  O   UNL     1     -11.878  14.833  63.550  1.00  0.00     0.030 OA 
ENDBRANCH  27  30
ENDBRANCH  26  27
ENDBRANCH  25  26
ENDBRANCH  18  25
ENDBRANCH  11  16
BRANCH  14  41
HETATM   41  S   UNL     1      -9.278   4.955  67.114  1.00  0.00    -0.130 SA 
BRANCH  41  42
HETATM   42  C   UNL     1      -7.901   5.422  66.010  1.00  0.00    -0.103 C  
BRANCH  42  43
HETATM   43  C   UNL     1      -8.423   6.420  64.985  1.00  0.00    -0.032 C  
HETATM   44  C   UNL     1      -8.010   6.056  63.576  1.00  0.00    -0.108 C  
HETATM   45  F   UNL     1      -9.097   5.952  62.775  1.00  0.00     0.103 F  
HETATM   46  F   UNL     1      -7.340   4.890  63.506  1.00  0.00    -0.046 F  
HETATM   47  F   UNL     1      -7.219   7.015  63.045  1.00  0.00    -0.054 F  
ENDBRANCH  42  43
ENDBRANCH  41  42
ENDBRANCH  14  41
ENDBRANCH   5   7
ENDBRANCH   4   5
ENDBRANCH   3   4
ENDBRANCH   2   3
TORSDOF 12
ENDMDL
MODEL      236
REMARK 921   NORMALIZED FREE ENERGY PREDICTED BY IDOCK:    3.57 KCAL/MOL
REMARK 922        TOTAL FREE ENERGY PREDICTED BY IDOCK:    5.06 KCAL/MOL
REMARK 923 INTER-LIGAND FREE ENERGY PREDICTED BY IDOCK:   -1.10 KCAL/MOL
REMARK 924 INTRA-LIGAND FREE ENERGY PREDICTED BY IDOCK:    6.16 KCAL/MOL
REMARK 927      BINDING AFFINITY PREDICTED BY RF-SCORE:    0.00 PKD
ROOT
HETATM    1  C   UNL     1      -8.745  20.608  67.770  1.00  0.00    -0.021 C  
HETATM    2  S   UNL     1     -10.448  20.024  67.615  1.00  0.00    -0.279 SA 
ENDROOT
BRANCH   2   3
HETATM    3  C   UNL     1     -10.229  18.806  66.263  1.00  0.00    -0.424 C  
BRANCH   3   4
HETATM    4  C   UNL     1     -11.355  18.900  65.211  1.00  0.00     1.568 C  
BRANCH   4   5
HETATM    5  N   UNL     1     -11.509  17.639  64.506  1.00  0.00     0.046 NA 
HETATM    6  H   UNL     1     -12.106  17.594  63.681  1.00  0.00     0.000 HD 
BRANCH   5   7
HETATM    7  C   UNL     1     -10.858  16.498  64.940  1.00  0.00    -0.204 A  
HETATM    8  C   UNL     1     -11.472  15.241  64.820  1.00  0.00    -0.363 A  
HETATM    9  N   UNL     1     -12.682  14.854  64.278  1.00  0.00    -0.633 NA 
HETATM   10  C   UNL     1     -12.686  13.533  64.368  1.00  0.00    -0.062 A  
HETATM   11  N   UNL     1     -11.543  13.054  64.972  1.00  0.00    -0.314 NA 
HETATM   12  C   UNL     1     -10.761  14.135  65.262  1.00  0.00    -0.364 A  
HETATM   13  N   UNL     1      -9.614  16.547  65.500  1.00  0.00    -0.472 NA 
HETATM   14  C   UNL     1      -9.052  15.398  65.930  1.00  0.00    -0.153 A  
HETATM   15  N   UNL     1      -9.554  14.144  65.831  1.00  0.00    -0.230 NA 
BRANCH  11  16
HETATM   16  C   UNL     1     -11.200  11.651  65.055  1.00  0.00    -0.210 C  
HETATM   17  O   UNL     1     -11.600  11.183  66.349  1.00  0.00    -0.227 OA 
HETATM   18  C   UNL     1     -10.443  11.032  67.187  1.00  0.00    -0.232 C  
HETATM   19  H   UNL     1      -8.794   9.534  64.302  1.00  0.00     0.000 HD 
HETATM   20  O   UNL     1      -9.694   9.823  64.399  1.00  0.00    -0.213 OA 
HETATM   21  C   UNL     1      -9.202  11.180  66.312  1.00  0.00    -0.195 C  
HETATM   22  H   UNL     1      -7.543  10.169  66.001  1.00  0.00     0.000 HD 
HETATM   23  C   UNL     1      -9.744  11.183  64.898  1.00  0.00    -0.251 C  
HETATM   24  O   UNL     1      -8.316  10.077  66.546  1.00  0.00    -0.124 OA 
BRANCH  18  25
HETATM   25  C   UNL     1     -10.437  12.037  68.340  1.00  0.00    -0.219 C  
BRANCH  25  26
HETATM   26  O   UNL     1      -9.349  11.669  69.188  1.00  0.00     0.075 OA 
BRANCH  26  27
HETATM   27  P   UNL     1      -8.059  12.618  69.095  1.00  0.00     0.863 P  
HETATM   28  O   UNL     1      -6.944  11.514  69.483  1.00  0.00    -0.107 OA 
HETATM   29  O   UNL     1      -7.805  13.270  67.768  1.00  0.00    -0.128 OA 
BRANCH  27  30
HETATM   30  O   UNL     1      -8.253  13.676  70.324  1.00  0.00     2.146 OA 
HETATM   31  P   UNL     1      -9.566  14.794  70.183  1.00  0.00     1.154 P  
HETATM   32  C   UNL     1     -10.956  15.975  70.033  1.00  0.00    -0.365 C  
HETATM   33  O   UNL     1      -8.612  15.685  69.173  1.00  0.00    -0.216 OA 
HETATM   34  O   UNL     1     -10.380  13.805  69.307  1.00  0.00    -0.052 OA 
HETATM   35 CL   UNL     1     -11.374  16.359  68.295  1.00  0.00    -0.313 Cl 
HETATM   36  P   UNL     1     -12.488  15.198  70.663  1.00  0.00    -0.431 P  
HETATM   37 CL   UNL     1     -10.456  17.538  70.762  1.00  0.00     1.431 Cl 
HETATM   38  O   UNL     1     -12.322  16.034  72.084  1.00  0.00    -0.445 OA 
HETATM   39  O   UNL     1     -11.625  13.949  71.336  1.00  0.00     0.211 OA 
HETATM   40  O   UNL     1     -13.785  14.541  71.197  1.00  0.00    -0.366 OA 
ENDBRANCH  27  30
ENDBRANCH  26  27
ENDBRANCH  25  26
ENDBRANCH  18  25
ENDBRANCH  11  16
BRANCH  14  41
HETATM   41  S   UNL     1      -7.468  15.486  66.736  1.00  0.00     0.244 SA 
BRANCH  41  42
HETATM   42  C   UNL     1      -7.008  17.214  66.372  1.00  0.00    -0.261 C  
BRANCH  42  43
HETATM   43  C   UNL     1      -5.723  17.539  67.123  1.00  0.00    -0.163 C  
HETATM   44  C   UNL     1      -5.995  18.218  68.447  1.00  0.00    -0.184 C  
HETATM   45  F   UNL     1      -5.413  17.531  69.459  1.00  0.00    -0.167 F  
HETATM   46  F   UNL     1      -7.308  18.322  68.728  1.00  0.00    -0.260 F  
HETATM   47  F   UNL     1      -5.473  19.464  68.463  1.00  0.00    -0.187 F  
ENDBRANCH  42  43
ENDBRANCH  41  42
ENDBRANCH  14  41
ENDBRANCH   5   7
ENDBRANCH   4   5
ENDBRANCH   3   4
ENDBRANCH   2   3
TORSDOF 12
ENDMDL
MODEL      237
REMARK 921   NORMALIZED FREE ENERGY PREDICTED BY IDOCK:    3.71 KCAL/MOL
REMARK 922        TOTAL FREE ENERGY PREDICTED BY IDOCK:    5.30 KCAL/MOL
REMARK 923 INTER-LIGAND FREE ENERGY PREDICTED BY IDOCK:    2.65 KCAL/MOL
REMARK 924 INTRA-LIGAND FREE ENERGY PREDICTED BY IDOCK:    2.65 KCAL/MOL
REMARK 927      BINDING AFFINITY PREDICTED BY RF-SCORE:    0.00 PKD
ROOT
HETATM    1  C   UNL     1      -9.616   5.617  65.273  1.00  0.00     0.372 C  
HETATM    2  S   UNL     1      -8.333   6.871  65.059  1.00  0.00     0.014 SA 
ENDROOT
BRANCH   2   3
HETATM    3  C   UNL     1      -9.211   8.325  65.749  1.00  0.00    -0.078 C  
BRANCH   3   4
HETATM    4  C   UNL     1      -9.097   9.559  64.829  1.00  0.00    -0.218 C  
BRANCH   4   5
HETATM    5  N   UNL     1      -8.222  10.560  65.416  1.00  0.00    -0.160 NA 
HETATM    6  H   UNL     1      -7.688  11.180  64.807  1.00  0.00     0.000 HD 
BRANCH   5   7
HETATM    7  C   UNL     1      -8.101  10.682  66.789  1.00  0.00    -0.131 A  
HETATM    8  C   UNL     1      -7.862  11.937  67.371  1.00  0.00    -0.158 A  
HETATM    9  N   UNL     1      -7.747  13.200  66.825  1.00  0.00     0.279 NA 
HETATM   10  C   UNL     1      -7.610  14.008  67.865  1.00  0.00    -0.155 A  
HETATM   11  N   UNL     1      -7.601  13.315  69.057  1.00  0.00     0.040 NA 
HETATM   12  C   UNL     1      -7.764  11.994  68.754  1.00  0.00    -0.054 A  
HETATM   13  N   UNL     1      -8.202   9.604  67.620  1.00  0.00    -0.114 NA 
HETATM   14  C   UNL     1      -8.042   9.792  68.946  1.00  0.00    -0.101 A  
HETATM   15  N   UNL     1      -7.837  10.962  69.597  1.00  0.00     0.017 NA 
BRANCH  11  16
HETATM   16  C   UNL     1      -7.632  13.946  70.359  1.00  0.00     1.680 C  
HETATM   17  O   UNL     1      -8.076  15.296  70.175  1.00  0.00     0.096 OA 
HETATM   18  C   UNL     1      -6.958  16.192  70.288  1.00  0.00     0.733 C  
HETATM   19  H   UNL     1      -5.902  14.194  73.148  1.00  0.00     0.000 HD 
HETATM   20  O   UNL     1      -6.689  14.123  72.621  1.00  0.00     0.888 OA 
HETATM   21  C   UNL     1      -5.766  15.398  70.813  1.00  0.00    -0.017 C  
HETATM   22  H   UNL     1      -4.446  15.589  72.259  1.00  0.00     0.000 HD 
HETATM   23  C   UNL     1      -6.358  14.061  71.211  1.00  0.00     0.342 C  
HETATM   24  O   UNL     1      -5.188  16.084  71.932  1.00  0.00    -0.081 OA 
BRANCH  18  25
HETATM   25  C   UNL     1      -6.633  16.872  68.957  1.00  0.00    -0.209 C  
BRANCH  25  26
HETATM   26  O   UNL     1      -7.867  17.392  68.460  1.00  0.00    -0.249 OA 
BRANCH  26  27
HETATM   27  P   UNL     1      -7.753  18.248  67.108  1.00  0.00    -0.230 P  
HETATM   28  O   UNL     1      -7.250  19.635  67.768  1.00  0.00    -0.252 OA 
HETATM   29  O   UNL     1      -6.819  17.719  66.061  1.00  0.00    -0.263 OA 
BRANCH  27  30
HETATM   30  O   UNL     1      -9.299  18.397  66.600  1.00  0.00    -0.288 OA 
HETATM   31  P   UNL     1     -10.232  16.942  66.524  1.00  0.00    -0.287 P  
HETATM   32  C   UNL     1     -11.218  15.403  66.444  1.00  0.00    -0.164 C  
HETATM   33  O   UNL     1      -9.480  16.613  65.092  1.00  0.00     0.028 OA 
HETATM   34  O   UNL     1      -9.395  16.285  67.654  1.00  0.00    -0.216 OA 
HETATM   35 CL   UNL     1     -10.192  13.920  66.137  1.00  0.00    -0.295 Cl 
HETATM   36  P   UNL     1     -11.952  15.062  68.086  1.00  0.00     0.095 P  
HETATM   37 CL   UNL     1     -12.333  15.513  65.041  1.00  0.00     0.336 Cl 
HETATM   38  O   UNL     1     -13.402  15.665  67.556  1.00  0.00     3.488 OA 
HETATM   39  O   UNL     1     -11.554  16.582  68.623  1.00  0.00    -0.261 OA 
HETATM   40  O   UNL     1     -12.574  14.775  69.474  1.00  0.00    -0.157 OA 
ENDBRANCH  27  30
ENDBRANCH  26  27
ENDBRANCH  25  26
ENDBRANCH  18  25
ENDBRANCH  11  16
BRANCH  14  41
HETATM   41  S   UNL     1      -8.089   8.367  70.011  1.00  0.00    -0.119 SA 
BRANCH  41  42
HETATM   42  C   UNL     1      -9.284   7.323  69.110  1.00  0.00    -0.139 C  
BRANCH  42  43
HETATM   43  C   UNL     1     -10.692   7.770  69.484  1.00  0.00    -0.200 C  
HETATM   44  C   UNL     1     -11.170   7.130  70.769  1.00  0.00    -0.279 C  
HETATM   45  F   UNL     1     -11.545   8.079  71.660  1.00  0.00    -0.261 F  
HETATM   46  F   UNL     1     -10.231   6.366  71.359  1.00  0.00    -0.205 F  
HETATM   47  F   UNL     1     -12.251   6.351  70.543  1.00  0.00    -0.418 F  
ENDBRANCH  42  43
ENDBRANCH  41  42
ENDBRANCH  14  41
ENDBRANCH   5   7
ENDBRANCH   4   5
ENDBRANCH   3   4
ENDBRANCH   2   3
TORSDOF 12
ENDMDL
MODEL      238
REMARK 921   NORMALIZED FREE ENERGY PREDICTED BY IDOCK:    4.02 KCAL/MOL
REMARK 922        TOTAL FREE ENERGY PREDICTED BY IDOCK:    5.83 KCAL/MOL
REMARK 923 INTER-LIGAND FREE ENERGY PREDICTED BY IDOCK:   -1.56 KCAL/MOL
REMARK 924 INTRA-LIGAND FREE ENERGY PREDICTED BY IDOCK:    7.39 KCAL/MOL
REMARK 927      BINDING AFFINITY PREDICTED BY RF-SCORE:    0.00 PKD
ROOT
HETATM    1  C   UNL     1      -7.373  16.385  69.479  1.00  0.00    -0.044 C  
HETATM    2  S   UNL     1      -7.226  14.598  69.705  1.00  0.00    -0.042 SA 
ENDROOT
BRANCH   2   3
HETATM    3  C   UNL     1      -7.147  14.076  67.949  1.00  0.00    -0.160 C  
BRANCH   3   4
HETATM    4  C   UNL     1      -8.384  14.540  67.151  1.00  0.00    -0.202 C  
BRANCH   4   5
HETATM    5  N   UNL     1      -8.930  13.447  66.366  1.00  0.00    -0.460 NA 
HETATM    6  H   UNL     1      -9.514  13.653  65.555  1.00  0.00     0.000 HD 
BRANCH   5   7
HETATM    7  C   UNL     1      -8.671  12.130  66.703  1.00  0.00    -0.153 A  
HETATM    8  C   UNL     1      -8.590  11.745  68.050  1.00  0.00    -0.158 A  
HETATM    9  N   UNL     1      -8.767  12.452  69.224  1.00  0.00     0.721 NA 
HETATM   10  C   UNL     1      -8.652  11.548  70.184  1.00  0.00     2.789 A  
HETATM   11  N   UNL     1      -8.379  10.294  69.681  1.00  0.00    -0.156 NA 
HETATM   12  C   UNL     1      -8.340  10.408  68.321  1.00  0.00    -0.119 A  
HETATM   13  N   UNL     1      -8.479  11.168  65.754  1.00  0.00    -0.126 NA 
HETATM   14  C   UNL     1      -8.199   9.911  66.154  1.00  0.00    -0.118 A  
HETATM   15  N   UNL     1      -8.128   9.444  67.424  1.00  0.00    -0.109 NA 
BRANCH  11  16
HETATM   16  C   UNL     1      -8.366   9.088  70.480  1.00  0.00    -0.183 C  
HETATM   17  O   UNL     1      -8.202   7.979  69.588  1.00  0.00    -0.117 OA 
HETATM   18  C   UNL     1      -9.457   7.297  69.429  1.00  0.00    -0.154 C  
HETATM   19  H   UNL     1      -9.885   7.665  73.030  1.00  0.00     0.000 HD 
HETATM   20  O   UNL     1      -9.143   7.898  72.485  1.00  0.00    -0.151 OA 
HETATM   21  C   UNL     1     -10.431   7.851  70.463  1.00  0.00    -0.214 C  
HETATM   22  H   UNL     1     -11.645   7.112  71.824  1.00  0.00     0.000 HD 
HETATM   23  C   UNL     1      -9.567   8.712  71.362  1.00  0.00    -0.243 C  
HETATM   24  O   UNL     1     -11.038   6.767  71.179  1.00  0.00    -0.250 OA 
BRANCH  18  25
HETATM   25  C   UNL     1     -10.009   7.439  68.009  1.00  0.00    -0.164 C  
BRANCH  25  26
HETATM   26  O   UNL     1     -10.425   6.133  67.608  1.00  0.00    -0.176 OA 
BRANCH  26  27
HETATM   27  P   UNL     1      -9.448   4.939  68.049  1.00  0.00    -0.147 P  
HETATM   28  O   UNL     1      -8.069   5.560  67.478  1.00  0.00    -0.101 OA 
HETATM   29  O   UNL     1      -9.392   4.630  69.516  1.00  0.00    -0.114 OA 
BRANCH  27  30
HETATM   30  O   UNL     1      -9.920   3.677  67.125  1.00  0.00    -0.045 OA 
HETATM   31  P   UNL     1      -9.535   3.764  65.441  1.00  0.00    -0.154 P  
HETATM   32  C   UNL     1      -9.127   3.856  63.660  1.00  0.00    -0.122 C  
HETATM   33  O   UNL     1     -10.836   4.765  65.263  1.00  0.00    -0.135 OA 
HETATM   34  O   UNL     1      -8.294   4.653  65.718  1.00  0.00    -0.113 OA 
HETATM   35 CL   UNL     1      -9.025   5.576  63.045  1.00  0.00     0.176 Cl 
HETATM   36  P   UNL     1      -7.432   3.221  63.388  1.00  0.00    -0.060 P  
HETATM   37 CL   UNL     1     -10.459   3.093  62.729  1.00  0.00    -0.151 Cl 
HETATM   38  O   UNL     1      -8.061   1.781  62.864  1.00  0.00    -0.055 OA 
HETATM   39  O   UNL     1      -7.376   2.599  64.927  1.00  0.00    -0.064 OA 
HETATM   40  O   UNL     1      -5.998   2.683  63.159  1.00  0.00    -0.009 OA 
ENDBRANCH  27  30
ENDBRANCH  26  27
ENDBRANCH  25  26
ENDBRANCH  18  25
ENDBRANCH  11  16
BRANCH  14  41
HETATM   41  S   UNL     1      -7.865   8.684  64.909  1.00  0.00    -0.123 SA 
BRANCH  41  42
HETATM   42  C   UNL     1      -6.294   7.999  65.534  1.00  0.00    -0.045 C  
BRANCH  42  43
HETATM   43  C   UNL     1      -5.216   8.229  64.483  1.00  0.00    -0.036 C  
HETATM   44  C   UNL     1      -5.781   8.236  63.080  1.00  0.00    -0.073 C  
HETATM   45  F   UNL     1      -5.456   9.387  62.444  1.00  0.00    -0.083 F  
HETATM   46  F   UNL     1      -7.123   8.120  63.050  1.00  0.00    -0.082 F  
HETATM   47  F   UNL     1      -5.266   7.222  62.350  1.00  0.00    -0.033 F  
ENDBRANCH  42  43
ENDBRANCH  41  42
ENDBRANCH  14  41
ENDBRANCH   5   7
ENDBRANCH   4   5
ENDBRANCH   3   4
ENDBRANCH   2   3
TORSDOF 12
ENDMDL
MODEL      239
REMARK 921   NORMALIZED FREE ENERGY PREDICTED BY IDOCK:    4.66 KCAL/MOL
REMARK 922        TOTAL FREE ENERGY PREDICTED BY IDOCK:    6.92 KCAL/MOL
REMARK 923 INTER-LIGAND FREE ENERGY PREDICTED BY IDOCK:    1.98 KCAL/MOL
REMARK 924 INTRA-LIGAND FREE ENERGY PREDICTED BY IDOCK:    4.94 KCAL/MOL
REMARK 927      BINDING AFFINITY PREDICTED BY RF-SCORE:    0.00 PKD
ROOT
HETATM    1  C   UNL     1     -11.025   5.407  66.384  1.00  0.00    -0.007 C  
HETATM    2  S   UNL     1     -10.892   6.244  67.980  1.00  0.00    -0.321 SA 
ENDROOT
BRANCH   2   3
HETATM    3  C   UNL     1     -10.743   7.977  67.403  1.00  0.00    -0.190 C  
BRANCH   3   4
HETATM    4  C   UNL     1     -11.123   8.989  68.505  1.00  0.00     0.212 C  
BRANCH   4   5
HETATM    5  N   UNL     1      -9.969   9.775  68.904  1.00  0.00    -0.168 NA 
HETATM    6  H   UNL     1      -9.579   9.657  69.839  1.00  0.00     0.000 HD 
BRANCH   5   7
HETATM    7  C   UNL     1      -9.390  10.682  68.034  1.00  0.00    -0.147 A  
HETATM    8  C   UNL     1     -10.188  11.595  67.327  1.00  0.00    -0.201 A  
HETATM    9  N   UNL     1     -11.549  11.833  67.339  1.00  0.00    -0.521 NA 
HETATM   10  C   UNL     1     -11.719  12.870  66.533  1.00  0.00    -0.393 A  
HETATM   11  N   UNL     1     -10.529  13.291  65.978  1.00  0.00    -0.281 NA 
HETATM   12  C   UNL     1      -9.546  12.486  66.480  1.00  0.00    -0.242 A  
HETATM   13  N   UNL     1      -8.042  10.722  67.826  1.00  0.00    -0.110 NA 
HETATM   14  C   UNL     1      -7.550  11.611  66.939  1.00  0.00    -0.138 A  
HETATM   15  N   UNL     1      -8.236  12.543  66.235  1.00  0.00     0.355 NA 
BRANCH  11  16
HETATM   16  C   UNL     1     -10.385  14.498  65.193  1.00  0.00    -0.411 C  
HETATM   17  O   UNL     1      -9.046  14.974  65.372  1.00  0.00     0.243 OA 
HETATM   18  C   UNL     1      -9.051  16.109  66.254  1.00  0.00    -0.338 C  
HETATM   19  H   UNL     1     -11.974  17.273  64.415  1.00  0.00     0.000 HD 
HETATM   20  O   UNL     1     -11.422  16.517  64.252  1.00  0.00    -1.000 OA 
HETATM   21  C   UNL     1     -10.499  16.539  66.464  1.00  0.00    -0.270 C  
HETATM   22  H   UNL     1     -11.523  18.215  66.355  1.00  0.00     0.000 HD 
HETATM   23  C   UNL     1     -11.278  15.721  65.455  1.00  0.00    -0.093 C  
HETATM   24  O   UNL     1     -10.621  17.947  66.224  1.00  0.00    -0.335 OA 
BRANCH  18  25
HETATM   25  C   UNL     1      -8.359  15.804  67.584  1.00  0.00    -0.157 C  
BRANCH  25  26
HETATM   26  O   UNL     1      -7.138  16.545  67.581  1.00  0.00    -0.119 OA 
BRANCH  26  27
HETATM   27  P   UNL     1      -6.839  17.363  66.233  1.00  0.00    -0.193 P  
HETATM   28  O   UNL     1      -5.350  16.797  65.958  1.00  0.00    -0.159 OA 
HETATM   29  O   UNL     1      -7.780  17.130  65.088  1.00  0.00     1.063 OA 
BRANCH  27  30
HETATM   30  O   UNL     1      -6.766  18.920  66.722  1.00  0.00    -0.189 OA 
HETATM   31  P   UNL     1      -7.253  19.244  68.349  1.00  0.00    -0.328 P  
HETATM   32  C   UNL     1      -7.768  19.586  70.072  1.00  0.00     0.623 C  
HETATM   33  O   UNL     1      -8.817  19.171  67.826  1.00  0.00    -0.290 OA 
HETATM   34  O   UNL     1      -6.846  17.820  68.809  1.00  0.00    -0.227 OA 
HETATM   35 CL   UNL     1      -9.005  18.391  70.691  1.00  0.00     3.720 Cl 
HETATM   36  P   UNL     1      -6.347  19.328  71.196  1.00  0.00     0.934 P  
HETATM   37 CL   UNL     1      -8.584  21.186  70.116  1.00  0.00     3.628 Cl 
HETATM   38  O   UNL     1      -6.106  20.966  71.259  1.00  0.00    -0.384 OA 
HETATM   39  O   UNL     1      -5.295  19.256  69.914  1.00  0.00    -0.196 OA 
HETATM   40  O   UNL     1      -5.145  19.111  72.148  1.00  0.00    -0.742 OA 
ENDBRANCH  27  30
ENDBRANCH  26  27
ENDBRANCH  25  26
ENDBRANCH  18  25
ENDBRANCH  11  16
BRANCH  14  41
HETATM   41  S   UNL     1      -5.801  11.594  66.611  1.00  0.00    -0.031 SA 
BRANCH  41  42
HETATM   42  C   UNL     1      -5.675  10.099  65.572  1.00  0.00    -0.081 C  
BRANCH  42  43
HETATM   43  C   UNL     1      -6.888  10.047  64.653  1.00  0.00    -0.130 C  
HETATM   44  C   UNL     1      -7.332   8.628  64.376  1.00  0.00    -0.103 C  
HETATM   45  F   UNL     1      -8.635   8.465  64.709  1.00  0.00    -0.174 F  
HETATM   46  F   UNL     1      -6.620   7.710  65.058  1.00  0.00    -0.042 F  
HETATM   47  F   UNL     1      -7.220   8.339  63.061  1.00  0.00    -0.089 F  
ENDBRANCH  42  43
ENDBRANCH  41  42
ENDBRANCH  14  41
ENDBRANCH   5   7
ENDBRANCH   4   5
ENDBRANCH   3   4
ENDBRANCH   2   3
TORSDOF 12
ENDMDL
MODEL      240
REMARK 921   NORMALIZED FREE ENERGY PREDICTED BY IDOCK:    4.74 KCAL/MOL
REMARK 922        TOTAL FREE ENERGY PREDICTED BY IDOCK:    7.06 KCAL/MOL
REMARK 923 INTER-LIGAND FREE ENERGY PREDICTED BY IDOCK:    0.23 KCAL/MOL
REMARK 924 INTRA-LIGAND FREE ENERGY PREDICTED BY IDOCK:    6.82 KCAL/MOL
REMARK 927      BINDING AFFINITY PREDICTED BY RF-SCORE:    0.00 PKD
ROOT
HETATM    1  C   UNL     1      -7.306  12.253  65.264  1.00  0.00     3.667 C  
HETATM    2  S   UNL     1      -7.738  10.596  65.841  1.00  0.00    -0.119 SA 
ENDROOT
BRANCH   2   3
HETATM    3  C   UNL     1      -7.316   9.632  64.340  1.00  0.00    -0.125 C  
BRANCH   3   4
HETATM    4  C   UNL     1      -6.198   8.602  64.609  1.00  0.00    -0.066 C  
BRANCH   4   5
HETATM    5  N   UNL     1      -6.741   7.256  64.669  1.00  0.00    -0.043 NA 
HETATM    6  H   UNL     1      -6.856   6.722  63.809  1.00  0.00     0.000 HD 
BRANCH   5   7
HETATM    7  C   UNL     1      -7.104   6.690  65.878  1.00  0.00    -0.062 A  
HETATM    8  C   UNL     1      -8.143   7.247  66.640  1.00  0.00    -0.113 A  
HETATM    9  N   UNL     1      -8.987   8.316  66.406  1.00  0.00    -0.157 NA 
HETATM   10  C   UNL     1      -9.823   8.319  67.433  1.00  0.00    -0.188 A  
HETATM   11  N   UNL     1      -9.535   7.315  68.334  1.00  0.00    -0.142 NA 
HETATM   12  C   UNL     1      -8.467   6.625  67.836  1.00  0.00    -0.119 A  
HETATM   13  N   UNL     1      -6.473   5.587  66.376  1.00  0.00    -0.046 NA 
HETATM   14  C   UNL     1      -6.858   5.107  67.576  1.00  0.00    -0.057 A  
HETATM   15  N   UNL     1      -7.862   5.560  68.365  1.00  0.00    -0.088 NA 
BRANCH  11  16
HETATM   16  C   UNL     1     -10.376   6.975  69.461  1.00  0.00    -0.213 C  
HETATM   17  O   UNL     1     -11.632   7.641  69.280  1.00  0.00     0.358 OA 
HETATM   18  C   UNL     1     -11.711   8.771  70.164  1.00  0.00     0.165 C  
HETATM   19  H   UNL     1     -10.287   6.610  72.730  1.00  0.00     0.000 HD 
HETATM   20  O   UNL     1     -10.551   6.398  71.843  1.00  0.00    -0.207 OA 
HETATM   21  C   UNL     1     -10.543   8.690  71.141  1.00  0.00    -0.228 C  
HETATM   22  H   UNL     1     -10.302   8.784  73.091  1.00  0.00     0.000 HD 
HETATM   23  C   UNL     1      -9.950   7.318  70.897  1.00  0.00    -0.185 C  
HETATM   24  O   UNL     1     -11.029   8.834  72.483  1.00  0.00    -0.258 OA 
BRANCH  18  25
HETATM   25  C   UNL     1     -11.710  10.096  69.400  1.00  0.00    -0.028 C  
BRANCH  25  26
HETATM   26  O   UNL     1     -11.257  11.090  70.320  1.00  0.00    -0.256 OA 
BRANCH  26  27
HETATM   27  P   UNL     1     -11.071  12.559  69.702  1.00  0.00     0.348 P  
HETATM   28  O   UNL     1     -11.299  13.401  71.063  1.00  0.00     0.770 OA 
HETATM   29  O   UNL     1      -9.752  12.844  69.046  1.00  0.00     0.119 OA 
BRANCH  27  30
HETATM   30  O   UNL     1     -12.356  12.739  68.709  1.00  0.00    -0.059 OA 
HETATM   31  P   UNL     1     -12.073  13.577  67.222  1.00  0.00    -0.170 P  
HETATM   32  C   UNL     1     -11.773  14.463  65.649  1.00  0.00    -0.356 C  
HETATM   33  O   UNL     1     -12.160  14.987  68.077  1.00  0.00    -0.230 OA 
HETATM   34  O   UNL     1     -10.586  13.136  67.196  1.00  0.00    -0.255 OA 
HETATM   35 CL   UNL     1     -10.413  15.679  65.770  1.00  0.00    -0.357 Cl 
HETATM   36  P   UNL     1     -11.161  13.283  64.391  1.00  0.00    -0.376 P  
HETATM   37 CL   UNL     1     -13.238  15.421  65.248  1.00  0.00     1.208 Cl 
HETATM   38  O   UNL     1     -12.675  13.220  63.721  1.00  0.00    -0.686 OA 
HETATM   39  O   UNL     1     -11.567  11.989  65.350  1.00  0.00    -0.343 OA 
HETATM   40  O   UNL     1     -10.643  12.285  63.327  1.00  0.00    -0.421 OA 
ENDBRANCH  27  30
ENDBRANCH  26  27
ENDBRANCH  25  26
ENDBRANCH  18  25
ENDBRANCH  11  16
BRANCH  14  41
HETATM   41  S   UNL     1      -5.970   3.722  68.254  1.00  0.00    -0.028 SA 
BRANCH  41  42
HETATM   42  C   UNL     1      -6.038   4.125  70.033  1.00  0.00    -0.019 C  
BRANCH  42  43
HETATM   43  C   UNL     1      -7.222   3.391  70.648  1.00  0.00    -0.037 C  
HETATM   44  C   UNL     1      -8.269   3.034  69.617  1.00  0.00    -0.047 C  
HETATM   45  F   UNL     1      -8.518   1.703  69.635  1.00  0.00    -0.058 F  
HETATM   46  F   UNL     1      -7.908   3.363  68.361  1.00  0.00    -0.059 F  
HETATM   47  F   UNL     1      -9.438   3.659  69.884  1.00  0.00    -0.204 F  
ENDBRANCH  42  43
ENDBRANCH  41  42
ENDBRANCH  14  41
ENDBRANCH   5   7
ENDBRANCH   4   5
ENDBRANCH   3   4
ENDBRANCH   2   3
TORSDOF 12
ENDMDL
MODEL      241
REMARK 921   NORMALIZED FREE ENERGY PREDICTED BY IDOCK:    4.97 KCAL/MOL
REMARK 922        TOTAL FREE ENERGY PREDICTED BY IDOCK:    7.44 KCAL/MOL
REMARK 923 INTER-LIGAND FREE ENERGY PREDICTED BY IDOCK:   -3.51 KCAL/MOL
REMARK 924 INTRA-LIGAND FREE ENERGY PREDICTED BY IDOCK:   10.95 KCAL/MOL
REMARK 927      BINDING AFFINITY PREDICTED BY RF-SCORE:    0.00 PKD
ROOT
HETATM    1  C   UNL     1      -5.606   9.226  72.122  1.00  0.00    -0.063 C  
HETATM    2  S   UNL     1      -5.509   7.917  70.880  1.00  0.00    -0.030 SA 
ENDROOT
BRANCH   2   3
HETATM    3  C   UNL     1      -5.889   6.468  71.937  1.00  0.00    -0.037 C  
BRANCH   3   4
HETATM    4  C   UNL     1      -7.402   6.335  72.214  1.00  0.00    -0.092 C  
BRANCH   4   5
HETATM    5  N   UNL     1      -8.145   6.212  70.972  1.00  0.00    -0.119 NA 
HETATM    6  H   UNL     1      -8.219   5.302  70.518  1.00  0.00     0.000 HD 
BRANCH   5   7
HETATM    7  C   UNL     1      -8.754   7.313  70.396  1.00  0.00    -0.146 A  
HETATM    8  C   UNL     1      -9.990   7.773  70.878  1.00  0.00    -0.183 A  
HETATM    9  N   UNL     1     -10.788   7.351  71.923  1.00  0.00    -0.226 NA 
HETATM   10  C   UNL     1     -11.789   8.216  71.956  1.00  0.00    -0.338 A  
HETATM   11  N   UNL     1     -11.686   9.161  70.957  1.00  0.00    -0.289 NA 
HETATM   12  C   UNL     1     -10.541   8.889  70.265  1.00  0.00    -0.218 A  
HETATM   13  N   UNL     1      -8.191   7.982  69.348  1.00  0.00    -0.121 NA 
HETATM   14  C   UNL     1      -8.856   9.027  68.815  1.00  0.00    -0.137 A  
HETATM   15  N   UNL     1     -10.032   9.557  69.228  1.00  0.00    -0.178 NA 
BRANCH  11  16
HETATM   16  C   UNL     1     -12.543  10.322  70.852  1.00  0.00    -0.371 C  
HETATM   17  O   UNL     1     -13.136  10.306  69.547  1.00  0.00     0.222 OA 
HETATM   18  C   UNL     1     -12.496  11.287  68.714  1.00  0.00     0.465 C  
HETATM   19  H   UNL     1     -12.644  13.529  71.584  1.00  0.00     0.000 HD 
HETATM   20  O   UNL     1     -12.996  12.653  71.486  1.00  0.00    -0.375 OA 
HETATM   21  C   UNL     1     -11.604  12.150  69.600  1.00  0.00    -0.291 C  
HETATM   22  H   UNL     1     -11.325  14.074  69.905  1.00  0.00     0.000 HD 
HETATM   23  C   UNL     1     -11.974  11.741  71.011  1.00  0.00     0.131 C  
HETATM   24  O   UNL     1     -11.880  13.536  69.353  1.00  0.00    -0.296 OA 
BRANCH  18  25
HETATM   25  C   UNL     1     -11.700  10.641  67.579  1.00  0.00     0.452 C  
BRANCH  25  26
HETATM   26  O   UNL     1     -11.591  11.628  66.553  1.00  0.00    -0.473 OA 
BRANCH  26  27
HETATM   27  P   UNL     1     -11.869  13.136  67.023  1.00  0.00    -0.320 P  
HETATM   28  O   UNL     1     -12.161  13.771  65.566  1.00  0.00    -0.364 OA 
HETATM   29  O   UNL     1     -12.999  13.336  67.990  1.00  0.00     1.138 OA 
BRANCH  27  30
HETATM   30  O   UNL     1     -10.423  13.652  67.581  1.00  0.00    -0.235 OA 
HETATM   31  P   UNL     1      -9.879  15.193  67.013  1.00  0.00    -0.241 P  
HETATM   32  C   UNL     1      -9.305  16.823  66.412  1.00  0.00    -0.278 C  
HETATM   33  O   UNL     1      -9.409  14.440  65.621  1.00  0.00    -0.111 OA 
HETATM   34  O   UNL     1     -11.335  15.689  66.808  1.00  0.00    -0.163 OA 
HETATM   35 CL   UNL     1      -9.951  17.233  64.751  1.00  0.00     1.776 Cl 
HETATM   36  P   UNL     1     -10.009  18.144  67.465  1.00  0.00    -0.367 P  
HETATM   37 CL   UNL     1      -7.519  16.767  66.231  1.00  0.00    -0.299 Cl 
HETATM   38  O   UNL     1      -8.565  18.265  68.269  1.00  0.00    -0.271 OA 
HETATM   39  O   UNL     1     -10.506  17.033  68.595  1.00  0.00    -0.320 OA 
HETATM   40  O   UNL     1     -10.603  19.262  68.356  1.00  0.00    -0.303 OA 
ENDBRANCH  27  30
ENDBRANCH  26  27
ENDBRANCH  25  26
ENDBRANCH  18  25
ENDBRANCH  11  16
BRANCH  14  41
HETATM   41  S   UNL     1      -8.153   9.837  67.395  1.00  0.00    -0.114 SA 
BRANCH  41  42
HETATM   42  C   UNL     1      -8.187  11.573  67.956  1.00  0.00    -0.143 C  
BRANCH  42  43
HETATM   43  C   UNL     1      -7.468  11.661  69.296  1.00  0.00     0.073 C  
HETATM   44  C   UNL     1      -6.011  12.035  69.136  1.00  0.00    -0.074 C  
HETATM   45  F   UNL     1      -5.722  13.138  69.867  1.00  0.00    -0.087 F  
HETATM   46  F   UNL     1      -5.668  12.292  67.859  1.00  0.00    -0.052 F  
HETATM   47  F   UNL     1      -5.210  11.042  69.584  1.00  0.00    -0.041 F  
ENDBRANCH  42  43
ENDBRANCH  41  42
ENDBRANCH  14  41
ENDBRANCH   5   7
ENDBRANCH   4   5
ENDBRANCH   3   4
ENDBRANCH   2   3
TORSDOF 12
ENDMDL
MODEL      242
REMARK 921   NORMALIZED FREE ENERGY PREDICTED BY IDOCK:    5.31 KCAL/MOL
REMARK 922        TOTAL FREE ENERGY PREDICTED BY IDOCK:    8.03 KCAL/MOL
REMARK 923 INTER-LIGAND FREE ENERGY PREDICTED BY IDOCK:    7.44 KCAL/MOL
REMARK 924 INTRA-LIGAND FREE ENERGY PREDICTED BY IDOCK:    0.59 KCAL/MOL
REMARK 927      BINDING AFFINITY PREDICTED BY RF-SCORE:    0.00 PKD
ROOT
HETATM    1  C   UNL     1      -9.456  20.681  67.476  1.00  0.00    -0.339 C  
HETATM    2  S   UNL     1      -9.923  18.962  67.171  1.00  0.00    -0.354 SA 
ENDROOT
BRANCH   2   3
HETATM    3  C   UNL     1      -9.107  18.710  65.549  1.00  0.00     1.082 C  
BRANCH   3   4
HETATM    4  C   UNL     1      -7.801  17.897  65.679  1.00  0.00     0.297 C  
BRANCH   4   5
HETATM    5  N   UNL     1      -8.059  16.477  65.520  1.00  0.00     0.503 NA 
HETATM    6  H   UNL     1      -7.437  15.914  64.941  1.00  0.00     0.000 HD 
BRANCH   5   7
HETATM    7  C   UNL     1      -9.139  15.876  66.144  1.00  0.00    -0.350 A  
HETATM    8  C   UNL     1      -9.009  15.352  67.440  1.00  0.00    -0.191 A  
HETATM    9  N   UNL     1      -7.950  15.337  68.326  1.00  0.00    -0.128 NA 
HETATM   10  C   UNL     1      -8.436  14.784  69.426  1.00  0.00     0.016 A  
HETATM   11  N   UNL     1      -9.757  14.414  69.276  1.00  0.00    -0.001 NA 
HETATM   12  C   UNL     1     -10.132  14.775  68.014  1.00  0.00    -0.218 A  
HETATM   13  N   UNL     1     -10.354  15.765  65.532  1.00  0.00    -0.381 NA 
HETATM   14  C   UNL     1     -11.353  15.139  66.187  1.00  0.00    -0.220 A  
HETATM   15  N   UNL     1     -11.328  14.629  67.441  1.00  0.00    -0.342 NA 
BRANCH  11  16
HETATM   16  C   UNL     1     -10.591  13.940  70.359  1.00  0.00     1.277 C  
HETATM   17  O   UNL     1      -9.865  12.916  71.048  1.00  0.00     6.609 OA 
HETATM   18  C   UNL     1     -10.399  11.628  70.700  1.00  0.00     3.312 C  
HETATM   19  H   UNL     1     -13.704  13.124  71.050  1.00  0.00     0.000 HD 
HETATM   20  O   UNL     1     -12.850  13.503  71.222  1.00  0.00    -0.346 OA 
HETATM   21  C   UNL     1     -11.696  11.846  69.929  1.00  0.00    -0.308 C  
HETATM   22  H   UNL     1     -13.545  11.180  70.025  1.00  0.00     0.000 HD 
HETATM   23  C   UNL     1     -11.973  13.328  70.081  1.00  0.00    -0.318 C  
HETATM   24  O   UNL     1     -12.737  11.044  70.504  1.00  0.00    -0.302 OA 
BRANCH  18  25
HETATM   25  C   UNL     1      -9.402  10.795  69.891  1.00  0.00     0.604 C  
BRANCH  25  26
HETATM   26  O   UNL     1      -9.014   9.707  70.730  1.00  0.00    -0.187 OA 
BRANCH  26  27
HETATM   27  P   UNL     1      -8.702   8.332  69.965  1.00  0.00    -0.136 P  
HETATM   28  O   UNL     1      -9.905   7.453  70.591  1.00  0.00    -0.180 OA 
HETATM   29  O   UNL     1      -8.727   8.382  68.466  1.00  0.00    -0.135 OA 
BRANCH  27  30
HETATM   30  O   UNL     1      -7.271   7.847  70.586  1.00  0.00    -0.052 OA 
HETATM   31  P   UNL     1      -7.195   6.225  71.181  1.00  0.00    -0.081 P  
HETATM   32  C   UNL     1      -7.116   4.508  71.811  1.00  0.00    -0.055 C  
HETATM   33  O   UNL     1      -7.945   6.763  72.550  1.00  0.00    -0.101 OA 
HETATM   34  O   UNL     1      -8.299   5.757  70.196  1.00  0.00    -0.113 OA 
HETATM   35 CL   UNL     1      -8.734   3.897  72.406  1.00  0.00    -0.111 Cl 
HETATM   36  P   UNL     1      -6.728   3.370  70.431  1.00  0.00    -0.034 P  
HETATM   37 CL   UNL     1      -6.035   4.477  73.244  1.00  0.00    -0.019 Cl 
HETATM   38  O   UNL     1      -5.149   3.310  70.932  1.00  0.00     0.000 OA 
HETATM   39  O   UNL     1      -6.330   4.642  69.441  1.00  0.00    -0.026 OA 
HETATM   40  O   UNL     1      -6.399   2.407  69.264  1.00  0.00    -0.028 OA 
ENDBRANCH  27  30
ENDBRANCH  26  27
ENDBRANCH  25  26
ENDBRANCH  18  25
ENDBRANCH  11  16
BRANCH  14  41
HETATM   41  S   UNL     1     -12.906  14.922  65.345  1.00  0.00     0.535 SA 
BRANCH  41  42
HETATM   42  C   UNL     1     -12.436  13.671  64.104  1.00  0.00    -0.234 C  
BRANCH  42  43
HETATM   43  C   UNL     1     -11.873  12.457  64.832  1.00  0.00    -0.442 C  
HETATM   44  C   UNL     1     -10.363  12.406  64.770  1.00  0.00    -0.299 C  
HETATM   45  F   UNL     1      -9.839  12.340  66.017  1.00  0.00    -0.229 F  
HETATM   46  F   UNL     1      -9.823  13.479  64.159  1.00  0.00    -0.294 F  
HETATM   47  F   UNL     1      -9.947  11.304  64.107  1.00  0.00    -0.245 F  
ENDBRANCH  42  43
ENDBRANCH  41  42
ENDBRANCH  14  41
ENDBRANCH   5   7
ENDBRANCH   4   5
ENDBRANCH   3   4
ENDBRANCH   2   3
TORSDOF 12
ENDMDL
MODEL      243
REMARK 921   NORMALIZED FREE ENERGY PREDICTED BY IDOCK:    5.46 KCAL/MOL
REMARK 922        TOTAL FREE ENERGY PREDICTED BY IDOCK:    8.28 KCAL/MOL
REMARK 923 INTER-LIGAND FREE ENERGY PREDICTED BY IDOCK:    3.29 KCAL/MOL
REMARK 924 INTRA-LIGAND FREE ENERGY PREDICTED BY IDOCK:    4.98 KCAL/MOL
REMARK 927      BINDING AFFINITY PREDICTED BY RF-SCORE:    0.00 PKD
ROOT
HETATM    1  C   UNL     1     -11.025   5.407  66.384  1.00  0.00    -0.007 C  
HETATM    2  S   UNL     1     -10.892   6.244  67.980  1.00  0.00    -0.321 SA 
ENDROOT
BRANCH   2   3
HETATM    3  C   UNL     1     -10.743   7.977  67.403  1.00  0.00    -0.190 C  
BRANCH   3   4
HETATM    4  C   UNL     1     -11.123   8.989  68.505  1.00  0.00     0.212 C  
BRANCH   4   5
HETATM    5  N   UNL     1      -9.969   9.775  68.904  1.00  0.00    -0.168 NA 
HETATM    6  H   UNL     1      -9.579   9.657  69.839  1.00  0.00     0.000 HD 
BRANCH   5   7
HETATM    7  C   UNL     1      -9.390  10.682  68.034  1.00  0.00    -0.147 A  
HETATM    8  C   UNL     1     -10.188  11.595  67.327  1.00  0.00    -0.201 A  
HETATM    9  N   UNL     1     -11.549  11.833  67.339  1.00  0.00    -0.521 NA 
HETATM   10  C   UNL     1     -11.719  12.870  66.533  1.00  0.00    -0.393 A  
HETATM   11  N   UNL     1     -10.529  13.291  65.978  1.00  0.00    -0.281 NA 
HETATM   12  C   UNL     1      -9.546  12.486  66.480  1.00  0.00    -0.242 A  
HETATM   13  N   UNL     1      -8.042  10.722  67.826  1.00  0.00    -0.110 NA 
HETATM   14  C   UNL     1      -7.550  11.611  66.939  1.00  0.00    -0.138 A  
HETATM   15  N   UNL     1      -8.236  12.543  66.235  1.00  0.00     0.355 NA 
BRANCH  11  16
HETATM   16  C   UNL     1     -10.385  14.498  65.193  1.00  0.00    -0.411 C  
HETATM   17  O   UNL     1      -9.046  14.974  65.372  1.00  0.00     0.243 OA 
HETATM   18  C   UNL     1      -9.051  16.109  66.254  1.00  0.00    -0.338 C  
HETATM   19  H   UNL     1     -11.974  17.273  64.415  1.00  0.00     0.000 HD 
HETATM   20  O   UNL     1     -11.422  16.517  64.252  1.00  0.00    -1.000 OA 
HETATM   21  C   UNL     1     -10.499  16.539  66.464  1.00  0.00    -0.270 C  
HETATM   22  H   UNL     1     -11.523  18.215  66.355  1.00  0.00     0.000 HD 
HETATM   23  C   UNL     1     -11.278  15.721  65.455  1.00  0.00    -0.093 C  
HETATM   24  O   UNL     1     -10.621  17.947  66.224  1.00  0.00    -0.335 OA 
BRANCH  18  25
HETATM   25  C   UNL     1      -8.359  15.804  67.584  1.00  0.00    -0.157 C  
BRANCH  25  26
HETATM   26  O   UNL     1      -7.138  16.545  67.581  1.00  0.00    -0.119 OA 
BRANCH  26  27
HETATM   27  P   UNL     1      -6.839  17.363  66.233  1.00  0.00    -0.193 P  
HETATM   28  O   UNL     1      -5.350  16.797  65.958  1.00  0.00    -0.159 OA 
HETATM   29  O   UNL     1      -7.780  17.130  65.088  1.00  0.00     1.063 OA 
BRANCH  27  30
HETATM   30  O   UNL     1      -6.766  18.920  66.722  1.00  0.00    -0.189 OA 
HETATM   31  P   UNL     1      -7.253  19.244  68.349  1.00  0.00    -0.328 P  
HETATM   32  C   UNL     1      -7.768  19.586  70.072  1.00  0.00     0.623 C  
HETATM   33  O   UNL     1      -8.817  19.171  67.826  1.00  0.00    -0.290 OA 
HETATM   34  O   UNL     1      -6.846  17.820  68.809  1.00  0.00    -0.227 OA 
HETATM   35 CL   UNL     1      -9.005  18.391  70.691  1.00  0.00     3.720 Cl 
HETATM   36  P   UNL     1      -6.347  19.328  71.196  1.00  0.00     0.934 P  
HETATM   37 CL   UNL     1      -8.584  21.186  70.116  1.00  0.00     3.628 Cl 
HETATM   38  O   UNL     1      -6.106  20.966  71.259  1.00  0.00    -0.384 OA 
HETATM   39  O   UNL     1      -5.295  19.256  69.914  1.00  0.00    -0.196 OA 
HETATM   40  O   UNL     1      -5.145  19.111  72.148  1.00  0.00    -0.742 OA 
ENDBRANCH  27  30
ENDBRANCH  26  27
ENDBRANCH  25  26
ENDBRANCH  18  25
ENDBRANCH  11  16
BRANCH  14  41
HETATM   41  S   UNL     1      -5.801  11.594  66.611  1.00  0.00    -0.031 SA 
BRANCH  41  42
HETATM   42  C   UNL     1      -5.183  12.487  68.078  1.00  0.00    -0.078 C  
BRANCH  42  43
HETATM   43  C   UNL     1      -6.002  12.053  69.287  1.00  0.00    -0.081 C  
HETATM   44  C   UNL     1      -6.182  13.175  70.285  1.00  0.00    -0.004 C  
HETATM   45  F   UNL     1      -7.498  13.383  70.531  1.00  0.00     1.122 F  
HETATM   46  F   UNL     1      -5.657  14.343  69.867  1.00  0.00    -0.092 F  
HETATM   47  F   UNL     1      -5.603  12.864  71.466  1.00  0.00    -0.171 F  
ENDBRANCH  42  43
ENDBRANCH  41  42
ENDBRANCH  14  41
ENDBRANCH   5   7
ENDBRANCH   4   5
ENDBRANCH   3   4
ENDBRANCH   2   3
TORSDOF 12
ENDMDL
MODEL      244
REMARK 921   NORMALIZED FREE ENERGY PREDICTED BY IDOCK:    5.90 KCAL/MOL
REMARK 922        TOTAL FREE ENERGY PREDICTED BY IDOCK:    9.03 KCAL/MOL
REMARK 923 INTER-LIGAND FREE ENERGY PREDICTED BY IDOCK:    3.93 KCAL/MOL
REMARK 924 INTRA-LIGAND FREE ENERGY PREDICTED BY IDOCK:    5.10 KCAL/MOL
REMARK 927      BINDING AFFINITY PREDICTED BY RF-SCORE:    0.00 PKD
ROOT
HETATM    1  C   UNL     1      -6.395  20.076  71.800  1.00  0.00     0.030 C  
HETATM    2  S   UNL     1      -6.639  18.792  70.552  1.00  0.00     0.897 SA 
ENDROOT
BRANCH   2   3
HETATM    3  C   UNL     1      -8.426  18.467  70.795  1.00  0.00     5.016 C  
BRANCH   3   4
HETATM    4  C   UNL     1      -9.067  17.803  69.558  1.00  0.00     0.628 C  
BRANCH   4   5
HETATM    5  N   UNL     1      -8.112  16.942  68.882  1.00  0.00    -0.244 NA 
HETATM    6  H   UNL     1      -7.336  17.358  68.368  1.00  0.00     0.000 HD 
BRANCH   5   7
HETATM    7  C   UNL     1      -8.241  15.565  68.925  1.00  0.00    -0.201 A  
HETATM    8  C   UNL     1      -7.102  14.744  68.892  1.00  0.00    -0.118 A  
HETATM    9  N   UNL     1      -5.753  15.039  68.861  1.00  0.00    -0.089 NA 
HETATM   10  C   UNL     1      -5.147  13.864  68.929  1.00  0.00    -0.073 A  
HETATM   11  N   UNL     1      -6.049  12.821  68.972  1.00  0.00    -0.083 NA 
HETATM   12  C   UNL     1      -7.299  13.372  68.951  1.00  0.00    -0.033 A  
HETATM   13  N   UNL     1      -9.461  14.957  68.994  1.00  0.00    -0.211 NA 
HETATM   14  C   UNL     1      -9.513  13.609  69.000  1.00  0.00     0.260 A  
HETATM   15  N   UNL     1      -8.473  12.741  68.999  1.00  0.00     0.340 NA 
BRANCH  11  16
HETATM   16  C   UNL     1      -5.681  11.443  69.213  1.00  0.00    -0.051 C  
HETATM   17  O   UNL     1      -5.423  10.835  67.942  1.00  0.00    -0.040 OA 
HETATM   18  C   UNL     1      -6.525   9.985  67.581  1.00  0.00    -0.063 C  
HETATM   19  H   UNL     1      -6.508   8.833  71.039  1.00  0.00     0.000 HD 
HETATM   20  O   UNL     1      -5.912   9.428  70.600  1.00  0.00    -0.047 OA 
HETATM   21  C   UNL     1      -7.435   9.849  68.797  1.00  0.00    -0.079 C  
HETATM   22  H   UNL     1      -8.272   8.377  69.799  1.00  0.00     0.000 HD 
HETATM   23  C   UNL     1      -6.645  10.481  69.924  1.00  0.00    -0.130 C  
HETATM   24  O   UNL     1      -7.705   8.462  69.041  1.00  0.00    -0.093 OA 
BRANCH  18  25
HETATM   25  C   UNL     1      -7.287  10.521  66.368  1.00  0.00    -0.129 C  
BRANCH  25  26
HETATM   26  O   UNL     1      -8.068   9.433  65.872  1.00  0.00    -0.111 OA 
BRANCH  26  27
HETATM   27  P   UNL     1      -9.657   9.651  65.928  1.00  0.00    -0.285 P  
HETATM   28  O   UNL     1      -9.705  10.576  67.252  1.00  0.00    -0.164 OA 
HETATM   29  O   UNL     1     -10.284  10.301  64.731  1.00  0.00    -0.329 OA 
BRANCH  27  30
HETATM   30  O   UNL     1     -10.249   8.165  66.260  1.00  0.00    -0.168 OA 
HETATM   31  P   UNL     1      -9.158   6.836  66.071  1.00  0.00     0.068 P  
HETATM   32  C   UNL     1      -8.002   5.431  65.871  1.00  0.00    -0.106 C  
HETATM   33  O   UNL     1      -9.447   6.915  64.448  1.00  0.00     1.656 OA 
HETATM   34  O   UNL     1      -7.930   7.736  66.372  1.00  0.00    -0.095 OA 
HETATM   35 CL   UNL     1      -6.716   5.747  64.611  1.00  0.00    -0.045 Cl 
HETATM   36  P   UNL     1      -7.030   5.218  67.407  1.00  0.00    -0.067 P  
HETATM   37 CL   UNL     1      -8.926   4.015  65.268  1.00  0.00    -0.126 Cl 
HETATM   38  O   UNL     1      -8.013   3.959  67.848  1.00  0.00    -0.083 OA 
HETATM   39  O   UNL     1      -8.036   6.249  68.234  1.00  0.00    -0.106 OA 
HETATM   40  O   UNL     1      -6.208   5.036  68.707  1.00  0.00    -0.028 OA 
ENDBRANCH  27  30
ENDBRANCH  26  27
ENDBRANCH  25  26
ENDBRANCH  18  25
ENDBRANCH  11  16
BRANCH  14  41
HETATM   41  S   UNL     1     -11.112  12.828  69.002  1.00  0.00    -0.201 SA 
BRANCH  41  42
HETATM   42  C   UNL     1     -10.625  11.082  69.217  1.00  0.00    -0.201 C  
BRANCH  42  43
HETATM   43  C   UNL     1     -10.901  10.680  70.660  1.00  0.00     0.228 C  
HETATM   44  C   UNL     1     -12.365  10.386  70.900  1.00  0.00    -0.381 C  
HETATM   45  F   UNL     1     -12.522   9.143  71.412  1.00  0.00    -0.320 F  
HETATM   46  F   UNL     1     -13.109  10.460  69.779  1.00  0.00    -0.204 F  
HETATM   47  F   UNL     1     -12.888  11.253  71.796  1.00  0.00    -0.487 F  
ENDBRANCH  42  43
ENDBRANCH  41  42
ENDBRANCH  14  41
ENDBRANCH   5   7
ENDBRANCH   4   5
ENDBRANCH   3   4
ENDBRANCH   2   3
TORSDOF 12
ENDMDL
MODEL      245
REMARK 921   NORMALIZED FREE ENERGY PREDICTED BY IDOCK:    6.41 KCAL/MOL
REMARK 922        TOTAL FREE ENERGY PREDICTED BY IDOCK:    9.90 KCAL/MOL
REMARK 923 INTER-LIGAND FREE ENERGY PREDICTED BY IDOCK:    3.35 KCAL/MOL
REMARK 924 INTRA-LIGAND FREE ENERGY PREDICTED BY IDOCK:    6.54 KCAL/MOL
REMARK 927      BINDING AFFINITY PREDICTED BY RF-SCORE:    0.00 PKD
ROOT
HETATM    1  C   UNL     1     -11.888   7.452  69.042  1.00  0.00     1.184 C  
HETATM    2  S   UNL     1     -11.177   8.947  69.766  1.00  0.00     0.089 SA 
ENDROOT
BRANCH   2   3
HETATM    3  C   UNL     1      -9.460   8.799  69.144  1.00  0.00    -0.157 C  
BRANCH   3   4
HETATM    4  C   UNL     1      -8.885  10.163  68.703  1.00  0.00    -0.136 C  
BRANCH   4   5
HETATM    5  N   UNL     1      -9.910  11.191  68.742  1.00  0.00    -0.225 NA 
HETATM    6  H   UNL     1     -10.889  10.930  68.627  1.00  0.00     0.000 HD 
BRANCH   5   7
HETATM    7  C   UNL     1      -9.577  12.521  68.931  1.00  0.00     0.226 A  
HETATM    8  C   UNL     1      -8.357  13.022  68.450  1.00  0.00    -0.118 A  
HETATM    9  N   UNL     1      -7.338  12.432  67.728  1.00  0.00    -0.110 NA 
HETATM   10  C   UNL     1      -6.483  13.413  67.485  1.00  0.00    -0.118 A  
HETATM   11  N   UNL     1      -6.893  14.604  68.046  1.00  0.00    -0.126 NA 
HETATM   12  C   UNL     1      -8.088  14.366  68.661  1.00  0.00    -0.146 A  
HETATM   13  N   UNL     1     -10.404  13.384  69.589  1.00  0.00     0.547 NA 
HETATM   14  C   UNL     1     -10.000  14.659  69.765  1.00  0.00     0.226 A  
HETATM   15  N   UNL     1      -8.860  15.236  69.316  1.00  0.00    -0.243 NA 
BRANCH  11  16
HETATM   16  C   UNL     1      -6.246  15.876  67.805  1.00  0.00    -0.145 C  
HETATM   17  O   UNL     1      -6.822  16.832  68.703  1.00  0.00    -0.158 OA 
HETATM   18  C   UNL     1      -7.724  17.688  67.983  1.00  0.00    -0.232 C  
HETATM   19  H   UNL     1      -5.194  17.815  65.362  1.00  0.00     0.000 HD 
HETATM   20  O   UNL     1      -5.156  17.402  66.217  1.00  0.00    -0.171 OA 
HETATM   21  C   UNL     1      -7.537  17.425  66.493  1.00  0.00    -0.282 C  
HETATM   22  H   UNL     1      -7.229  18.507  64.878  1.00  0.00     0.000 HD 
HETATM   23  C   UNL     1      -6.307  16.544  66.423  1.00  0.00     0.443 C  
HETATM   24  O   UNL     1      -7.346  18.670  65.806  1.00  0.00    -0.435 OA 
BRANCH  18  25
HETATM   25  C   UNL     1      -9.178  17.476  68.410  1.00  0.00    -0.279 C  
BRANCH  25  26
HETATM   26  O   UNL     1      -9.851  16.920  67.280  1.00  0.00    -0.253 OA 
BRANCH  26  27
HETATM   27  P   UNL     1     -11.283  17.565  66.952  1.00  0.00     1.076 P  
HETATM   28  O   UNL     1     -12.072  17.025  68.256  1.00  0.00     0.828 OA 
HETATM   29  O   UNL     1     -11.326  19.058  66.814  1.00  0.00     0.133 OA 
BRANCH  27  30
HETATM   30  O   UNL     1     -11.785  16.763  65.620  1.00  0.00     0.921 OA 
HETATM   31  P   UNL     1     -11.076  15.211  65.339  1.00  0.00    -0.338 P  
HETATM   32  C   UNL     1     -10.326  13.568  65.043  1.00  0.00    -0.362 C  
HETATM   33  O   UNL     1      -9.756  15.996  64.733  1.00  0.00     0.073 OA 
HETATM   34  O   UNL     1     -10.834  14.989  66.856  1.00  0.00    -0.303 OA 
HETATM   35 CL   UNL     1      -8.638  13.426  65.731  1.00  0.00     1.128 Cl 
HETATM   36  P   UNL     1     -11.258  12.295  65.972  1.00  0.00    -0.359 P  
HETATM   37 CL   UNL     1     -10.142  13.336  63.272  1.00  0.00     1.721 Cl 
HETATM   38  O   UNL     1     -12.040  11.859  64.578  1.00  0.00    -0.274 OA 
HETATM   39  O   UNL     1     -12.487  13.367  66.286  1.00  0.00    -0.370 OA 
HETATM   40  O   UNL     1     -12.047  11.218  66.756  1.00  0.00    -0.019 OA 
ENDBRANCH  27  30
ENDBRANCH  26  27
ENDBRANCH  25  26
ENDBRANCH  18  25
ENDBRANCH  11  16
BRANCH  14  41
HETATM   41  S   UNL     1     -11.048  15.753  70.700  1.00  0.00    -0.335 SA 
BRANCH  41  42
HETATM   42  C   UNL     1     -11.353  14.731  72.180  1.00  0.00     0.254 C  
BRANCH  42  43
HETATM   43  C   UNL     1     -12.857  14.535  72.329  1.00  0.00    -0.427 C  
HETATM   44  C   UNL     1     -13.256  13.081  72.205  1.00  0.00    -0.435 C  
HETATM   45  F   UNL     1     -13.950  12.685  73.298  1.00  0.00     0.623 F  
HETATM   46  F   UNL     1     -12.201  12.253  72.072  1.00  0.00     0.063 F  
HETATM   47  F   UNL     1     -14.061  12.894  71.136  1.00  0.00     0.376 F  
ENDBRANCH  42  43
ENDBRANCH  41  42
ENDBRANCH  14  41
ENDBRANCH   5   7
ENDBRANCH   4   5
ENDBRANCH   3   4
ENDBRANCH   2   3
TORSDOF 12
ENDMDL
MODEL      246
REMARK 921   NORMALIZED FREE ENERGY PREDICTED BY IDOCK:    6.44 KCAL/MOL
REMARK 922        TOTAL FREE ENERGY PREDICTED BY IDOCK:    9.95 KCAL/MOL
REMARK 923 INTER-LIGAND FREE ENERGY PREDICTED BY IDOCK:    6.30 KCAL/MOL
REMARK 924 INTRA-LIGAND FREE ENERGY PREDICTED BY IDOCK:    3.65 KCAL/MOL
REMARK 927      BINDING AFFINITY PREDICTED BY RF-SCORE:    0.00 PKD
ROOT
HETATM    1  C   UNL     1     -13.909  16.693  70.027  1.00  0.00     6.447 C  
HETATM    2  S   UNL     1     -12.261  16.358  69.367  1.00  0.00     1.046 SA 
ENDROOT
BRANCH   2   3
HETATM    3  C   UNL     1     -12.027  14.649  69.987  1.00  0.00    -0.320 C  
BRANCH   3   4
HETATM    4  C   UNL     1     -10.544  14.339  70.283  1.00  0.00     0.587 C  
BRANCH   4   5
HETATM    5  N   UNL     1      -9.906  13.726  69.131  1.00  0.00    -0.407 NA 
HETATM    6  H   UNL     1      -9.889  14.224  68.242  1.00  0.00     0.000 HD 
BRANCH   5   7
HETATM    7  C   UNL     1      -9.320  12.476  69.224  1.00  0.00     0.907 A  
HETATM    8  C   UNL     1     -10.114  11.330  69.390  1.00  0.00     0.103 A  
HETATM    9  N   UNL     1     -11.483  11.158  69.449  1.00  0.00    -0.269 NA 
HETATM   10  C   UNL     1     -11.657   9.848  69.528  1.00  0.00     0.001 A  
HETATM   11  N   UNL     1     -10.457   9.170  69.554  1.00  0.00    -0.215 NA 
HETATM   12  C   UNL     1      -9.466  10.106  69.463  1.00  0.00    -0.214 A  
HETATM   13  N   UNL     1      -7.966  12.308  69.166  1.00  0.00     0.259 NA 
HETATM   14  C   UNL     1      -7.463  11.063  69.295  1.00  0.00    -0.100 A  
HETATM   15  N   UNL     1      -8.148   9.903  69.431  1.00  0.00    -0.125 NA 
BRANCH  11  16
HETATM   16  C   UNL     1     -10.340   7.730  69.471  1.00  0.00    -0.219 C  
HETATM   17  O   UNL     1      -9.067   7.432  68.884  1.00  0.00    -0.137 OA 
HETATM   18  C   UNL     1      -9.249   7.025  67.518  1.00  0.00    -0.124 C  
HETATM   19  H   UNL     1     -12.072   5.042  68.694  1.00  0.00     0.000 HD 
HETATM   20  O   UNL     1     -11.446   5.554  69.193  1.00  0.00     0.414 OA 
HETATM   21  C   UNL     1     -10.741   6.817  67.281  1.00  0.00    -0.353 C  
HETATM   22  H   UNL     1     -11.885   5.404  66.529  1.00  0.00     0.000 HD 
HETATM   23  C   UNL     1     -11.352   6.901  68.665  1.00  0.00     0.094 C  
HETATM   24  O   UNL     1     -10.956   5.534  66.676  1.00  0.00    -0.244 OA 
BRANCH  18  25
HETATM   25  C   UNL     1      -8.663   8.041  66.536  1.00  0.00    -0.146 C  
BRANCH  25  26
HETATM   26  O   UNL     1      -9.226   7.735  65.259  1.00  0.00     0.199 OA 
BRANCH  26  27
HETATM   27  P   UNL     1      -8.163   7.544  64.072  1.00  0.00     0.228 P  
HETATM   28  O   UNL     1      -8.662   8.760  63.132  1.00  0.00    -0.133 OA 
HETATM   29  O   UNL     1      -6.715   7.646  64.451  1.00  0.00    -0.047 OA 
BRANCH  27  30
HETATM   30  O   UNL     1      -8.571   6.112  63.401  1.00  0.00     0.103 OA 
HETATM   31  P   UNL     1      -7.907   4.695  64.138  1.00  0.00    -0.097 P  
HETATM   32  C   UNL     1      -7.205   3.196  64.919  1.00  0.00    -0.069 C  
HETATM   33  O   UNL     1      -6.503   5.012  63.330  1.00  0.00    -0.025 OA 
HETATM   34  O   UNL     1      -7.820   5.393  65.521  1.00  0.00    -0.092 OA 
HETATM   35 CL   UNL     1      -5.598   3.509  65.733  1.00  0.00    -0.017 Cl 
HETATM   36  P   UNL     1      -8.276   2.674  66.309  1.00  0.00    -0.095 P  
HETATM   37 CL   UNL     1      -6.865   1.990  63.633  1.00  0.00    -0.033 Cl 
HETATM   38  O   UNL     1      -8.941   1.499  65.348  1.00  0.00    -0.121 OA 
HETATM   39  O   UNL     1      -9.480   3.707  65.821  1.00  0.00    -0.165 OA 
HETATM   40  O   UNL     1      -9.182   2.231  67.484  1.00  0.00    -0.162 OA 
ENDBRANCH  27  30
ENDBRANCH  26  27
ENDBRANCH  25  26
ENDBRANCH  18  25
ENDBRANCH  11  16
BRANCH  14  41
HETATM   41  S   UNL     1      -5.694  10.868  69.304  1.00  0.00    -0.043 SA 
BRANCH  41  42
HETATM   42  C   UNL     1      -5.287  11.469  67.630  1.00  0.00    -0.054 C  
BRANCH  42  43
HETATM   43  C   UNL     1      -5.301  10.283  66.675  1.00  0.00    -0.042 C  
HETATM   44  C   UNL     1      -6.335  10.444  65.583  1.00  0.00    -0.126 C  
HETATM   45  F   UNL     1      -5.756  10.337  64.363  1.00  0.00    -0.093 F  
HETATM   46  F   UNL     1      -6.971  11.631  65.628  1.00  0.00     0.288 F  
HETATM   47  F   UNL     1      -7.272   9.473  65.663  1.00  0.00    -0.086 F  
ENDBRANCH  42  43
ENDBRANCH  41  42
ENDBRANCH  14  41
ENDBRANCH   5   7
ENDBRANCH   4   5
ENDBRANCH   3   4
ENDBRANCH   2   3
TORSDOF 12
ENDMDL
MODEL      247
REMARK 921   NORMALIZED FREE ENERGY PREDICTED BY IDOCK:    6.58 KCAL/MOL
REMARK 922        TOTAL FREE ENERGY PREDICTED BY IDOCK:   10.18 KCAL/MOL
REMARK 923 INTER-LIGAND FREE ENERGY PREDICTED BY IDOCK:   -0.65 KCAL/MOL
REMARK 924 INTRA-LIGAND FREE ENERGY PREDICTED BY IDOCK:   10.83 KCAL/MOL
REMARK 927      BINDING AFFINITY PREDICTED BY RF-SCORE:    0.00 PKD
ROOT
HETATM    1  C   UNL     1      -7.312  12.271  65.259  1.00  0.00     3.667 C  
HETATM    2  S   UNL     1      -7.773  10.600  65.770  1.00  0.00    -0.093 SA 
ENDROOT
BRANCH   2   3
HETATM    3  C   UNL     1      -7.424   9.699  64.213  1.00  0.00    -0.125 C  
BRANCH   3   4
HETATM    4  C   UNL     1      -6.327   8.628  64.398  1.00  0.00    -0.067 C  
BRANCH   4   5
HETATM    5  N   UNL     1      -6.903   7.295  64.393  1.00  0.00    -0.046 NA 
HETATM    6  H   UNL     1      -7.080   6.827  63.504  1.00  0.00     0.000 HD 
BRANCH   5   7
HETATM    7  C   UNL     1      -7.214   6.650  65.577  1.00  0.00    -0.070 A  
HETATM    8  C   UNL     1      -8.173   7.190  66.448  1.00  0.00    -0.120 A  
HETATM    9  N   UNL     1      -8.977   8.310  66.355  1.00  0.00    -0.157 NA 
HETATM   10  C   UNL     1      -9.744   8.267  67.434  1.00  0.00    -0.174 A  
HETATM   11  N   UNL     1      -9.447   7.184  68.234  1.00  0.00    -0.133 NA 
HETATM   12  C   UNL     1      -8.448   6.489  67.613  1.00  0.00    -0.117 A  
HETATM   13  N   UNL     1      -6.605   5.485  65.945  1.00  0.00    -0.043 NA 
HETATM   14  C   UNL     1      -6.935   4.929  67.129  1.00  0.00    -0.064 A  
HETATM   15  N   UNL     1      -7.862   5.361  68.017  1.00  0.00    -0.091 NA 
BRANCH  11  16
HETATM   16  C   UNL     1     -10.229   6.792  69.387  1.00  0.00    -0.187 C  
HETATM   17  O   UNL     1     -11.443   7.552  69.365  1.00  0.00     0.120 OA 
HETATM   18  C   UNL     1     -11.379   8.595  70.351  1.00  0.00    -0.187 C  
HETATM   19  H   UNL     1      -9.935   6.110  72.593  1.00  0.00     0.000 HD 
HETATM   20  O   UNL     1     -10.275   6.001  71.713  1.00  0.00    -0.194 OA 
HETATM   21  C   UNL     1     -10.153   8.345  71.224  1.00  0.00    -0.202 C  
HETATM   22  H   UNL     1      -9.769   8.235  73.150  1.00  0.00     0.000 HD 
HETATM   23  C   UNL     1      -9.678   6.967  70.811  1.00  0.00    -0.168 C  
HETATM   24  O   UNL     1     -10.532   8.391  72.606  1.00  0.00    -0.326 OA 
BRANCH  18  25
HETATM   25  C   UNL     1     -11.337   9.984  69.713  1.00  0.00    -0.228 C  
BRANCH  25  26
HETATM   26  O   UNL     1     -11.318   9.776  68.300  1.00  0.00    -0.091 OA 
BRANCH  26  27
HETATM   27  P   UNL     1     -11.272  11.113  67.413  1.00  0.00    -0.173 P  
HETATM   28  O   UNL     1     -10.643  10.466  66.072  1.00  0.00    -0.172 OA 
HETATM   29  O   UNL     1     -12.584  11.802  67.177  1.00  0.00     0.614 OA 
BRANCH  27  30
HETATM   30  O   UNL     1     -10.160  12.048  68.161  1.00  0.00    -0.189 OA 
HETATM   31  P   UNL     1     -10.460  13.751  68.167  1.00  0.00    -0.260 P  
HETATM   32  C   UNL     1     -10.777  15.554  68.173  1.00  0.00    -0.282 C  
HETATM   33  O   UNL     1      -9.888  13.791  66.619  1.00  0.00    -0.267 OA 
HETATM   34  O   UNL     1     -11.994  13.534  68.093  1.00  0.00    -0.358 OA 
HETATM   35 CL   UNL     1     -11.754  16.105  66.729  1.00  0.00     0.650 Cl 
HETATM   36  P   UNL     1     -11.859  15.978  69.587  1.00  0.00     0.002 P  
HETATM   37 CL   UNL     1      -9.205  16.410  68.043  1.00  0.00    -0.203 Cl 
HETATM   38  O   UNL     1     -10.537  16.509  70.432  1.00  0.00    -0.089 OA 
HETATM   39  O   UNL     1     -11.640  14.474  70.257  1.00  0.00    -0.273 OA 
HETATM   40  O   UNL     1     -12.774  16.336  70.784  1.00  0.00    -0.045 OA 
ENDBRANCH  27  30
ENDBRANCH  26  27
ENDBRANCH  25  26
ENDBRANCH  18  25
ENDBRANCH  11  16
BRANCH  14  41
HETATM   41  S   UNL     1      -6.072   3.457  67.637  1.00  0.00    -0.029 SA 
BRANCH  41  42
HETATM   42  C   UNL     1      -6.096   3.671  69.449  1.00  0.00    -0.027 C  
BRANCH  42  43
HETATM   43  C   UNL     1      -7.320   2.952  70.002  1.00  0.00    -0.044 C  
HETATM   44  C   UNL     1      -8.409   2.800  68.963  1.00  0.00    -0.060 C  
HETATM   45  F   UNL     1      -8.755   1.497  68.827  1.00  0.00    -0.071 F  
HETATM   46  F   UNL     1      -8.045   3.252  67.747  1.00  0.00    -0.077 F  
HETATM   47  F   UNL     1      -9.523   3.469  69.333  1.00  0.00    -0.205 F  
ENDBRANCH  42  43
ENDBRANCH  41  42
ENDBRANCH  14  41
ENDBRANCH   5   7
ENDBRANCH   4   5
ENDBRANCH   3   4
ENDBRANCH   2   3
TORSDOF 12
ENDMDL
MODEL      248
REMARK 921   NORMALIZED FREE ENERGY PREDICTED BY IDOCK:    6.97 KCAL/MOL
REMARK 922        TOTAL FREE ENERGY PREDICTED BY IDOCK:   10.85 KCAL/MOL
REMARK 923 INTER-LIGAND FREE ENERGY PREDICTED BY IDOCK:    5.58 KCAL/MOL
REMARK 924 INTRA-LIGAND FREE ENERGY PREDICTED BY IDOCK:    5.27 KCAL/MOL
REMARK 927      BINDING AFFINITY PREDICTED BY RF-SCORE:    0.00 PKD
ROOT
HETATM    1  C   UNL     1     -11.949  18.671  64.722  1.00  0.00     5.904 C  
HETATM    2  S   UNL     1     -10.296  17.980  64.957  1.00  0.00     1.800 SA 
ENDROOT
BRANCH   2   3
HETATM    3  C   UNL     1     -10.653  16.791  66.305  1.00  0.00    -0.190 C  
BRANCH   3   4
HETATM    4  C   UNL     1      -9.449  16.614  67.255  1.00  0.00    -0.232 C  
BRANCH   4   5
HETATM    5  N   UNL     1      -8.579  15.547  66.791  1.00  0.00    -0.251 NA 
HETATM    6  H   UNL     1      -8.111  15.636  65.889  1.00  0.00     0.000 HD 
BRANCH   5   7
HETATM    7  C   UNL     1      -8.377  14.411  67.555  1.00  0.00    -0.187 A  
HETATM    8  C   UNL     1      -9.467  13.625  67.960  1.00  0.00    -0.209 A  
HETATM    9  N   UNL     1     -10.821  13.726  67.707  1.00  0.00    -0.247 NA 
HETATM   10  C   UNL     1     -11.353  12.655  68.276  1.00  0.00    -0.295 A  
HETATM   11  N   UNL     1     -10.402  11.884  68.912  1.00  0.00    -0.158 NA 
HETATM   12  C   UNL     1      -9.196  12.492  68.713  1.00  0.00     0.152 A  
HETATM   13  N   UNL     1      -7.130  14.019  67.946  1.00  0.00    -0.141 NA 
HETATM   14  C   UNL     1      -7.010  12.918  68.717  1.00  0.00    -0.103 A  
HETATM   15  N   UNL     1      -7.996  12.087  69.131  1.00  0.00     0.189 NA 
BRANCH  11  16
HETATM   16  C   UNL     1     -10.666  10.577  69.474  1.00  0.00    -0.255 C  
HETATM   17  O   UNL     1      -9.471   9.798  69.338  1.00  0.00    -0.176 OA 
HETATM   18  C   UNL     1      -9.631   8.851  68.270  1.00  0.00    -0.146 C  
HETATM   19  H   UNL     1     -12.974   8.233  69.585  1.00  0.00     0.000 HD 
HETATM   20  O   UNL     1     -12.282   8.784  69.932  1.00  0.00     0.602 OA 
HETATM   21  C   UNL     1     -11.097   8.855  67.850  1.00  0.00     0.284 C  
HETATM   22  H   UNL     1     -12.503   7.511  67.557  1.00  0.00     0.000 HD 
HETATM   23  C   UNL     1     -11.785   9.687  68.912  1.00  0.00     0.552 C  
HETATM   24  O   UNL     1     -11.590   7.509  67.818  1.00  0.00     0.680 OA 
BRANCH  18  25
HETATM   25  C   UNL     1      -8.710   9.162  67.088  1.00  0.00    -0.123 C  
BRANCH  25  26
HETATM   26  O   UNL     1      -9.061   8.242  66.053  1.00  0.00    -0.179 OA 
BRANCH  26  27
HETATM   27  P   UNL     1      -7.836   7.725  65.155  1.00  0.00    -0.134 P  
HETATM   28  O   UNL     1      -7.818   8.938  64.087  1.00  0.00    -0.121 OA 
HETATM   29  O   UNL     1      -6.525   7.539  65.859  1.00  0.00    -0.044 OA 
BRANCH  27  30
HETATM   30  O   UNL     1      -8.406   6.365  64.451  1.00  0.00    -0.072 OA 
HETATM   31  P   UNL     1      -7.828   4.864  65.085  1.00  0.00    -0.098 P  
HETATM   32  C   UNL     1      -7.215   3.276  65.758  1.00  0.00    -0.071 C  
HETATM   33  O   UNL     1      -6.451   5.098  64.206  1.00  0.00    -0.035 OA 
HETATM   34  O   UNL     1      -7.599   5.486  66.488  1.00  0.00    -0.086 OA 
HETATM   35 CL   UNL     1      -5.542   3.412  66.482  1.00  0.00    -0.020 Cl 
HETATM   36  P   UNL     1      -8.244   2.782  67.189  1.00  0.00    -0.088 P  
HETATM   37 CL   UNL     1      -7.057   2.107  64.404  1.00  0.00    -0.050 Cl 
HETATM   38  O   UNL     1      -9.065   1.714  66.223  1.00  0.00    -0.114 OA 
HETATM   39  O   UNL     1      -9.380   3.936  66.821  1.00  0.00    -0.160 OA 
HETATM   40  O   UNL     1      -9.115   2.363  68.399  1.00  0.00    -0.126 OA 
ENDBRANCH  27  30
ENDBRANCH  26  27
ENDBRANCH  25  26
ENDBRANCH  18  25
ENDBRANCH  11  16
BRANCH  14  41
HETATM   41  S   UNL     1      -5.388  12.466  69.292  1.00  0.00    -0.072 SA 
BRANCH  41  42
HETATM   42  C   UNL     1      -5.567  10.652  69.389  1.00  0.00    -0.037 C  
BRANCH  42  43
HETATM   43  C   UNL     1      -6.132  10.153  68.065  1.00  0.00    -0.052 C  
HETATM   44  C   UNL     1      -5.881  11.127  66.935  1.00  0.00    -0.092 C  
HETATM   45  F   UNL     1      -5.230  10.515  65.918  1.00  0.00    -0.040 F  
HETATM   46  F   UNL     1      -5.144  12.191  67.309  1.00  0.00    -0.075 F  
HETATM   47  F   UNL     1      -7.048  11.593  66.436  1.00  0.00    -0.108 F  
ENDBRANCH  42  43
ENDBRANCH  41  42
ENDBRANCH  14  41
ENDBRANCH   5   7
ENDBRANCH   4   5
ENDBRANCH   3   4
ENDBRANCH   2   3
TORSDOF 12
ENDMDL
MODEL      249
REMARK 921   NORMALIZED FREE ENERGY PREDICTED BY IDOCK:    7.62 KCAL/MOL
REMARK 922        TOTAL FREE ENERGY PREDICTED BY IDOCK:   11.96 KCAL/MOL
REMARK 923 INTER-LIGAND FREE ENERGY PREDICTED BY IDOCK:    9.55 KCAL/MOL
REMARK 924 INTRA-LIGAND FREE ENERGY PREDICTED BY IDOCK:    2.42 KCAL/MOL
REMARK 927      BINDING AFFINITY PREDICTED BY RF-SCORE:    0.00 PKD
ROOT
HETATM    1  C   UNL     1     -11.823   8.478  66.428  1.00  0.00     6.061 C  
HETATM    2  S   UNL     1     -10.121   7.903  66.232  1.00  0.00     0.250 SA 
ENDROOT
BRANCH   2   3
HETATM    3  C   UNL     1     -10.435   6.305  65.391  1.00  0.00     2.063 C  
BRANCH   3   4
HETATM    4  C   UNL     1     -11.699   5.604  65.932  1.00  0.00     2.023 C  
BRANCH   4   5
HETATM    5  N   UNL     1     -11.782   5.734  67.377  1.00  0.00     0.848 NA 
HETATM    6  H   UNL     1     -12.696   5.756  67.828  1.00  0.00     0.000 HD 
BRANCH   5   7
HETATM    7  C   UNL     1     -10.637   5.828  68.149  1.00  0.00    -0.216 A  
HETATM    8  C   UNL     1     -10.543   6.794  69.163  1.00  0.00    -0.232 A  
HETATM    9  N   UNL     1     -11.442   7.733  69.629  1.00  0.00     0.166 NA 
HETATM   10  C   UNL     1     -10.834   8.305  70.656  1.00  0.00    -0.236 A  
HETATM   11  N   UNL     1      -9.568   7.794  70.855  1.00  0.00    -0.167 NA 
HETATM   12  C   UNL     1      -9.374   6.828  69.909  1.00  0.00    -0.157 A  
HETATM   13  N   UNL     1      -9.566   5.004  67.954  1.00  0.00    -0.134 NA 
HETATM   14  C   UNL     1      -8.471   5.174  68.722  1.00  0.00    -0.087 A  
HETATM   15  N   UNL     1      -8.300   6.055  69.737  1.00  0.00    -0.124 NA 
BRANCH  11  16
HETATM   16  C   UNL     1      -8.740   8.110  71.998  1.00  0.00    -0.164 C  
HETATM   17  O   UNL     1      -8.358   9.487  71.890  1.00  0.00     0.103 OA 
HETATM   18  C   UNL     1      -6.988   9.576  71.465  1.00  0.00     0.301 C  
HETATM   19  H   UNL     1      -6.290   6.887  73.825  1.00  0.00     0.000 HD 
HETATM   20  O   UNL     1      -7.102   7.354  73.667  1.00  0.00    -0.080 OA 
HETATM   21  C   UNL     1      -6.379   8.181  71.536  1.00  0.00    -0.043 C  
HETATM   22  H   UNL     1      -4.764   7.363  72.307  1.00  0.00     0.000 HD 
HETATM   23  C   UNL     1      -7.426   7.354  72.254  1.00  0.00    -0.076 C  
HETATM   24  O   UNL     1      -5.144   8.232  72.263  1.00  0.00    -0.035 OA 
BRANCH  18  25
HETATM   25  C   UNL     1      -6.863  10.172  70.062  1.00  0.00    -0.137 C  
BRANCH  25  26
HETATM   26  O   UNL     1      -7.062  11.579  70.203  1.00  0.00     0.113 OA 
BRANCH  26  27
HETATM   27  P   UNL     1      -6.595  12.464  68.949  1.00  0.00    -0.098 P  
HETATM   28  O   UNL     1      -5.393  13.261  69.677  1.00  0.00    -0.084 OA 
HETATM   29  O   UNL     1      -6.151  11.711  67.730  1.00  0.00    -0.045 OA 
BRANCH  27  30
HETATM   30  O   UNL     1      -7.855  13.470  68.681  1.00  0.00    -0.134 OA 
HETATM   31  P   UNL     1      -7.475  15.141  68.449  1.00  0.00    -0.133 P  
HETATM   32  C   UNL     1      -7.072  16.909  68.203  1.00  0.00    -0.165 C  
HETATM   33  O   UNL     1      -7.336  15.269  70.089  1.00  0.00    -0.053 OA 
HETATM   34  O   UNL     1      -6.071  14.797  67.886  1.00  0.00    -0.141 OA 
HETATM   35 CL   UNL     1      -5.543  17.414  69.070  1.00  0.00    -0.166 Cl 
HETATM   36  P   UNL     1      -6.663  17.202  66.443  1.00  0.00    -0.090 P  
HETATM   37 CL   UNL     1      -8.383  17.899  68.928  1.00  0.00    -0.199 Cl 
HETATM   38  O   UNL     1      -8.181  17.822  66.200  1.00  0.00    -0.430 OA 
HETATM   39  O   UNL     1      -7.243  15.705  66.018  1.00  0.00     0.974 OA 
HETATM   40  O   UNL     1      -6.319  17.451  64.954  1.00  0.00     0.849 OA 
ENDBRANCH  27  30
ENDBRANCH  26  27
ENDBRANCH  25  26
ENDBRANCH  18  25
ENDBRANCH  11  16
BRANCH  14  41
HETATM   41  S   UNL     1      -7.050   4.152  68.401  1.00  0.00    -0.055 SA 
BRANCH  41  42
HETATM   42  C   UNL     1      -7.732   3.029  67.134  1.00  0.00    -0.074 C  
BRANCH  42  43
HETATM   43  C   UNL     1      -7.128   3.401  65.786  1.00  0.00    -0.066 C  
HETATM   44  C   UNL     1      -8.150   3.350  64.671  1.00  0.00    -0.090 C  
HETATM   45  F   UNL     1      -8.203   4.538  64.023  1.00  0.00    -0.089 F  
HETATM   46  F   UNL     1      -9.394   3.069  65.107  1.00  0.00    -0.139 F  
HETATM   47  F   UNL     1      -7.815   2.414  63.756  1.00  0.00    -0.063 F  
ENDBRANCH  42  43
ENDBRANCH  41  42
ENDBRANCH  14  41
ENDBRANCH   5   7
ENDBRANCH   4   5
ENDBRANCH   3   4
ENDBRANCH   2   3
TORSDOF 12
ENDMDL
MODEL      250
REMARK 921   NORMALIZED FREE ENERGY PREDICTED BY IDOCK:    8.15 KCAL/MOL
REMARK 922        TOTAL FREE ENERGY PREDICTED BY IDOCK:   12.86 KCAL/MOL
REMARK 923 INTER-LIGAND FREE ENERGY PREDICTED BY IDOCK:    5.04 KCAL/MOL
REMARK 924 INTRA-LIGAND FREE ENERGY PREDICTED BY IDOCK:    7.82 KCAL/MOL
REMARK 927      BINDING AFFINITY PREDICTED BY RF-SCORE:    0.00 PKD
ROOT
HETATM    1  C   UNL     1     -13.006   1.766  63.264  1.00  0.00     7.314 C  
HETATM    2  S   UNL     1     -11.225   1.488  63.135  1.00  0.00    -0.201 SA 
ENDROOT
BRANCH   2   3
HETATM    3  C   UNL     1     -10.635   3.216  63.303  1.00  0.00    -0.238 C  
BRANCH   3   4
HETATM    4  C   UNL     1     -10.057   3.495  64.707  1.00  0.00    -0.087 C  
BRANCH   4   5
HETATM    5  N   UNL     1     -10.368   4.849  65.132  1.00  0.00    -0.423 NA 
HETATM    6  H   UNL     1     -11.341   5.123  65.265  1.00  0.00     0.000 HD 
BRANCH   5   7
HETATM    7  C   UNL     1      -9.362   5.772  65.359  1.00  0.00     0.177 A  
HETATM    8  C   UNL     1      -9.677   7.085  65.741  1.00  0.00     0.561 A  
HETATM    9  N   UNL     1     -10.883   7.706  66.002  1.00  0.00     1.726 NA 
HETATM   10  C   UNL     1     -10.558   8.925  66.404  1.00  0.00     0.177 A  
HETATM   11  N   UNL     1      -9.193   9.126  66.384  1.00  0.00    -0.170 NA 
HETATM   12  C   UNL     1      -8.622   7.959  65.965  1.00  0.00    -0.150 A  
HETATM   13  N   UNL     1      -8.043   5.451  65.215  1.00  0.00    -0.116 NA 
HETATM   14  C   UNL     1      -7.117   6.410  65.421  1.00  0.00    -0.064 A  
HETATM   15  N   UNL     1      -7.324   7.688  65.816  1.00  0.00    -0.069 NA 
BRANCH  11  16
HETATM   16  C   UNL     1      -8.542  10.300  66.924  1.00  0.00    -0.126 C  
HETATM   17  O   UNL     1      -8.986  10.457  68.277  1.00  0.00    -0.129 OA 
HETATM   18  C   UNL     1      -9.939  11.530  68.352  1.00  0.00    -0.206 C  
HETATM   19  H   UNL     1      -7.719  13.387  66.136  1.00  0.00     0.000 HD 
HETATM   20  O   UNL     1      -7.596  12.534  66.535  1.00  0.00     0.244 OA 
HETATM   21  C   UNL     1      -9.929  12.264  67.015  1.00  0.00    -0.211 C  
HETATM   22  H   UNL     1      -9.776  14.130  66.410  1.00  0.00     0.000 HD 
HETATM   23  C   UNL     1      -8.740  11.680  66.280  1.00  0.00    -0.136 C  
HETATM   24  O   UNL     1      -9.782  13.672  67.243  1.00  0.00    -0.231 OA 
BRANCH  18  25
HETATM   25  C   UNL     1     -11.340  11.027  68.703  1.00  0.00    -0.281 C  
BRANCH  25  26
HETATM   26  O   UNL     1     -11.279  10.584  70.060  1.00  0.00    -0.273 OA 
BRANCH  26  27
HETATM   27  P   UNL     1      -9.993   9.701  70.433  1.00  0.00    -0.170 P  
HETATM   28  O   UNL     1      -8.872  10.643  69.749  1.00  0.00     0.035 OA 
HETATM   29  O   UNL     1      -9.750   9.461  71.894  1.00  0.00    -0.171 OA 
BRANCH  27  30
HETATM   30  O   UNL     1     -10.184   8.332  69.562  1.00  0.00    -0.200 OA 
HETATM   31  P   UNL     1      -9.314   6.940  70.106  1.00  0.00    -0.157 P  
HETATM   32  C   UNL     1      -8.393   5.468  70.683  1.00  0.00    -0.117 C  
HETATM   33  O   UNL     1      -7.976   7.573  69.375  1.00  0.00    -0.118 OA 
HETATM   34  O   UNL     1      -9.326   7.442  71.574  1.00  0.00    -0.144 OA 
HETATM   35 CL   UNL     1      -6.847   5.899  71.560  1.00  0.00    -0.065 Cl 
HETATM   36  P   UNL     1      -9.368   4.603  71.968  1.00  0.00    -0.147 P  
HETATM   37 CL   UNL     1      -7.880   4.518  69.248  1.00  0.00    -0.062 Cl 
HETATM   38  O   UNL     1      -9.853   3.489  70.841  1.00  0.00    -0.171 OA 
HETATM   39  O   UNL     1     -10.715   5.504  71.608  1.00  0.00    -0.243 OA 
HETATM   40  O   UNL     1     -10.193   3.870  73.054  1.00  0.00    -0.146 OA 
ENDBRANCH  27  30
ENDBRANCH  26  27
ENDBRANCH  25  26
ENDBRANCH  18  25
ENDBRANCH  11  16
BRANCH  14  41
HETATM   41  S   UNL     1      -5.407   6.002  65.146  1.00  0.00    -0.014 SA 
BRANCH  41  42
HETATM   42  C   UNL     1      -5.143   4.777  66.473  1.00  0.00    -0.008 C  
BRANCH  42  43
HETATM   43  C   UNL     1      -5.505   3.399  65.935  1.00  0.00    -0.017 C  
HETATM   44  C   UNL     1      -6.331   2.602  66.920  1.00  0.00    -0.028 C  
HETATM   45  F   UNL     1      -7.491   2.198  66.350  1.00  0.00    -0.058 F  
HETATM   46  F   UNL     1      -6.645   3.297  68.031  1.00  0.00    -0.034 F  
HETATM   47  F   UNL     1      -5.671   1.488  67.308  1.00  0.00    -0.016 F  
ENDBRANCH  42  43
ENDBRANCH  41  42
ENDBRANCH  14  41
ENDBRANCH   5   7
ENDBRANCH   4   5
ENDBRANCH   3   4
ENDBRANCH   2   3
TORSDOF 12
ENDMDL
MODEL      251
REMARK 921   NORMALIZED FREE ENERGY PREDICTED BY IDOCK:    8.60 KCAL/MOL
REMARK 922        TOTAL FREE ENERGY PREDICTED BY IDOCK:   13.62 KCAL/MOL
REMARK 923 INTER-LIGAND FREE ENERGY PREDICTED BY IDOCK:   11.67 KCAL/MOL
REMARK 924 INTRA-LIGAND FREE ENERGY PREDICTED BY IDOCK:    1.96 KCAL/MOL
REMARK 927      BINDING AFFINITY PREDICTED BY RF-SCORE:    0.00 PKD
ROOT
HETATM    1  C   UNL     1      -6.147  20.395  71.537  1.00  0.00    -0.140 C  
HETATM    2  S   UNL     1      -5.270  18.830  71.754  1.00  0.00     0.024 SA 
ENDROOT
BRANCH   2   3
HETATM    3  C   UNL     1      -5.712  18.012  70.174  1.00  0.00    -0.224 C  
BRANCH   3   4
HETATM    4  C   UNL     1      -6.575  16.752  70.396  1.00  0.00     0.880 C  
BRANCH   4   5
HETATM    5  N   UNL     1      -6.462  15.845  69.267  1.00  0.00    -0.148 NA 
HETATM    6  H   UNL     1      -5.578  15.366  69.093  1.00  0.00     0.000 HD 
BRANCH   5   7
HETATM    7  C   UNL     1      -7.536  15.620  68.424  1.00  0.00    -0.120 A  
HETATM    8  C   UNL     1      -7.724  14.361  67.834  1.00  0.00    -0.146 A  
HETATM    9  N   UNL     1      -7.028  13.174  67.952  1.00  0.00    -0.114 NA 
HETATM   10  C   UNL     1      -7.717  12.303  67.231  1.00  0.00    -0.161 A  
HETATM   11  N   UNL     1      -8.813  12.886  66.628  1.00  0.00    -0.148 NA 
HETATM   12  C   UNL     1      -8.827  14.198  67.009  1.00  0.00    -0.221 A  
HETATM   13  N   UNL     1      -8.438  16.602  68.130  1.00  0.00    -0.193 NA 
HETATM   14  C   UNL     1      -9.443  16.322  67.275  1.00  0.00    -0.227 A  
HETATM   15  N   UNL     1      -9.719  15.135  66.682  1.00  0.00    -0.246 NA 
BRANCH  11  16
HETATM   16  C   UNL     1      -9.834  12.147  65.920  1.00  0.00    -0.247 C  
HETATM   17  O   UNL     1     -10.459  11.263  66.859  1.00  0.00    -0.224 OA 
HETATM   18  C   UNL     1      -9.997   9.920  66.639  1.00  0.00    -0.217 C  
HETATM   19  H   UNL     1     -10.384  10.584  63.076  1.00  0.00     0.000 HD 
HETATM   20  O   UNL     1     -10.606  11.134  63.818  1.00  0.00    -0.363 OA 
HETATM   21  C   UNL     1      -9.215   9.897  65.330  1.00  0.00    -0.226 C  
HETATM   22  H   UNL     1      -9.214   8.819  63.684  1.00  0.00     0.000 HD 
HETATM   23  C   UNL     1      -9.476  11.258  64.718  1.00  0.00    -0.194 C  
HETATM   24  O   UNL     1      -9.701   8.833  64.499  1.00  0.00     0.853 OA 
BRANCH  18  25
HETATM   25  C   UNL     1      -9.151   9.408  67.805  1.00  0.00    -0.125 C  
BRANCH  25  26
HETATM   26  O   UNL     1     -10.008   8.576  68.589  1.00  0.00    -0.173 OA 
BRANCH  26  27
HETATM   27  P   UNL     1     -10.213   7.087  68.029  1.00  0.00    -0.209 P  
HETATM   28  O   UNL     1     -11.829   7.081  68.005  1.00  0.00     0.814 OA 
HETATM   29  O   UNL     1      -9.602   6.786  66.693  1.00  0.00    -0.165 OA 
BRANCH  27  30
HETATM   30  O   UNL     1      -9.666   6.130  69.236  1.00  0.00    -0.134 OA 
HETATM   31  P   UNL     1      -7.957   6.123  69.503  1.00  0.00    -0.110 P  
HETATM   32  C   UNL     1      -6.149   6.116  69.786  1.00  0.00    -0.026 C  
HETATM   33  O   UNL     1      -7.827   5.088  68.224  1.00  0.00    -0.085 OA 
HETATM   34  O   UNL     1      -7.813   7.567  68.955  1.00  0.00    -0.118 OA 
HETATM   35 CL   UNL     1      -5.194   6.472  68.268  1.00  0.00    -0.007 Cl 
HETATM   36  P   UNL     1      -5.699   7.505  70.890  1.00  0.00    -0.031 P  
HETATM   37 CL   UNL     1      -5.656   4.463  70.286  1.00  0.00    -0.012 Cl 
HETATM   38  O   UNL     1      -5.601   6.452  72.166  1.00  0.00    -0.034 OA 
HETATM   39  O   UNL     1      -7.293   7.769  71.274  1.00  0.00    -0.063 OA 
HETATM   40  O   UNL     1      -5.318   8.679  71.825  1.00  0.00    -0.035 OA 
ENDBRANCH  27  30
ENDBRANCH  26  27
ENDBRANCH  25  26
ENDBRANCH  18  25
ENDBRANCH  11  16
BRANCH  14  41
HETATM   41  S   UNL     1     -10.563  17.632  66.833  1.00  0.00    -0.169 SA 
BRANCH  41  42
HETATM   42  C   UNL     1     -11.055  17.095  65.160  1.00  0.00     0.163 C  
BRANCH  42  43
HETATM   43  C   UNL     1     -10.455  18.061  64.147  1.00  0.00     6.030 C  
HETATM   44  C   UNL     1     -10.758  19.504  64.488  1.00  0.00     3.310 C  
HETATM   45  F   UNL     1      -9.612  20.219  64.582  1.00  0.00     0.771 F  
HETATM   46  F   UNL     1     -11.421  19.643  65.653  1.00  0.00    -0.149 F  
HETATM   47  F   UNL     1     -11.505  20.079  63.520  1.00  0.00     4.026 F  
ENDBRANCH  42  43
ENDBRANCH  41  42
ENDBRANCH  14  41
ENDBRANCH   5   7
ENDBRANCH   4   5
ENDBRANCH   3   4
ENDBRANCH   2   3
TORSDOF 12
ENDMDL
MODEL      252
REMARK 921   NORMALIZED FREE ENERGY PREDICTED BY IDOCK:    8.84 KCAL/MOL
REMARK 922        TOTAL FREE ENERGY PREDICTED BY IDOCK:   14.02 KCAL/MOL
REMARK 923 INTER-LIGAND FREE ENERGY PREDICTED BY IDOCK:    0.47 KCAL/MOL
REMARK 924 INTRA-LIGAND FREE ENERGY PREDICTED BY IDOCK:   13.55 KCAL/MOL
REMARK 927      BINDING AFFINITY PREDICTED BY RF-SCORE:    0.00 PKD
ROOT
HETATM    1  C   UNL     1      -6.650  18.806  67.662  1.00  0.00    -0.207 C  
HETATM    2  S   UNL     1      -6.687  20.374  66.764  1.00  0.00    -0.257 SA 
ENDROOT
BRANCH   2   3
HETATM    3  C   UNL     1      -8.484  20.728  66.846  1.00  0.00    -0.012 C  
BRANCH   3   4
HETATM    4  C   UNL     1      -9.253  19.640  67.626  1.00  0.00    -0.333 C  
BRANCH   4   5
HETATM    5  N   UNL     1      -8.335  18.784  68.357  1.00  0.00    -0.332 NA 
HETATM    6  H   UNL     1      -7.602  19.203  68.927  1.00  0.00     0.000 HD 
BRANCH   5   7
HETATM    7  C   UNL     1      -8.443  17.405  68.290  1.00  0.00    -0.249 A  
HETATM    8  C   UNL     1      -9.552  16.752  68.851  1.00  0.00    -0.249 A  
HETATM    9  N   UNL     1     -10.684  17.232  69.480  1.00  0.00    -0.082 NA 
HETATM   10  C   UNL     1     -11.421  16.158  69.718  1.00  0.00    -0.282 A  
HETATM   11  N   UNL     1     -10.797  15.002  69.296  1.00  0.00    -0.251 NA 
HETATM   12  C   UNL     1      -9.606  15.371  68.739  1.00  0.00    -0.209 A  
HETATM   13  N   UNL     1      -7.487  16.636  67.693  1.00  0.00    -0.145 NA 
HETATM   14  C   UNL     1      -7.641  15.296  67.693  1.00  0.00    -0.172 A  
HETATM   15  N   UNL     1      -8.684  14.584  68.182  1.00  0.00    -0.164 NA 
BRANCH  11  16
HETATM   16  C   UNL     1     -11.433  13.703  69.276  1.00  0.00    -0.291 C  
HETATM   17  O   UNL     1     -10.741  12.869  70.215  1.00  0.00     1.062 OA 
HETATM   18  C   UNL     1      -9.897  11.945  69.509  1.00  0.00     0.896 C  
HETATM   19  H   UNL     1     -12.680  11.471  67.203  1.00  0.00     0.000 HD 
HETATM   20  O   UNL     1     -12.640  11.983  68.003  1.00  0.00     0.178 OA 
HETATM   21  C   UNL     1     -10.244  12.025  68.026  1.00  0.00    -0.198 C  
HETATM   22  H   UNL     1     -10.688  10.754  66.591  1.00  0.00     0.000 HD 
HETATM   23  C   UNL     1     -11.497  12.875  67.984  1.00  0.00    -0.319 C  
HETATM   24  O   UNL     1     -10.472  10.704  67.515  1.00  0.00    -0.201 OA 
BRANCH  18  25
HETATM   25  C   UNL     1      -8.413  12.226  69.752  1.00  0.00     2.191 C  
BRANCH  25  26
HETATM   26  O   UNL     1      -7.707  11.066  69.312  1.00  0.00    -0.129 OA 
BRANCH  26  27
HETATM   27  P   UNL     1      -8.330   9.666  69.786  1.00  0.00    -0.200 P  
HETATM   28  O   UNL     1      -9.685  10.242  70.451  1.00  0.00     0.041 OA 
HETATM   29  O   UNL     1      -8.586   8.651  68.712  1.00  0.00    -0.128 OA 
BRANCH  27  30
HETATM   30  O   UNL     1      -7.307   9.151  70.952  1.00  0.00    -0.103 OA 
HETATM   31  P   UNL     1      -7.653   7.611  71.659  1.00  0.00    -0.093 P  
HETATM   32  C   UNL     1      -8.020   5.981  72.407  1.00  0.00    -0.105 C  
HETATM   33  O   UNL     1      -8.798   8.364  72.580  1.00  0.00    -0.216 OA 
HETATM   34  O   UNL     1      -8.348   7.114  70.364  1.00  0.00    -0.125 OA 
HETATM   35 CL   UNL     1      -9.802   5.571  72.373  1.00  0.00    -0.184 Cl 
HETATM   36  P   UNL     1      -7.274   4.659  71.383  1.00  0.00    -0.059 P  
HETATM   37 CL   UNL     1      -7.574   6.038  74.145  1.00  0.00    -0.091 Cl 
HETATM   38  O   UNL     1      -6.022   4.538  72.462  1.00  0.00    -0.015 OA 
HETATM   39  O   UNL     1      -6.385   5.769  70.526  1.00  0.00    -0.029 OA 
HETATM   40  O   UNL     1      -6.643   3.540  70.518  1.00  0.00    -0.031 OA 
ENDBRANCH  27  30
ENDBRANCH  26  27
ENDBRANCH  25  26
ENDBRANCH  18  25
ENDBRANCH  11  16
BRANCH  14  41
HETATM   41  S   UNL     1      -6.347  14.299  66.988  1.00  0.00     1.461 SA 
BRANCH  41  42
HETATM   42  C   UNL     1      -6.462  12.815  68.044  1.00  0.00    -0.099 C  
BRANCH  42  43
HETATM   43  C   UNL     1      -6.155  11.592  67.190  1.00  0.00    -0.115 C  
HETATM   44  C   UNL     1      -7.238  11.325  66.168  1.00  0.00     0.070 C  
HETATM   45  F   UNL     1      -6.711  11.278  64.921  1.00  0.00     0.318 F  
HETATM   46  F   UNL     1      -8.204  12.263  66.165  1.00  0.00     0.031 F  
HETATM   47  F   UNL     1      -7.827  10.130  66.394  1.00  0.00    -0.104 F  
ENDBRANCH  42  43
ENDBRANCH  41  42
ENDBRANCH  14  41
ENDBRANCH   5   7
ENDBRANCH   4   5
ENDBRANCH   3   4
ENDBRANCH   2   3
TORSDOF 12
ENDMDL
MODEL      253
REMARK 921   NORMALIZED FREE ENERGY PREDICTED BY IDOCK:   10.51 KCAL/MOL
REMARK 922        TOTAL FREE ENERGY PREDICTED BY IDOCK:   16.87 KCAL/MOL
REMARK 923 INTER-LIGAND FREE ENERGY PREDICTED BY IDOCK:   15.91 KCAL/MOL
REMARK 924 INTRA-LIGAND FREE ENERGY PREDICTED BY IDOCK:    0.97 KCAL/MOL
REMARK 927      BINDING AFFINITY PREDICTED BY RF-SCORE:    0.00 PKD
ROOT
HETATM    1  C   UNL     1      -9.390  20.588  67.394  1.00  0.00    -0.375 C  
HETATM    2  S   UNL     1      -9.635  18.849  66.969  1.00  0.00    -0.325 SA 
ENDROOT
BRANCH   2   3
HETATM    3  C   UNL     1      -8.904  18.842  65.288  1.00  0.00     1.894 C  
BRANCH   3   4
HETATM    4  C   UNL     1      -7.552  18.097  65.249  1.00  0.00     1.081 C  
BRANCH   4   5
HETATM    5  N   UNL     1      -7.756  16.665  65.116  1.00  0.00     2.266 NA 
HETATM    6  H   UNL     1      -7.219  16.143  64.425  1.00  0.00     0.000 HD 
BRANCH   5   7
HETATM    7  C   UNL     1      -8.669  16.000  65.916  1.00  0.00    -0.068 A  
HETATM    8  C   UNL     1      -8.237  15.296  67.051  1.00  0.00    -0.233 A  
HETATM    9  N   UNL     1      -6.988  15.138  67.619  1.00  0.00    -0.168 NA 
HETATM   10  C   UNL     1      -7.204  14.443  68.725  1.00  0.00    -0.128 A  
HETATM   11  N   UNL     1      -8.536  14.119  68.878  1.00  0.00    -0.063 NA 
HETATM   12  C   UNL     1      -9.204  14.661  67.817  1.00  0.00    -0.196 A  
HETATM   13  N   UNL     1     -10.004  15.995  65.634  1.00  0.00    -0.414 NA 
HETATM   14  C   UNL     1     -10.833  15.299  66.439  1.00  0.00    -0.317 A  
HETATM   15  N   UNL     1     -10.513  14.617  67.564  1.00  0.00    -0.246 NA 
BRANCH  11  16
HETATM   16  C   UNL     1      -9.088  13.510  70.069  1.00  0.00     2.831 C  
HETATM   17  O   UNL     1      -8.487  12.217  70.212  1.00  0.00     3.147 OA 
HETATM   18  C   UNL     1      -9.428  11.202  69.826  1.00  0.00     0.867 C  
HETATM   19  H   UNL     1     -11.930  13.100  71.677  1.00  0.00     0.000 HD 
HETATM   20  O   UNL     1     -10.996  13.254  71.596  1.00  0.00     3.547 OA 
HETATM   21  C   UNL     1     -10.792  11.862  69.654  1.00  0.00     0.160 C  
HETATM   22  H   UNL     1     -12.627  11.539  70.286  1.00  0.00     0.000 HD 
HETATM   23  C   UNL     1     -10.598  13.262  70.201  1.00  0.00     1.456 C  
HETATM   24  O   UNL     1     -11.777  11.128  70.393  1.00  0.00    -0.316 OA 
BRANCH  18  25
HETATM   25  C   UNL     1      -8.994  10.475  68.553  1.00  0.00    -0.147 C  
BRANCH  25  26
HETATM   26  O   UNL     1      -8.854   9.098  68.905  1.00  0.00    -0.136 OA 
BRANCH  26  27
HETATM   27  P   UNL     1      -9.141   8.056  67.719  1.00  0.00    -0.130 P  
HETATM   28  O   UNL     1     -10.531   7.457  68.284  1.00  0.00    -0.197 OA 
HETATM   29  O   UNL     1      -9.265   8.634  66.340  1.00  0.00    -0.165 OA 
BRANCH  27  30
HETATM   30  O   UNL     1      -7.950   6.948  67.866  1.00  0.00    -0.111 OA 
HETATM   31  P   UNL     1      -8.432   5.287  67.840  1.00  0.00    -0.098 P  
HETATM   32  C   UNL     1      -8.943   3.529  67.813  1.00  0.00    -0.140 C  
HETATM   33  O   UNL     1      -8.874   5.459  69.422  1.00  0.00    -0.104 OA 
HETATM   34  O   UNL     1      -9.675   5.607  66.969  1.00  0.00    -0.127 OA 
HETATM   35 CL   UNL     1     -10.642   3.276  68.440  1.00  0.00     2.272 Cl 
HETATM   36  P   UNL     1      -9.054   2.954  66.079  1.00  0.00    -0.052 P  
HETATM   37 CL   UNL     1      -7.878   2.609  68.928  1.00  0.00    -0.052 Cl 
HETATM   38  O   UNL     1      -7.580   2.213  66.236  1.00  0.00    -0.065 OA 
HETATM   39  O   UNL     1      -8.274   4.315  65.535  1.00  0.00    -0.107 OA 
HETATM   40  O   UNL     1      -9.147   2.466  64.612  1.00  0.00    -0.118 OA 
ENDBRANCH  27  30
ENDBRANCH  26  27
ENDBRANCH  25  26
ENDBRANCH  18  25
ENDBRANCH  11  16
BRANCH  14  41
HETATM   41  S   UNL     1     -12.559  15.229  66.013  1.00  0.00     1.288 SA 
BRANCH  41  42
HETATM   42  C   UNL     1     -12.579  13.735  64.965  1.00  0.00    -0.389 C  
BRANCH  42  43
HETATM   43  C   UNL     1     -11.727  12.665  65.636  1.00  0.00    -0.458 C  
HETATM   44  C   UNL     1     -11.394  11.529  64.693  1.00  0.00    -0.155 C  
HETATM   45  F   UNL     1     -10.054  11.350  64.621  1.00  0.00    -0.252 F  
HETATM   46  F   UNL     1     -11.846  11.732  63.441  1.00  0.00    -0.515 F  
HETATM   47  F   UNL     1     -11.925  10.367  65.137  1.00  0.00     1.463 F  
ENDBRANCH  42  43
ENDBRANCH  41  42
ENDBRANCH  14  41
ENDBRANCH   5   7
ENDBRANCH   4   5
ENDBRANCH   3   4
ENDBRANCH   2   3
TORSDOF 12
ENDMDL
MODEL      254
REMARK 921   NORMALIZED FREE ENERGY PREDICTED BY IDOCK:   11.37 KCAL/MOL
REMARK 922        TOTAL FREE ENERGY PREDICTED BY IDOCK:   18.33 KCAL/MOL
REMARK 923 INTER-LIGAND FREE ENERGY PREDICTED BY IDOCK:   -7.21 KCAL/MOL
REMARK 924 INTRA-LIGAND FREE ENERGY PREDICTED BY IDOCK:   25.54 KCAL/MOL
REMARK 927      BINDING AFFINITY PREDICTED BY RF-SCORE:    0.00 PKD
ROOT
HETATM    1  C   UNL     1      -7.199   5.143  68.344  1.00  0.00    -0.063 C  
HETATM    2  S   UNL     1      -7.486   6.905  68.065  1.00  0.00    -0.101 SA 
ENDROOT
BRANCH   2   3
HETATM    3  C   UNL     1      -7.030   7.010  66.293  1.00  0.00    -0.069 C  
BRANCH   3   4
HETATM    4  C   UNL     1      -8.220   6.676  65.368  1.00  0.00    -0.138 C  
BRANCH   4   5
HETATM    5  N   UNL     1      -9.122   7.809  65.258  1.00  0.00    -0.365 NA 
HETATM    6  H   UNL     1      -9.428   8.121  64.336  1.00  0.00     0.000 HD 
BRANCH   5   7
HETATM    7  C   UNL     1      -9.571   8.473  66.386  1.00  0.00    -0.245 A  
HETATM    8  C   UNL     1      -9.863   7.761  67.559  1.00  0.00    -0.171 A  
HETATM    9  N   UNL     1      -9.755   6.421  67.876  1.00  0.00    -0.121 NA 
HETATM   10  C   UNL     1     -10.092   6.346  69.154  1.00  0.00    -0.165 A  
HETATM   11  N   UNL     1     -10.442   7.577  69.667  1.00  0.00    -0.229 NA 
HETATM   12  C   UNL     1     -10.298   8.487  68.659  1.00  0.00    -0.198 A  
HETATM   13  N   UNL     1      -9.752   9.826  66.401  1.00  0.00    -0.200 NA 
HETATM   14  C   UNL     1     -10.224  10.403  67.526  1.00  0.00    -0.210 A  
HETATM   15  N   UNL     1     -10.506   9.804  68.707  1.00  0.00    -0.210 NA 
BRANCH  11  16
HETATM   16  C   UNL     1     -10.694   7.826  71.070  1.00  0.00    -0.228 C  
HETATM   17  O   UNL     1      -9.619   7.239  71.814  1.00  0.00    -0.151 OA 
HETATM   18  C   UNL     1     -10.069   6.022  72.432  1.00  0.00    -0.175 C  
HETATM   19  H   UNL     1     -13.118   7.824  73.297  1.00  0.00     0.000 HD 
HETATM   20  O   UNL     1     -12.327   8.144  72.878  1.00  0.00    -0.186 OA 
HETATM   21  C   UNL     1     -11.584   5.945  72.278  1.00  0.00    -0.282 C  
HETATM   22  H   UNL     1     -13.127   5.626  73.457  1.00  0.00     0.000 HD 
HETATM   23  C   UNL     1     -11.973   7.309  71.747  1.00  0.00    -0.307 C  
HETATM   24  O   UNL     1     -12.183   5.674  73.552  1.00  0.00     0.860 OA 
BRANCH  18  25
HETATM   25  C   UNL     1      -9.383   4.791  71.838  1.00  0.00    -0.139 C  
BRANCH  25  26
HETATM   26  O   UNL     1     -10.079   4.487  70.629  1.00  0.00    -0.216 OA 
BRANCH  26  27
HETATM   27  P   UNL     1      -9.278   3.560  69.593  1.00  0.00    -0.164 P  
HETATM   28  O   UNL     1      -8.098   3.085  70.591  1.00  0.00    -0.046 OA 
HETATM   29  O   UNL     1     -10.041   2.415  68.995  1.00  0.00     0.460 OA 
BRANCH  27  30
HETATM   30  O   UNL     1      -8.691   4.612  68.490  1.00  0.00    -0.096 OA 
HETATM   31  P   UNL     1      -8.251   3.954  66.952  1.00  0.00    -0.101 P  
HETATM   32  C   UNL     1      -7.785   3.257  65.325  1.00  0.00    -0.081 C  
HETATM   33  O   UNL     1      -6.845   3.440  67.648  1.00  0.00    -0.048 OA 
HETATM   34  O   UNL     1      -9.287   2.807  67.088  1.00  0.00    -0.165 OA 
HETATM   35 CL   UNL     1      -7.267   1.506  65.427  1.00  0.00    -0.050 Cl 
HETATM   36  P   UNL     1      -9.262   3.188  64.246  1.00  0.00    -0.144 P  
HETATM   37 CL   UNL     1      -6.350   4.146  64.714  1.00  0.00    -0.033 Cl 
HETATM   38  O   UNL     1      -8.753   4.560  63.470  1.00  0.00    -0.123 OA 
HETATM   39  O   UNL     1     -10.124   4.142  65.297  1.00  0.00    -0.207 OA 
HETATM   40  O   UNL     1     -10.511   3.130  63.333  1.00  0.00    -0.181 OA 
ENDBRANCH  27  30
ENDBRANCH  26  27
ENDBRANCH  25  26
ENDBRANCH  18  25
ENDBRANCH  11  16
BRANCH  14  41
HETATM   41  S   UNL     1     -10.538  12.155  67.506  1.00  0.00    -0.219 SA 
BRANCH  41  42
HETATM   42  C   UNL     1     -10.382  12.497  65.720  1.00  0.00    -0.265 C  
BRANCH  42  43
HETATM   43  C   UNL     1     -11.749  12.906  65.187  1.00  0.00    -0.385 C  
HETATM   44  C   UNL     1     -11.927  12.536  63.731  1.00  0.00    -0.517 C  
HETATM   45  F   UNL     1     -13.032  11.770  63.568  1.00  0.00    -0.645 F  
HETATM   46  F   UNL     1     -10.880  11.851  63.229  1.00  0.00    -0.400 F  
HETATM   47  F   UNL     1     -12.096  13.641  62.972  1.00  0.00    -0.491 F  
ENDBRANCH  42  43
ENDBRANCH  41  42
ENDBRANCH  14  41
ENDBRANCH   5   7
ENDBRANCH   4   5
ENDBRANCH   3   4
ENDBRANCH   2   3
TORSDOF 12
ENDMDL
MODEL      255
REMARK 921   NORMALIZED FREE ENERGY PREDICTED BY IDOCK:   11.89 KCAL/MOL
REMARK 922        TOTAL FREE ENERGY PREDICTED BY IDOCK:   19.22 KCAL/MOL
REMARK 923 INTER-LIGAND FREE ENERGY PREDICTED BY IDOCK:    1.38 KCAL/MOL
REMARK 924 INTRA-LIGAND FREE ENERGY PREDICTED BY IDOCK:   17.84 KCAL/MOL
REMARK 927      BINDING AFFINITY PREDICTED BY RF-SCORE:    0.00 PKD
ROOT
HETATM    1  C   UNL     1      -9.847   5.144  72.356  1.00  0.00    -0.167 C  
HETATM    2  S   UNL     1      -8.456   4.358  71.512  1.00  0.00    -0.106 SA 
ENDROOT
BRANCH   2   3
HETATM    3  C   UNL     1      -7.196   4.465  72.839  1.00  0.00    -0.074 C  
BRANCH   3   4
HETATM    4  C   UNL     1      -6.925   5.924  73.263  1.00  0.00    -0.084 C  
BRANCH   4   5
HETATM    5  N   UNL     1      -6.767   6.779  72.099  1.00  0.00    -0.058 NA 
HETATM    6  H   UNL     1      -5.990   7.438  72.061  1.00  0.00     0.000 HD 
BRANCH   5   7
HETATM    7  C   UNL     1      -7.657   6.711  71.041  1.00  0.00    -0.085 A  
HETATM    8  C   UNL     1      -8.247   7.879  70.534  1.00  0.00    -0.118 A  
HETATM    9  N   UNL     1      -8.090   9.211  70.866  1.00  0.00    -0.195 NA 
HETATM   10  C   UNL     1      -8.836   9.868  69.993  1.00  0.00    -0.160 A  
HETATM   11  N   UNL     1      -9.491   9.015  69.129  1.00  0.00    -0.152 NA 
HETATM   12  C   UNL     1      -9.120   7.744  69.465  1.00  0.00    -0.146 A  
HETATM   13  N   UNL     1      -7.997   5.523  70.461  1.00  0.00    -0.100 NA 
HETATM   14  C   UNL     1      -8.895   5.528  69.454  1.00  0.00    -0.106 A  
HETATM   15  N   UNL     1      -9.492   6.602  68.884  1.00  0.00    -0.131 NA 
BRANCH  11  16
HETATM   16  C   UNL     1     -10.241   9.454  67.973  1.00  0.00    -0.204 C  
HETATM   17  O   UNL     1      -9.577   8.948  66.808  1.00  0.00    -0.169 OA 
HETATM   18  C   UNL     1      -8.859  10.012  66.161  1.00  0.00    -0.148 C  
HETATM   19  H   UNL     1     -11.797  12.086  66.754  1.00  0.00     0.000 HD 
HETATM   20  O   UNL     1     -11.668  11.161  66.929  1.00  0.00    -0.410 OA 
HETATM   21  C   UNL     1      -9.279  11.328  66.807  1.00  0.00    -0.175 C  
HETATM   22  H   UNL     1      -9.915  13.084  66.191  1.00  0.00     0.000 HD 
HETATM   23  C   UNL     1     -10.451  10.950  67.690  1.00  0.00    -0.209 C  
HETATM   24  O   UNL     1      -9.654  12.265  65.788  1.00  0.00    -0.241 OA 
BRANCH  18  25
HETATM   25  C   UNL     1      -7.345   9.809  66.238  1.00  0.00    -0.099 C  
BRANCH  25  26
HETATM   26  O   UNL     1      -6.872  10.695  67.253  1.00  0.00    -0.075 OA 
BRANCH  26  27
HETATM   27  P   UNL     1      -7.043  12.257  66.930  1.00  0.00     0.316 P  
HETATM   28  O   UNL     1      -6.829  12.177  65.330  1.00  0.00     2.032 OA 
HETATM   29  O   UNL     1      -8.352  12.879  67.319  1.00  0.00    -0.178 OA 
BRANCH  27  30
HETATM   30  O   UNL     1      -5.745  12.954  67.637  1.00  0.00    -0.125 OA 
HETATM   31  P   UNL     1      -6.069  14.192  68.801  1.00  0.00    -0.100 P  
HETATM   32  C   UNL     1      -6.412  15.501  70.032  1.00  0.00    -0.105 C  
HETATM   33  O   UNL     1      -6.308  15.226  67.536  1.00  0.00    -0.206 OA 
HETATM   34  O   UNL     1      -7.442  13.566  69.161  1.00  0.00    -0.018 OA 
HETATM   35 CL   UNL     1      -7.980  16.384  69.708  1.00  0.00     0.364 Cl 
HETATM   36  P   UNL     1      -6.700  14.737  71.671  1.00  0.00     2.150 P  
HETATM   37 CL   UNL     1      -5.126  16.748  69.911  1.00  0.00    -0.157 Cl 
HETATM   38  O   UNL     1      -5.155  15.133  72.121  1.00  0.00    -0.174 OA 
HETATM   39  O   UNL     1      -6.131  13.273  71.132  1.00  0.00    -0.208 OA 
HETATM   40  O   UNL     1      -6.943  14.091  73.057  1.00  0.00     1.812 OA 
ENDBRANCH  27  30
ENDBRANCH  26  27
ENDBRANCH  25  26
ENDBRANCH  18  25
ENDBRANCH  11  16
BRANCH  14  41
HETATM   41  S   UNL     1      -9.396   3.966  68.764  1.00  0.00    -0.160 SA 
BRANCH  41  42
HETATM   42  C   UNL     1      -7.860   3.477  67.909  1.00  0.00    -0.072 C  
BRANCH  42  43
HETATM   43  C   UNL     1      -7.984   3.861  66.440  1.00  0.00    -0.097 C  
HETATM   44  C   UNL     1      -7.346   5.201  66.147  1.00  0.00    -0.081 C  
HETATM   45  F   UNL     1      -6.422   5.082  65.164  1.00  0.00    -0.032 F  
HETATM   46  F   UNL     1      -6.731   5.740  67.218  1.00  0.00    -0.053 F  
HETATM   47  F   UNL     1      -8.270   6.088  65.715  1.00  0.00    -0.111 F  
ENDBRANCH  42  43
ENDBRANCH  41  42
ENDBRANCH  14  41
ENDBRANCH   5   7
ENDBRANCH   4   5
ENDBRANCH   3   4
ENDBRANCH   2   3
TORSDOF 12
ENDMDL
MODEL      256
REMARK 921   NORMALIZED FREE ENERGY PREDICTED BY IDOCK:   12.24 KCAL/MOL
REMARK 922        TOTAL FREE ENERGY PREDICTED BY IDOCK:   19.81 KCAL/MOL
REMARK 923 INTER-LIGAND FREE ENERGY PREDICTED BY IDOCK:   10.57 KCAL/MOL
REMARK 924 INTRA-LIGAND FREE ENERGY PREDICTED BY IDOCK:    9.24 KCAL/MOL
REMARK 927      BINDING AFFINITY PREDICTED BY RF-SCORE:    0.00 PKD
ROOT
HETATM    1  C   UNL     1     -11.465  13.654  74.494  1.00  0.00     6.718 C  
HETATM    2  S   UNL     1     -11.862  12.612  73.072  1.00  0.00     7.170 SA 
ENDROOT
BRANCH   2   3
HETATM    3  C   UNL     1     -13.688  12.774  73.077  1.00  0.00     1.391 C  
BRANCH   3   4
HETATM    4  C   UNL     1     -14.360  11.772  72.115  1.00  0.00     1.339 C  
BRANCH   4   5
HETATM    5  N   UNL     1     -13.392  10.816  71.606  1.00  0.00    -0.343 NA 
HETATM    6  H   UNL     1     -13.314   9.898  72.043  1.00  0.00     0.000 HD 
BRANCH   5   7
HETATM    7  C   UNL     1     -12.572  11.134  70.537  1.00  0.00    -0.274 A  
HETATM    8  C   UNL     1     -11.794  10.143  69.920  1.00  0.00    -0.135 A  
HETATM    9  N   UNL     1     -11.685   8.784  70.142  1.00  0.00     0.055 NA 
HETATM   10  C   UNL     1     -10.864   8.350  69.199  1.00  0.00    -0.023 A  
HETATM   11  N   UNL     1     -10.414   9.378  68.396  1.00  0.00    -0.215 NA 
HETATM   12  C   UNL     1     -11.003  10.524  68.846  1.00  0.00    -0.246 A  
HETATM   13  N   UNL     1     -12.483  12.407  70.052  1.00  0.00    -0.047 NA 
HETATM   14  C   UNL     1     -11.639  12.651  69.028  1.00  0.00    -0.317 A  
HETATM   15  N   UNL     1     -10.874  11.759  68.356  1.00  0.00    -0.211 NA 
BRANCH  11  16
HETATM   16  C   UNL     1      -9.641   9.181  67.189  1.00  0.00    -0.164 C  
HETATM   17  O   UNL     1      -8.417   8.534  67.560  1.00  0.00    -0.126 OA 
HETATM   18  C   UNL     1      -7.340   9.485  67.533  1.00  0.00    -0.090 C  
HETATM   19  H   UNL     1      -8.765  10.707  64.408  1.00  0.00     0.000 HD 
HETATM   20  O   UNL     1      -9.031   9.969  64.943  1.00  0.00    -0.173 OA 
HETATM   21  C   UNL     1      -7.853  10.762  66.875  1.00  0.00    -0.130 C  
HETATM   22  H   UNL     1      -7.267  11.960  65.429  1.00  0.00     0.000 HD 
HETATM   23  C   UNL     1      -9.210  10.375  66.323  1.00  0.00    -0.166 C  
HETATM   24  O   UNL     1      -6.947  11.165  65.839  1.00  0.00    -0.027 OA 
BRANCH  18  25
HETATM   25  C   UNL     1      -6.785   9.761  68.931  1.00  0.00    -0.050 C  
BRANCH  25  26
HETATM   26  O   UNL     1      -6.780   8.507  69.615  1.00  0.00    -0.039 OA 
BRANCH  26  27
HETATM   27  P   UNL     1      -6.503   7.226  68.691  1.00  0.00    -0.042 P  
HETATM   28  O   UNL     1      -7.677   7.477  67.608  1.00  0.00    -0.110 OA 
HETATM   29  O   UNL     1      -5.140   7.132  68.072  1.00  0.00    -0.014 OA 
BRANCH  27  30
HETATM   30  O   UNL     1      -6.883   5.956  69.647  1.00  0.00    -0.056 OA 
HETATM   31  P   UNL     1      -7.030   6.279  71.339  1.00  0.00    -0.079 P  
HETATM   32  C   UNL     1      -7.186   6.622  73.130  1.00  0.00    -0.077 C  
HETATM   33  O   UNL     1      -5.382   6.232  71.425  1.00  0.00    -0.021 OA 
HETATM   34  O   UNL     1      -7.443   7.751  71.075  1.00  0.00    -0.071 OA 
HETATM   35 CL   UNL     1      -6.144   8.021  73.677  1.00  0.00    -0.074 Cl 
HETATM   36  P   UNL     1      -8.883   7.206  73.494  1.00  0.00    -0.188 P  
HETATM   37 CL   UNL     1      -6.586   5.194  74.038  1.00  0.00    -0.071 Cl 
HETATM   38  O   UNL     1      -9.277   5.696  74.052  1.00  0.00    -0.125 OA 
HETATM   39  O   UNL     1      -9.406   6.748  71.986  1.00  0.00    -0.143 OA 
HETATM   40  O   UNL     1     -10.318   7.699  73.802  1.00  0.00    -0.277 OA 
ENDBRANCH  27  30
ENDBRANCH  26  27
ENDBRANCH  25  26
ENDBRANCH  18  25
ENDBRANCH  11  16
BRANCH  14  41
HETATM   41  S   UNL     1     -11.467  14.329  68.461  1.00  0.00    -0.319 SA 
BRANCH  41  42
HETATM   42  C   UNL     1      -9.932  14.191  67.484  1.00  0.00    -0.236 C  
BRANCH  42  43
HETATM   43  C   UNL     1     -10.099  15.002  66.206  1.00  0.00    -0.298 C  
HETATM   44  C   UNL     1     -10.832  14.227  65.132  1.00  0.00    -0.378 C  
HETATM   45  F   UNL     1     -11.917  14.917  64.708  1.00  0.00    -0.379 F  
HETATM   46  F   UNL     1     -11.256  13.019  65.549  1.00  0.00    -0.297 F  
HETATM   47  F   UNL     1     -10.039  14.034  64.055  1.00  0.00    -0.074 F  
ENDBRANCH  42  43
ENDBRANCH  41  42
ENDBRANCH  14  41
ENDBRANCH   5   7
ENDBRANCH   4   5
ENDBRANCH   3   4
ENDBRANCH   2   3
TORSDOF 12
ENDMDL
MODEL      257
REMARK 921   NORMALIZED FREE ENERGY PREDICTED BY IDOCK:   13.03 KCAL/MOL
REMARK 922        TOTAL FREE ENERGY PREDICTED BY IDOCK:   21.17 KCAL/MOL
REMARK 923 INTER-LIGAND FREE ENERGY PREDICTED BY IDOCK:    7.75 KCAL/MOL
REMARK 924 INTRA-LIGAND FREE ENERGY PREDICTED BY IDOCK:   13.41 KCAL/MOL
REMARK 927      BINDING AFFINITY PREDICTED BY RF-SCORE:    0.00 PKD
ROOT
HETATM    1  C   UNL     1     -10.845  14.232  65.126  1.00  0.00    -0.378 C  
HETATM    2  S   UNL     1     -10.513  13.530  63.495  1.00  0.00     1.936 SA 
ENDROOT
BRANCH   2   3
HETATM    3  C   UNL     1     -12.208  13.567  62.798  1.00  0.00     1.090 C  
BRANCH   3   4
HETATM    4  C   UNL     1     -12.981  12.263  63.087  1.00  0.00     0.210 C  
BRANCH   4   5
HETATM    5  N   UNL     1     -12.068  11.190  63.441  1.00  0.00    -0.292 NA 
HETATM    6  H   UNL     1     -12.042  10.344  62.872  1.00  0.00     0.000 HD 
BRANCH   5   7
HETATM    7  C   UNL     1     -11.234  11.300  64.540  1.00  0.00    -0.106 A  
HETATM    8  C   UNL     1     -10.249  10.330  64.783  1.00  0.00    -0.168 A  
HETATM    9  N   UNL     1      -9.870   9.204  64.078  1.00  0.00     1.337 NA 
HETATM   10  C   UNL     1      -8.828   8.725  64.741  1.00  0.00    -0.045 A  
HETATM   11  N   UNL     1      -8.539   9.477  65.860  1.00  0.00    -0.128 NA 
HETATM   12  C   UNL     1      -9.438  10.504  65.895  1.00  0.00    -0.190 A  
HETATM   13  N   UNL     1     -11.339  12.335  65.423  1.00  0.00    -0.332 NA 
HETATM   14  C   UNL     1     -10.514  12.361  66.490  1.00  0.00    -0.230 A  
HETATM   15  N   UNL     1      -9.521  11.490  66.790  1.00  0.00    -0.185 NA 
BRANCH  11  16
HETATM   16  C   UNL     1      -7.361   9.288  66.678  1.00  0.00    -0.086 C  
HETATM   17  O   UNL     1      -7.629   8.209  67.582  1.00  0.00    -0.095 OA 
HETATM   18  C   UNL     1      -7.882   8.732  68.896  1.00  0.00    -0.104 C  
HETATM   19  H   UNL     1      -5.068  10.977  68.328  1.00  0.00     0.000 HD 
HETATM   20  O   UNL     1      -5.399  10.276  67.779  1.00  0.00    -0.041 OA 
HETATM   21  C   UNL     1      -7.520  10.213  68.894  1.00  0.00    -0.086 C  
HETATM   22  H   UNL     1      -6.431  11.420  70.002  1.00  0.00     0.000 HD 
HETATM   23  C   UNL     1      -6.825  10.423  67.564  1.00  0.00    -0.075 C  
HETATM   24  O   UNL     1      -6.657  10.498  70.003  1.00  0.00    -0.113 OA 
BRANCH  18  25
HETATM   25  C   UNL     1      -9.333   8.511  69.330  1.00  0.00    -0.154 C  
BRANCH  25  26
HETATM   26  O   UNL     1      -9.984   9.776  69.210  1.00  0.00    -0.172 OA 
BRANCH  26  27
HETATM   27  P   UNL     1     -10.418  10.455  70.597  1.00  0.00     0.902 P  
HETATM   28  O   UNL     1     -12.012  10.217  70.470  1.00  0.00    -0.284 OA 
HETATM   29  O   UNL     1      -9.831   9.861  71.843  1.00  0.00     0.875 OA 
BRANCH  27  30
HETATM   30  O   UNL     1     -10.069  12.038  70.392  1.00  0.00     2.518 OA 
HETATM   31  P   UNL     1     -11.357  13.157  70.674  1.00  0.00     1.708 P  
HETATM   32  C   UNL     1     -12.720  14.342  70.974  1.00  0.00    -0.359 C  
HETATM   33  O   UNL     1     -11.925  12.782  69.171  1.00  0.00    -0.291 OA 
HETATM   34  O   UNL     1     -12.038  12.198  71.686  1.00  0.00     0.330 OA 
HETATM   35 CL   UNL     1     -14.368  13.621  70.648  1.00  0.00     1.730 Cl 
HETATM   36  P   UNL     1     -12.794  14.748  72.758  1.00  0.00    -0.455 P  
HETATM   37 CL   UNL     1     -12.555  15.704  69.817  1.00  0.00    -0.166 Cl 
HETATM   38  O   UNL     1     -12.015  16.179  72.458  1.00  0.00    -0.494 OA 
HETATM   39  O   UNL     1     -11.316  14.038  73.021  1.00  0.00     1.733 OA 
HETATM   40  O   UNL     1     -12.856  15.092  74.266  1.00  0.00    -0.390 OA 
ENDBRANCH  27  30
ENDBRANCH  26  27
ENDBRANCH  25  26
ENDBRANCH  18  25
ENDBRANCH  11  16
BRANCH  14  41
HETATM   41  S   UNL     1     -10.717  13.669  67.680  1.00  0.00    -0.247 SA 
BRANCH  41  42
HETATM   42  C   UNL     1      -9.008  13.816  68.302  1.00  0.00    -0.186 C  
BRANCH  42  43
HETATM   43  C   UNL     1      -8.317  14.946  67.550  1.00  0.00    -0.195 C  
HETATM   44  C   UNL     1      -7.247  15.615  68.385  1.00  0.00    -0.115 C  
HETATM   45  F   UNL     1      -6.057  15.593  67.738  1.00  0.00    -0.119 F  
HETATM   46  F   UNL     1      -7.068  15.027  69.584  1.00  0.00    -0.147 F  
HETATM   47  F   UNL     1      -7.553  16.913  68.607  1.00  0.00    -0.187 F  
ENDBRANCH  42  43
ENDBRANCH  41  42
ENDBRANCH  14  41
ENDBRANCH   5   7
ENDBRANCH   4   5
ENDBRANCH   3   4
ENDBRANCH   2   3
TORSDOF 12
ENDMDL
MODEL      258
REMARK 921   NORMALIZED FREE ENERGY PREDICTED BY IDOCK:   13.11 KCAL/MOL
REMARK 922        TOTAL FREE ENERGY PREDICTED BY IDOCK:   21.29 KCAL/MOL
REMARK 923 INTER-LIGAND FREE ENERGY PREDICTED BY IDOCK:   12.57 KCAL/MOL
REMARK 924 INTRA-LIGAND FREE ENERGY PREDICTED BY IDOCK:    8.73 KCAL/MOL
REMARK 927      BINDING AFFINITY PREDICTED BY RF-SCORE:    0.00 PKD
ROOT
HETATM    1  C   UNL     1     -11.465  13.654  74.494  1.00  0.00     6.718 C  
HETATM    2  S   UNL     1     -11.862  12.612  73.072  1.00  0.00     7.170 SA 
ENDROOT
BRANCH   2   3
HETATM    3  C   UNL     1     -13.688  12.774  73.077  1.00  0.00     1.391 C  
BRANCH   3   4
HETATM    4  C   UNL     1     -14.360  11.772  72.115  1.00  0.00     1.339 C  
BRANCH   4   5
HETATM    5  N   UNL     1     -13.392  10.816  71.606  1.00  0.00    -0.343 NA 
HETATM    6  H   UNL     1     -13.314   9.898  72.043  1.00  0.00     0.000 HD 
BRANCH   5   7
HETATM    7  C   UNL     1     -12.572  11.134  70.537  1.00  0.00    -0.274 A  
HETATM    8  C   UNL     1     -11.794  10.143  69.920  1.00  0.00    -0.135 A  
HETATM    9  N   UNL     1     -11.685   8.784  70.142  1.00  0.00     0.055 NA 
HETATM   10  C   UNL     1     -10.864   8.350  69.199  1.00  0.00    -0.023 A  
HETATM   11  N   UNL     1     -10.414   9.378  68.396  1.00  0.00    -0.215 NA 
HETATM   12  C   UNL     1     -11.003  10.524  68.846  1.00  0.00    -0.246 A  
HETATM   13  N   UNL     1     -12.483  12.407  70.052  1.00  0.00    -0.047 NA 
HETATM   14  C   UNL     1     -11.639  12.651  69.028  1.00  0.00    -0.317 A  
HETATM   15  N   UNL     1     -10.874  11.759  68.356  1.00  0.00    -0.211 NA 
BRANCH  11  16
HETATM   16  C   UNL     1      -9.641   9.181  67.189  1.00  0.00    -0.164 C  
HETATM   17  O   UNL     1      -8.417   8.534  67.560  1.00  0.00    -0.126 OA 
HETATM   18  C   UNL     1      -7.340   9.485  67.533  1.00  0.00    -0.090 C  
HETATM   19  H   UNL     1      -8.765  10.707  64.408  1.00  0.00     0.000 HD 
HETATM   20  O   UNL     1      -9.031   9.969  64.943  1.00  0.00    -0.173 OA 
HETATM   21  C   UNL     1      -7.853  10.762  66.875  1.00  0.00    -0.130 C  
HETATM   22  H   UNL     1      -7.267  11.960  65.429  1.00  0.00     0.000 HD 
HETATM   23  C   UNL     1      -9.210  10.375  66.323  1.00  0.00    -0.166 C  
HETATM   24  O   UNL     1      -6.947  11.165  65.839  1.00  0.00    -0.027 OA 
BRANCH  18  25
HETATM   25  C   UNL     1      -6.785   9.761  68.931  1.00  0.00    -0.050 C  
BRANCH  25  26
HETATM   26  O   UNL     1      -6.780   8.507  69.615  1.00  0.00    -0.039 OA 
BRANCH  26  27
HETATM   27  P   UNL     1      -6.503   7.226  68.691  1.00  0.00    -0.042 P  
HETATM   28  O   UNL     1      -7.677   7.477  67.608  1.00  0.00    -0.110 OA 
HETATM   29  O   UNL     1      -5.140   7.132  68.072  1.00  0.00    -0.014 OA 
BRANCH  27  30
HETATM   30  O   UNL     1      -6.883   5.956  69.647  1.00  0.00    -0.056 OA 
HETATM   31  P   UNL     1      -8.166   4.933  69.100  1.00  0.00    -0.078 P  
HETATM   32  C   UNL     1      -9.524   3.851  68.522  1.00  0.00    -0.148 C  
HETATM   33  O   UNL     1      -9.223   6.064  69.675  1.00  0.00    -0.136 OA 
HETATM   34  O   UNL     1      -7.876   5.276  67.615  1.00  0.00    -0.094 OA 
HETATM   35 CL   UNL     1     -10.744   4.738  67.488  1.00  0.00     0.162 Cl 
HETATM   36  P   UNL     1      -8.854   2.591  67.376  1.00  0.00    -0.158 P  
HETATM   37 CL   UNL     1     -10.440   3.271  69.953  1.00  0.00     1.514 Cl 
HETATM   38  O   UNL     1      -8.884   1.472  68.598  1.00  0.00    -0.063 OA 
HETATM   39  O   UNL     1      -7.295   2.970  67.807  1.00  0.00    -0.053 OA 
HETATM   40  O   UNL     1      -8.286   1.524  66.408  1.00  0.00    -0.077 OA 
ENDBRANCH  27  30
ENDBRANCH  26  27
ENDBRANCH  25  26
ENDBRANCH  18  25
ENDBRANCH  11  16
BRANCH  14  41
HETATM   41  S   UNL     1     -11.467  14.329  68.461  1.00  0.00    -0.319 SA 
BRANCH  41  42
HETATM   42  C   UNL     1      -9.932  14.191  67.484  1.00  0.00    -0.236 C  
BRANCH  42  43
HETATM   43  C   UNL     1     -10.099  15.002  66.206  1.00  0.00    -0.298 C  
HETATM   44  C   UNL     1     -10.832  14.227  65.132  1.00  0.00    -0.378 C  
HETATM   45  F   UNL     1     -11.917  14.917  64.708  1.00  0.00    -0.379 F  
HETATM   46  F   UNL     1     -11.256  13.019  65.549  1.00  0.00    -0.297 F  
HETATM   47  F   UNL     1     -10.039  14.034  64.055  1.00  0.00    -0.074 F  
ENDBRANCH  42  43
ENDBRANCH  41  42
ENDBRANCH  14  41
ENDBRANCH   5   7
ENDBRANCH   4   5
ENDBRANCH   3   4
ENDBRANCH   2   3
TORSDOF 12
ENDMDL
MODEL      259
REMARK 921   NORMALIZED FREE ENERGY PREDICTED BY IDOCK:   13.47 KCAL/MOL
REMARK 922        TOTAL FREE ENERGY PREDICTED BY IDOCK:   21.91 KCAL/MOL
REMARK 923 INTER-LIGAND FREE ENERGY PREDICTED BY IDOCK:   -6.28 KCAL/MOL
REMARK 924 INTRA-LIGAND FREE ENERGY PREDICTED BY IDOCK:   28.18 KCAL/MOL
REMARK 927      BINDING AFFINITY PREDICTED BY RF-SCORE:    0.00 PKD
ROOT
HETATM    1  C   UNL     1      -7.199   5.143  68.344  1.00  0.00    -0.063 C  
HETATM    2  S   UNL     1      -7.490   6.903  68.052  1.00  0.00    -0.101 SA 
ENDROOT
BRANCH   2   3
HETATM    3  C   UNL     1      -7.032   6.996  66.280  1.00  0.00    -0.069 C  
BRANCH   3   4
HETATM    4  C   UNL     1      -8.220   6.653  65.356  1.00  0.00    -0.138 C  
BRANCH   4   5
HETATM    5  N   UNL     1      -9.124   7.784  65.237  1.00  0.00    -0.365 NA 
HETATM    6  H   UNL     1      -9.429   8.088  64.312  1.00  0.00     0.000 HD 
BRANCH   5   7
HETATM    7  C   UNL     1      -9.576   8.454  66.359  1.00  0.00    -0.237 A  
HETATM    8  C   UNL     1      -9.868   7.750  67.537  1.00  0.00    -0.171 A  
HETATM    9  N   UNL     1      -9.757   6.412  67.864  1.00  0.00    -0.121 NA 
HETATM   10  C   UNL     1     -10.095   6.345  69.142  1.00  0.00    -0.165 A  
HETATM   11  N   UNL     1     -10.449   7.580  69.646  1.00  0.00    -0.229 NA 
HETATM   12  C   UNL     1     -10.305   8.482  68.631  1.00  0.00    -0.198 A  
HETATM   13  N   UNL     1      -9.760   9.807  66.365  1.00  0.00    -0.200 NA 
HETATM   14  C   UNL     1     -10.234  10.391  67.485  1.00  0.00    -0.210 A  
HETATM   15  N   UNL     1     -10.516   9.799  68.670  1.00  0.00    -0.201 NA 
BRANCH  11  16
HETATM   16  C   UNL     1     -10.703   7.838  71.046  1.00  0.00    -0.228 C  
HETATM   17  O   UNL     1      -9.629   7.258  71.796  1.00  0.00    -0.151 OA 
HETATM   18  C   UNL     1     -10.076   6.045  72.422  1.00  0.00    -0.175 C  
HETATM   19  H   UNL     1     -13.130   7.845  73.270  1.00  0.00     0.000 HD 
HETATM   20  O   UNL     1     -12.339   8.164  72.851  1.00  0.00    -0.186 OA 
HETATM   21  C   UNL     1     -11.591   5.963  72.266  1.00  0.00    -0.282 C  
HETATM   22  H   UNL     1     -13.134   5.649  73.445  1.00  0.00     0.000 HD 
HETATM   23  C   UNL     1     -11.982   7.323  71.725  1.00  0.00    -0.307 C  
HETATM   24  O   UNL     1     -12.191   5.700  73.542  1.00  0.00     0.860 OA 
BRANCH  18  25
HETATM   25  C   UNL     1      -9.386   4.811  71.838  1.00  0.00    -0.139 C  
BRANCH  25  26
HETATM   26  O   UNL     1     -10.081   4.497  70.630  1.00  0.00    -0.216 OA 
BRANCH  26  27
HETATM   27  P   UNL     1      -9.276   3.564  69.602  1.00  0.00    -0.164 P  
HETATM   28  O   UNL     1      -8.097   3.099  70.604  1.00  0.00    -0.049 OA 
HETATM   29  O   UNL     1     -10.036   2.414  69.010  1.00  0.00     0.460 OA 
BRANCH  27  30
HETATM   30  O   UNL     1      -8.690   4.610  68.492  1.00  0.00    -0.096 OA 
HETATM   31  P   UNL     1      -8.246   3.942  66.959  1.00  0.00    -0.100 P  
HETATM   32  C   UNL     1      -7.777   3.235  65.337  1.00  0.00    -0.081 C  
HETATM   33  O   UNL     1      -6.840   3.436  67.661  1.00  0.00    -0.048 OA 
HETATM   34  O   UNL     1      -9.281   2.794  67.101  1.00  0.00    -0.169 OA 
HETATM   35 CL   UNL     1      -7.256   1.486  65.452  1.00  0.00    -0.050 Cl 
HETATM   36  P   UNL     1      -9.253   3.155  64.257  1.00  0.00    -0.144 P  
HETATM   37 CL   UNL     1      -6.343   4.123  64.722  1.00  0.00    -0.033 Cl 
HETATM   38  O   UNL     1      -8.745   4.523  63.472  1.00  0.00    -0.123 OA 
HETATM   39  O   UNL     1     -10.117   4.115  65.300  1.00  0.00    -0.207 OA 
HETATM   40  O   UNL     1     -10.500   3.088  63.343  1.00  0.00    -0.176 OA 
ENDBRANCH  27  30
ENDBRANCH  26  27
ENDBRANCH  25  26
ENDBRANCH  18  25
ENDBRANCH  11  16
BRANCH  14  41
HETATM   41  S   UNL     1     -10.552  12.141  67.452  1.00  0.00    -0.231 SA 
BRANCH  41  42
HETATM   42  C   UNL     1     -11.795  12.275  68.781  1.00  0.00    -0.306 C  
BRANCH  42  43
HETATM   43  C   UNL     1     -11.795  10.974  69.573  1.00  0.00    -0.404 C  
HETATM   44  C   UNL     1     -12.717  11.037  70.771  1.00  0.00    -0.323 C  
HETATM   45  F   UNL     1     -13.617  10.026  70.731  1.00  0.00    -0.432 F  
HETATM   46  F   UNL     1     -13.407  12.192  70.847  1.00  0.00    -0.126 F  
HETATM   47  F   UNL     1     -12.020  10.900  71.921  1.00  0.00    -0.181 F  
ENDBRANCH  42  43
ENDBRANCH  41  42
ENDBRANCH  14  41
ENDBRANCH   5   7
ENDBRANCH   4   5
ENDBRANCH   3   4
ENDBRANCH   2   3
TORSDOF 12
ENDMDL
MODEL      260
REMARK 921   NORMALIZED FREE ENERGY PREDICTED BY IDOCK:   14.53 KCAL/MOL
REMARK 922        TOTAL FREE ENERGY PREDICTED BY IDOCK:   23.71 KCAL/MOL
REMARK 923 INTER-LIGAND FREE ENERGY PREDICTED BY IDOCK:   15.15 KCAL/MOL
REMARK 924 INTRA-LIGAND FREE ENERGY PREDICTED BY IDOCK:    8.56 KCAL/MOL
REMARK 927      BINDING AFFINITY PREDICTED BY RF-SCORE:    0.00 PKD
ROOT
HETATM    1  C   UNL     1      -9.787   6.437  64.931  1.00  0.00     2.062 C  
HETATM    2  S   UNL     1      -8.557   7.739  64.691  1.00  0.00     0.294 SA 
ENDROOT
BRANCH   2   3
HETATM    3  C   UNL     1      -9.506   9.173  65.325  1.00  0.00    -0.099 C  
BRANCH   3   4
HETATM    4  C   UNL     1      -9.565  10.326  64.301  1.00  0.00    -0.313 C  
BRANCH   4   5
HETATM    5  N   UNL     1      -8.755  11.449  64.740  1.00  0.00    -0.353 NA 
HETATM    6  H   UNL     1      -8.525  12.192  64.081  1.00  0.00     0.000 HD 
BRANCH   5   7
HETATM    7  C   UNL     1      -8.291  11.525  66.042  1.00  0.00     0.042 A  
HETATM    8  C   UNL     1      -8.311  12.746  66.732  1.00  0.00     0.019 A  
HETATM    9  N   UNL     1      -8.771  14.000  66.377  1.00  0.00     0.076 NA 
HETATM   10  C   UNL     1      -8.607  14.741  67.462  1.00  0.00    -0.187 A  
HETATM   11  N   UNL     1      -8.034  14.026  68.492  1.00  0.00    -0.140 NA 
HETATM   12  C   UNL     1      -7.843  12.752  68.038  1.00  0.00    -0.150 A  
HETATM   13  N   UNL     1      -7.796  10.433  66.695  1.00  0.00    -0.116 NA 
HETATM   14  C   UNL     1      -7.331  10.587  67.951  1.00  0.00    -0.089 A  
HETATM   15  N   UNL     1      -7.334  11.713  68.703  1.00  0.00    -0.105 NA 
BRANCH  11  16
HETATM   16  C   UNL     1      -7.890  14.528  69.841  1.00  0.00     0.399 C  
HETATM   17  O   UNL     1      -8.858  15.569  70.022  1.00  0.00    -0.033 OA 
HETATM   18  C   UNL     1      -8.204  16.848  69.979  1.00  0.00     1.745 C  
HETATM   19  H   UNL     1      -5.600  15.365  72.052  1.00  0.00     0.000 HD 
HETATM   20  O   UNL     1      -6.421  14.990  71.757  1.00  0.00     0.758 OA 
HETATM   21  C   UNL     1      -6.698  16.612  70.014  1.00  0.00     0.327 C  
HETATM   22  H   UNL     1      -5.170  17.282  71.056  1.00  0.00     0.000 HD 
HETATM   23  C   UNL     1      -6.562  15.135  70.321  1.00  0.00    -0.038 C  
HETATM   24  O   UNL     1      -6.108  17.430  71.033  1.00  0.00     0.642 OA 
BRANCH  18  25
HETATM   25  C   UNL     1      -8.615  17.659  68.748  1.00  0.00    -0.202 C  
BRANCH  25  26
HETATM   26  O   UNL     1      -9.431  16.797  67.953  1.00  0.00    -0.226 OA 
BRANCH  26  27
HETATM   27  P   UNL     1     -10.585  17.531  67.115  1.00  0.00    -0.128 P  
HETATM   28  O   UNL     1     -10.319  19.035  67.643  1.00  0.00    -0.373 OA 
HETATM   29  O   UNL     1     -10.507  17.407  65.622  1.00  0.00    -0.577 OA 
BRANCH  27  30
HETATM   30  O   UNL     1     -11.972  16.948  67.754  1.00  0.00     0.719 OA 
HETATM   31  P   UNL     1     -12.037  15.243  68.035  1.00  0.00     0.520 P  
HETATM   32  C   UNL     1     -12.106  13.438  68.333  1.00  0.00    -0.235 C  
HETATM   33  O   UNL     1     -12.352  15.056  66.425  1.00  0.00     0.082 OA 
HETATM   34  O   UNL     1     -10.499  15.163  68.224  1.00  0.00    -0.234 OA 
HETATM   35 CL   UNL     1     -11.048  12.491  67.181  1.00  0.00    -0.301 Cl 
HETATM   36  P   UNL     1     -11.375  13.061  69.968  1.00  0.00     0.445 P  
HETATM   37 CL   UNL     1     -13.781  12.873  68.021  1.00  0.00     7.332 Cl 
HETATM   38  O   UNL     1     -12.896  12.924  70.610  1.00  0.00    -0.123 OA 
HETATM   39  O   UNL     1     -11.380  14.669  70.385  1.00  0.00    -0.247 OA 
HETATM   40  O   UNL     1     -10.757  12.742  71.351  1.00  0.00     4.675 OA 
ENDBRANCH  27  30
ENDBRANCH  26  27
ENDBRANCH  25  26
ENDBRANCH  18  25
ENDBRANCH  11  16
BRANCH  14  41
HETATM   41  S   UNL     1      -6.609   9.176  68.761  1.00  0.00    -0.053 SA 
BRANCH  41  42
HETATM   42  C   UNL     1      -7.567   7.828  67.990  1.00  0.00    -0.120 C  
BRANCH  42  43
HETATM   43  C   UNL     1      -7.323   6.549  68.781  1.00  0.00    -0.087 C  
HETATM   44  C   UNL     1      -8.615   5.873  69.183  1.00  0.00    -0.115 C  
HETATM   45  F   UNL     1      -8.637   4.593  68.743  1.00  0.00    -0.084 F  
HETATM   46  F   UNL     1      -9.708   6.490  68.693  1.00  0.00    -0.129 F  
HETATM   47  F   UNL     1      -8.737   5.832  70.528  1.00  0.00    -0.128 F  
ENDBRANCH  42  43
ENDBRANCH  41  42
ENDBRANCH  14  41
ENDBRANCH   5   7
ENDBRANCH   4   5
ENDBRANCH   3   4
ENDBRANCH   2   3
TORSDOF 12
ENDMDL
MODEL      261
REMARK 921   NORMALIZED FREE ENERGY PREDICTED BY IDOCK:   15.54 KCAL/MOL
REMARK 922        TOTAL FREE ENERGY PREDICTED BY IDOCK:   25.44 KCAL/MOL
REMARK 923 INTER-LIGAND FREE ENERGY PREDICTED BY IDOCK:   -0.65 KCAL/MOL
REMARK 924 INTRA-LIGAND FREE ENERGY PREDICTED BY IDOCK:   26.09 KCAL/MOL
REMARK 927      BINDING AFFINITY PREDICTED BY RF-SCORE:    0.00 PKD
ROOT
HETATM    1  C   UNL     1     -11.311  13.238  66.305  1.00  0.00    -0.309 C  
HETATM    2  S   UNL     1     -11.890  14.235  64.914  1.00  0.00    -0.432 SA 
ENDROOT
BRANCH   2   3
HETATM    3  C   UNL     1     -12.658  12.919  63.896  1.00  0.00    -0.247 C  
BRANCH   3   4
HETATM    4  C   UNL     1     -11.659  12.307  62.891  1.00  0.00     0.283 C  
BRANCH   4   5
HETATM    5  N   UNL     1     -10.959  11.180  63.481  1.00  0.00    -0.668 NA 
HETATM    6  H   UNL     1     -10.454  10.530  62.878  1.00  0.00     0.000 HD 
BRANCH   5   7
HETATM    7  C   UNL     1     -10.966  10.975  64.849  1.00  0.00    -0.060 A  
HETATM    8  C   UNL     1     -10.254   9.904  65.411  1.00  0.00    -0.078 A  
HETATM    9  N   UNL     1      -9.440   8.941  64.846  1.00  0.00     0.204 NA 
HETATM   10  C   UNL     1      -8.973   8.248  65.873  1.00  0.00    -0.163 A  
HETATM   11  N   UNL     1      -9.476   8.704  67.074  1.00  0.00    -0.160 NA 
HETATM   12  C   UNL     1     -10.292   9.761  66.790  1.00  0.00    -0.218 A  
HETATM   13  N   UNL     1     -11.661  11.790  65.696  1.00  0.00    -0.316 NA 
HETATM   14  C   UNL     1     -11.650  11.512  67.016  1.00  0.00    -0.122 A  
HETATM   15  N   UNL     1     -10.974  10.523  67.647  1.00  0.00    -0.300 NA 
BRANCH  11  16
HETATM   16  C   UNL     1      -9.017   8.247  68.368  1.00  0.00    -0.136 C  
HETATM   17  O   UNL     1      -9.410   9.227  69.337  1.00  0.00    -0.153 OA 
HETATM   18  C   UNL     1      -8.267  10.003  69.730  1.00  0.00    -0.178 C  
HETATM   19  H   UNL     1      -6.422   6.862  69.844  1.00  0.00     0.000 HD 
HETATM   20  O   UNL     1      -7.345   7.012  69.678  1.00  0.00    -0.081 OA 
HETATM   21  C   UNL     1      -7.021   9.331  69.163  1.00  0.00    -0.058 C  
HETATM   22  H   UNL     1      -5.275   8.743  69.853  1.00  0.00     0.000 HD 
HETATM   23  C   UNL     1      -7.524   8.003  68.635  1.00  0.00    -0.098 C  
HETATM   24  O   UNL     1      -6.051   9.162  70.205  1.00  0.00    -0.036 OA 
BRANCH  18  25
HETATM   25  C   UNL     1      -8.377  11.457  69.267  1.00  0.00     0.259 C  
BRANCH  25  26
HETATM   26  O   UNL     1      -7.041  11.912  69.051  1.00  0.00    -0.111 OA 
BRANCH  26  27
HETATM   27  P   UNL     1      -6.587  11.995  67.514  1.00  0.00    -0.151 P  
HETATM   28  O   UNL     1      -5.126  11.324  67.680  1.00  0.00    -0.040 OA 
HETATM   29  O   UNL     1      -7.456  11.278  66.523  1.00  0.00    -0.144 OA 
BRANCH  27  30
HETATM   30  O   UNL     1      -6.441  13.597  67.228  1.00  0.00    -0.279 OA 
HETATM   31  P   UNL     1      -7.875  14.548  67.403  1.00  0.00    -0.127 P  
HETATM   32  C   UNL     1      -9.393  15.554  67.590  1.00  0.00    -0.203 C  
HETATM   33  O   UNL     1      -8.330  14.020  65.907  1.00  0.00     1.168 OA 
HETATM   34  O   UNL     1      -8.464  13.562  68.447  1.00  0.00    -0.165 OA 
HETATM   35 CL   UNL     1     -10.918  14.603  67.254  1.00  0.00    -0.308 Cl 
HETATM   36  P   UNL     1      -9.590  16.041  69.343  1.00  0.00    -0.123 P  
HETATM   37 CL   UNL     1      -9.363  16.863  66.361  1.00  0.00    -0.288 Cl 
HETATM   38  O   UNL     1      -8.995  17.546  68.986  1.00  0.00    -0.180 OA 
HETATM   39  O   UNL     1      -8.043  15.550  69.695  1.00  0.00    -0.218 OA 
HETATM   40  O   UNL     1      -9.756  16.455  70.826  1.00  0.00     1.553 OA 
ENDBRANCH  27  30
ENDBRANCH  26  27
ENDBRANCH  25  26
ENDBRANCH  18  25
ENDBRANCH  11  16
BRANCH  14  41
HETATM   41  S   UNL     1     -12.630  12.529  68.099  1.00  0.00     1.677 SA 
BRANCH  41  42
HETATM   42  C   UNL     1     -12.824  11.403  69.522  1.00  0.00     0.573 C  
BRANCH  42  43
HETATM   43  C   UNL     1     -11.645  10.439  69.537  1.00  0.00    -0.288 C  
HETATM   44  C   UNL     1     -11.983   9.137  70.230  1.00  0.00     0.151 C  
HETATM   45  F   UNL     1     -11.742   8.087  69.410  1.00  0.00     0.248 F  
HETATM   46  F   UNL     1     -13.271   9.064  70.617  1.00  0.00    -0.044 F  
HETATM   47  F   UNL     1     -11.215   8.966  71.329  1.00  0.00    -0.280 F  
ENDBRANCH  42  43
ENDBRANCH  41  42
ENDBRANCH  14  41
ENDBRANCH   5   7
ENDBRANCH   4   5
ENDBRANCH   3   4
ENDBRANCH   2   3
TORSDOF 12
ENDMDL
MODEL      262
REMARK 921   NORMALIZED FREE ENERGY PREDICTED BY IDOCK:   15.60 KCAL/MOL
REMARK 922        TOTAL FREE ENERGY PREDICTED BY IDOCK:   25.54 KCAL/MOL
REMARK 923 INTER-LIGAND FREE ENERGY PREDICTED BY IDOCK:   16.56 KCAL/MOL
REMARK 924 INTRA-LIGAND FREE ENERGY PREDICTED BY IDOCK:    8.98 KCAL/MOL
REMARK 927      BINDING AFFINITY PREDICTED BY RF-SCORE:    0.00 PKD
ROOT
HETATM    1  C   UNL     1     -11.366  13.030  73.800  1.00  0.00     9.834 C  
HETATM    2  S   UNL     1     -11.792  11.857  72.494  1.00  0.00     5.726 SA 
ENDROOT
BRANCH   2   3
HETATM    3  C   UNL     1     -13.615  11.836  72.687  1.00  0.00     0.901 C  
BRANCH   3   4
HETATM    4  C   UNL     1     -14.279  10.761  71.800  1.00  0.00     1.157 C  
BRANCH   4   5
HETATM    5  N   UNL     1     -13.275   9.976  71.103  1.00  0.00    -0.417 NA 
HETATM    6  H   UNL     1     -12.984   9.078  71.486  1.00  0.00     0.000 HD 
BRANCH   5   7
HETATM    7  C   UNL     1     -12.708  10.432  69.925  1.00  0.00     0.090 A  
HETATM    8  C   UNL     1     -11.879   9.592  69.166  1.00  0.00     0.730 A  
HETATM    9  N   UNL     1     -11.500   8.274  69.332  1.00  0.00     0.397 NA 
HETATM   10  C   UNL     1     -10.779   7.990  68.258  1.00  0.00    -0.023 A  
HETATM   11  N   UNL     1     -10.652   9.078  67.421  1.00  0.00    -0.273 NA 
HETATM   12  C   UNL     1     -11.351  10.104  67.989  1.00  0.00    -0.078 A  
HETATM   13  N   UNL     1     -12.922  11.699  69.466  1.00  0.00     0.521 NA 
HETATM   14  C   UNL     1     -12.311  12.086  68.327  1.00  0.00     0.558 A  
HETATM   15  N   UNL     1     -11.521  11.341  67.517  1.00  0.00    -0.500 NA 
BRANCH  11  16
HETATM   16  C   UNL     1     -10.062   9.018  66.101  1.00  0.00    -0.172 C  
HETATM   17  O   UNL     1      -8.688   8.641  66.258  1.00  0.00    -0.128 OA 
HETATM   18  C   UNL     1      -7.847   9.790  66.068  1.00  0.00    -0.107 C  
HETATM   19  H   UNL     1      -9.981  10.634  63.235  1.00  0.00     0.000 HD 
HETATM   20  O   UNL     1     -10.000   9.868  63.797  1.00  0.00     0.086 OA 
HETATM   21  C   UNL     1      -8.710  10.922  65.520  1.00  0.00    -0.171 C  
HETATM   22  H   UNL     1      -8.623  12.186  64.014  1.00  0.00     0.000 HD 
HETATM   23  C   UNL     1     -10.031  10.257  65.193  1.00  0.00    -0.325 C  
HETATM   24  O   UNL     1      -8.086  11.480  64.355  1.00  0.00     0.822 OA 
BRANCH  18  25
HETATM   25  C   UNL     1      -7.140  10.201  67.360  1.00  0.00    -0.084 C  
BRANCH  25  26
HETATM   26  O   UNL     1      -6.762   8.989  68.014  1.00  0.00    -0.066 OA 
BRANCH  26  27
HETATM   27  P   UNL     1      -6.486   7.745  67.040  1.00  0.00    -0.057 P  
HETATM   28  O   UNL     1      -7.885   7.784  66.231  1.00  0.00    -0.086 OA 
HETATM   29  O   UNL     1      -5.285   7.850  66.148  1.00  0.00    -0.024 OA 
BRANCH  27  30
HETATM   30  O   UNL     1      -6.454   6.455  68.042  1.00  0.00    -0.044 OA 
HETATM   31  P   UNL     1      -7.159   4.993  67.444  1.00  0.00    -0.067 P  
HETATM   32  C   UNL     1      -7.904   3.446  66.811  1.00  0.00    -0.080 C  
HETATM   33  O   UNL     1      -8.635   5.626  67.824  1.00  0.00    -0.103 OA 
HETATM   34  O   UNL     1      -6.846   5.382  65.975  1.00  0.00    -0.055 OA 
HETATM   35 CL   UNL     1      -9.238   3.749  65.597  1.00  0.00    -0.147 Cl 
HETATM   36  P   UNL     1      -6.660   2.524  65.835  1.00  0.00    -0.032 P  
HETATM   37 CL   UNL     1      -8.688   2.589  68.180  1.00  0.00    -0.118 Cl 
HETATM   38  O   UNL     1      -6.400   1.519  67.126  1.00  0.00    -0.023 OA 
HETATM   39  O   UNL     1      -5.440   3.502  66.394  1.00  0.00    -0.016 OA 
HETATM   40  O   UNL     1      -5.608   1.744  65.010  1.00  0.00    -0.011 OA 
ENDBRANCH  27  30
ENDBRANCH  26  27
ENDBRANCH  25  26
ENDBRANCH  18  25
ENDBRANCH  11  16
BRANCH  14  41
HETATM   41  S   UNL     1     -12.528  13.767  67.783  1.00  0.00     0.504 SA 
BRANCH  41  42
HETATM   42  C   UNL     1     -11.067  13.956  66.707  1.00  0.00    -0.303 C  
BRANCH  42  43
HETATM   43  C   UNL     1     -10.850  15.441  66.447  1.00  0.00    -0.303 C  
HETATM   44  C   UNL     1     -10.004  16.089  67.521  1.00  0.00    -0.240 C  
HETATM   45  F   UNL     1      -8.927  16.700  66.972  1.00  0.00    -0.196 F  
HETATM   46  F   UNL     1      -9.550  15.212  68.437  1.00  0.00    -0.194 F  
HETATM   47  F   UNL     1     -10.707  17.040  68.176  1.00  0.00    -0.322 F  
ENDBRANCH  42  43
ENDBRANCH  41  42
ENDBRANCH  14  41
ENDBRANCH   5   7
ENDBRANCH   4   5
ENDBRANCH   3   4
ENDBRANCH   2   3
TORSDOF 12
ENDMDL
MODEL      263
REMARK 921   NORMALIZED FREE ENERGY PREDICTED BY IDOCK:   17.36 KCAL/MOL
REMARK 922        TOTAL FREE ENERGY PREDICTED BY IDOCK:   28.52 KCAL/MOL
REMARK 923 INTER-LIGAND FREE ENERGY PREDICTED BY IDOCK:   10.08 KCAL/MOL
REMARK 924 INTRA-LIGAND FREE ENERGY PREDICTED BY IDOCK:   18.44 KCAL/MOL
REMARK 927      BINDING AFFINITY PREDICTED BY RF-SCORE:    0.00 PKD
ROOT
HETATM    1  C   UNL     1      -5.392  13.879  69.599  1.00  0.00    -0.086 C  
HETATM    2  S   UNL     1      -5.139  12.672  70.920  1.00  0.00    -0.153 SA 
ENDROOT
BRANCH   2   3
HETATM    3  C   UNL     1      -6.485  13.178  72.056  1.00  0.00     2.980 C  
BRANCH   3   4
HETATM    4  C   UNL     1      -7.669  13.818  71.301  1.00  0.00     5.135 C  
BRANCH   4   5
HETATM    5  N   UNL     1      -7.425  13.825  69.869  1.00  0.00    -0.018 NA 
HETATM    6  H   UNL     1      -7.489  14.702  69.353  1.00  0.00     0.000 HD 
BRANCH   5   7
HETATM    7  C   UNL     1      -7.107  12.658  69.197  1.00  0.00     0.028 A  
HETATM    8  C   UNL     1      -6.957  11.453  69.899  1.00  0.00     0.127 A  
HETATM    9  N   UNL     1      -7.108  11.139  71.236  1.00  0.00     2.304 NA 
HETATM   10  C   UNL     1      -6.922   9.830  71.300  1.00  0.00     0.336 A  
HETATM   11  N   UNL     1      -6.628   9.290  70.065  1.00  0.00    -0.047 NA 
HETATM   12  C   UNL     1      -6.650  10.316  69.165  1.00  0.00    -0.055 A  
HETATM   13  N   UNL     1      -6.923  12.634  67.844  1.00  0.00    -0.096 NA 
HETATM   14  C   UNL     1      -6.583  11.467  67.259  1.00  0.00    -0.104 A  
HETATM   15  N   UNL     1      -6.443  10.256  67.848  1.00  0.00    -0.061 NA 
BRANCH  11  16
HETATM   16  C   UNL     1      -6.540   7.870  69.804  1.00  0.00    -0.034 C  
HETATM   17  O   UNL     1      -6.305   7.701  68.401  1.00  0.00    -0.038 OA 
HETATM   18  C   UNL     1      -7.514   7.267  67.757  1.00  0.00    -0.102 C  
HETATM   19  H   UNL     1      -7.971   5.010  70.582  1.00  0.00     0.000 HD 
HETATM   20  O   UNL     1      -7.244   5.588  70.385  1.00  0.00    -0.062 OA 
HETATM   21  C   UNL     1      -8.523   6.903  68.841  1.00  0.00    -0.125 C  
HETATM   22  H   UNL     1      -9.690   5.374  69.252  1.00  0.00     0.000 HD 
HETATM   23  C   UNL     1      -7.716   6.934  70.123  1.00  0.00    -0.101 C  
HETATM   24  O   UNL     1      -9.062   5.601  68.577  1.00  0.00    -0.114 OA 
BRANCH  18  25
HETATM   25  C   UNL     1      -8.071   8.332  66.810  1.00  0.00    -0.103 C  
BRANCH  25  26
HETATM   26  O   UNL     1      -9.434   7.981  66.569  1.00  0.00    -0.190 OA 
BRANCH  26  27
HETATM   27  P   UNL     1     -10.506   8.720  67.507  1.00  0.00    -0.179 P  
HETATM   28  O   UNL     1     -11.521   9.202  66.345  1.00  0.00     1.565 OA 
HETATM   29  O   UNL     1     -11.168   7.876  68.556  1.00  0.00     0.253 OA 
BRANCH  27  30
HETATM   30  O   UNL     1      -9.691  10.002  68.108  1.00  0.00    -0.139 OA 
HETATM   31  P   UNL     1     -10.545  11.505  68.165  1.00  0.00    -0.222 P  
HETATM   32  C   UNL     1     -11.451  13.094  68.225  1.00  0.00    -0.314 C  
HETATM   33  O   UNL     1     -10.221  11.675  66.555  1.00  0.00    -0.206 OA 
HETATM   34  O   UNL     1     -11.912  10.781  68.293  1.00  0.00    -0.520 OA 
HETATM   35 CL   UNL     1     -12.731  13.229  66.926  1.00  0.00     0.232 Cl 
HETATM   36  P   UNL     1     -12.424  13.183  69.773  1.00  0.00     0.305 P  
HETATM   37 CL   UNL     1     -10.290  14.424  67.895  1.00  0.00    -0.230 Cl 
HETATM   38  O   UNL     1     -11.264  14.161  70.439  1.00  0.00    -0.070 OA 
HETATM   39  O   UNL     1     -11.626  11.868  70.397  1.00  0.00    -0.214 OA 
HETATM   40  O   UNL     1     -13.247  13.260  71.082  1.00  0.00    -0.204 OA 
ENDBRANCH  27  30
ENDBRANCH  26  27
ENDBRANCH  25  26
ENDBRANCH  18  25
ENDBRANCH  11  16
BRANCH  14  41
HETATM   41  S   UNL     1      -6.260  11.465  65.509  1.00  0.00     1.031 SA 
BRANCH  41  42
HETATM   42  C   UNL     1      -5.697   9.745  65.279  1.00  0.00    -0.069 C  
BRANCH  42  43
HETATM   43  C   UNL     1      -6.906   8.884  64.934  1.00  0.00    -0.073 C  
HETATM   44  C   UNL     1      -6.737   8.172  63.610  1.00  0.00    -0.075 C  
HETATM   45  F   UNL     1      -6.893   6.836  63.767  1.00  0.00    -0.047 F  
HETATM   46  F   UNL     1      -5.529   8.377  63.049  1.00  0.00    -0.063 F  
HETATM   47  F   UNL     1      -7.674   8.579  62.724  1.00  0.00    -0.105 F  
ENDBRANCH  42  43
ENDBRANCH  41  42
ENDBRANCH  14  41
ENDBRANCH   5   7
ENDBRANCH   4   5
ENDBRANCH   3   4
ENDBRANCH   2   3
TORSDOF 12
ENDMDL
MODEL      264
REMARK 921   NORMALIZED FREE ENERGY PREDICTED BY IDOCK:   18.24 KCAL/MOL
REMARK 922        TOTAL FREE ENERGY PREDICTED BY IDOCK:   30.02 KCAL/MOL
REMARK 923 INTER-LIGAND FREE ENERGY PREDICTED BY IDOCK:   23.51 KCAL/MOL
REMARK 924 INTRA-LIGAND FREE ENERGY PREDICTED BY IDOCK:    6.51 KCAL/MOL
REMARK 927      BINDING AFFINITY PREDICTED BY RF-SCORE:    0.00 PKD
ROOT
HETATM    1  C   UNL     1      -6.956  18.705  72.689  1.00  0.00     5.120 C  
HETATM    2  S   UNL     1      -7.384  17.117  73.437  1.00  0.00    13.993 SA 
ENDROOT
BRANCH   2   3
HETATM    3  C   UNL     1      -6.917  15.998  72.062  1.00  0.00     5.231 C  
BRANCH   3   4
HETATM    4  C   UNL     1      -7.541  16.437  70.720  1.00  0.00     3.311 C  
BRANCH   4   5
HETATM    5  N   UNL     1      -6.798  15.885  69.601  1.00  0.00    -0.187 NA 
HETATM    6  H   UNL     1      -5.973  16.374  69.255  1.00  0.00     0.000 HD 
BRANCH   5   7
HETATM    7  C   UNL     1      -7.196  14.705  68.997  1.00  0.00    -0.135 A  
HETATM    8  C   UNL     1      -8.546  14.490  68.680  1.00  0.00    -0.168 A  
HETATM    9  N   UNL     1      -9.665  15.288  68.818  1.00  0.00    -0.204 NA 
HETATM   10  C   UNL     1     -10.648  14.593  68.269  1.00  0.00    -0.235 A  
HETATM   11  N   UNL     1     -10.217  13.366  67.809  1.00  0.00    -0.230 NA 
HETATM   12  C   UNL     1      -8.877  13.291  68.064  1.00  0.00    -0.190 A  
HETATM   13  N   UNL     1      -6.306  13.715  68.695  1.00  0.00    -0.084 NA 
HETATM   14  C   UNL     1      -6.769  12.578  68.136  1.00  0.00    -0.078 A  
HETATM   15  N   UNL     1      -8.042  12.293  67.772  1.00  0.00    -0.143 NA 
BRANCH  11  16
HETATM   16  C   UNL     1     -11.030  12.467  67.020  1.00  0.00    -0.267 C  
HETATM   17  O   UNL     1     -12.123  12.037  67.842  1.00  0.00    -0.531 OA 
HETATM   18  C   UNL     1     -11.894  10.689  68.282  1.00  0.00     0.088 C  
HETATM   19  H   UNL     1     -10.792   9.976  64.882  1.00  0.00     0.000 HD 
HETATM   20  O   UNL     1     -11.157  10.776  65.242  1.00  0.00     0.021 OA 
HETATM   21  C   UNL     1     -10.705  10.133  67.506  1.00  0.00    -0.290 C  
HETATM   22  H   UNL     1     -10.313   8.514  66.459  1.00  0.00     0.000 HD 
HETATM   23  C   UNL     1     -10.440  11.173  66.438  1.00  0.00    -0.260 C  
HETATM   24  O   UNL     1     -11.053   8.860  66.943  1.00  0.00     0.102 OA 
BRANCH  18  25
HETATM   25  C   UNL     1     -11.661  10.613  69.793  1.00  0.00    -0.310 C  
BRANCH  25  26
HETATM   26  O   UNL     1     -12.868  10.102  70.360  1.00  0.00    -0.231 OA 
BRANCH  26  27
HETATM   27  P   UNL     1     -13.153  10.547  71.875  1.00  0.00    -0.227 P  
HETATM   28  O   UNL     1     -13.352  12.128  71.606  1.00  0.00    -0.341 OA 
HETATM   29  O   UNL     1     -14.333   9.909  72.546  1.00  0.00     0.041 OA 
BRANCH  27  30
HETATM   30  O   UNL     1     -11.734  10.281  72.640  1.00  0.00     1.857 OA 
HETATM   31  P   UNL     1     -10.877   8.844  72.204  1.00  0.00     0.030 P  
HETATM   32  C   UNL     1      -9.970   7.323  71.741  1.00  0.00    -0.171 C  
HETATM   33  O   UNL     1     -11.905   8.010  73.189  1.00  0.00    -0.233 OA 
HETATM   34  O   UNL     1     -11.492   8.847  70.779  1.00  0.00    -0.274 OA 
HETATM   35 CL   UNL     1     -11.077   5.983  71.174  1.00  0.00    -0.344 Cl 
HETATM   36  P   UNL     1      -8.936   7.654  70.267  1.00  0.00    -0.145 P  
HETATM   37 CL   UNL     1      -9.150   6.681  73.204  1.00  0.00    -0.138 Cl 
HETATM   38  O   UNL     1      -7.603   7.796  71.241  1.00  0.00    -0.076 OA 
HETATM   39  O   UNL     1      -9.177   9.290  70.416  1.00  0.00    -0.208 OA 
HETATM   40  O   UNL     1      -8.061   7.934  69.021  1.00  0.00    -0.120 OA 
ENDBRANCH  27  30
ENDBRANCH  26  27
ENDBRANCH  25  26
ENDBRANCH  18  25
ENDBRANCH  11  16
BRANCH  14  41
HETATM   41  S   UNL     1      -5.613  11.260  67.827  1.00  0.00    -0.047 SA 
BRANCH  41  42
HETATM   42  C   UNL     1      -6.691   9.810  68.077  1.00  0.00    -0.061 C  
BRANCH  42  43
HETATM   43  C   UNL     1      -7.239   9.378  66.724  1.00  0.00    -0.083 C  
HETATM   44  C   UNL     1      -6.342   9.806  65.583  1.00  0.00    -0.074 C  
HETATM   45  F   UNL     1      -5.986   8.736  64.833  1.00  0.00    -0.059 F  
HETATM   46  F   UNL     1      -5.209  10.405  65.999  1.00  0.00    -0.039 F  
HETATM   47  F   UNL     1      -6.985  10.668  64.764  1.00  0.00    -0.105 F  
ENDBRANCH  42  43
ENDBRANCH  41  42
ENDBRANCH  14  41
ENDBRANCH   5   7
ENDBRANCH   4   5
ENDBRANCH   3   4
ENDBRANCH   2   3
TORSDOF 12
ENDMDL
MODEL      265
REMARK 921   NORMALIZED FREE ENERGY PREDICTED BY IDOCK:   20.74 KCAL/MOL
REMARK 922        TOTAL FREE ENERGY PREDICTED BY IDOCK:   34.29 KCAL/MOL
REMARK 923 INTER-LIGAND FREE ENERGY PREDICTED BY IDOCK:   17.92 KCAL/MOL
REMARK 924 INTRA-LIGAND FREE ENERGY PREDICTED BY IDOCK:   16.37 KCAL/MOL
REMARK 927      BINDING AFFINITY PREDICTED BY RF-SCORE:    0.00 PKD
ROOT
HETATM    1  C   UNL     1     -13.124  19.676  67.715  1.00  0.00     6.514 C  
HETATM    2  S   UNL     1     -11.674  20.687  67.340  1.00  0.00     4.160 SA 
ENDROOT
BRANCH   2   3
HETATM    3  C   UNL     1     -11.040  19.778  65.880  1.00  0.00     0.030 C  
BRANCH   3   4
HETATM    4  C   UNL     1     -12.165  19.042  65.123  1.00  0.00     6.820 C  
BRANCH   4   5
HETATM    5  N   UNL     1     -11.968  17.604  65.178  1.00  0.00     2.589 NA 
HETATM    6  H   UNL     1     -12.628  16.987  64.705  1.00  0.00     0.000 HD 
BRANCH   5   7
HETATM    7  C   UNL     1     -10.896  17.058  65.863  1.00  0.00    -0.024 A  
HETATM    8  C   UNL     1      -9.717  17.799  66.041  1.00  0.00    -0.130 A  
HETATM    9  N   UNL     1      -9.374  19.087  65.681  1.00  0.00    -0.179 NA 
HETATM   10  C   UNL     1      -8.164  19.270  66.188  1.00  0.00    -0.282 A  
HETATM   11  N   UNL     1      -7.701  18.143  66.833  1.00  0.00    -0.216 NA 
HETATM   12  C   UNL     1      -8.684  17.200  66.748  1.00  0.00    -0.244 A  
HETATM   13  N   UNL     1     -10.939  15.795  66.379  1.00  0.00    -0.224 NA 
HETATM   14  C   UNL     1      -9.845  15.316  67.008  1.00  0.00    -0.229 A  
HETATM   15  N   UNL     1      -8.680  15.963  67.249  1.00  0.00    -0.180 NA 
BRANCH  11  16
HETATM   16  C   UNL     1      -6.487  18.103  67.620  1.00  0.00    -0.189 C  
HETATM   17  O   UNL     1      -5.868  16.830  67.398  1.00  0.00    -0.133 OA 
HETATM   18  C   UNL     1      -6.077  15.985  68.541  1.00  0.00    -0.111 C  
HETATM   19  H   UNL     1      -5.308  18.902  70.587  1.00  0.00     0.000 HD 
HETATM   20  O   UNL     1      -5.281  18.805  69.643  1.00  0.00    -0.184 OA 
HETATM   21  C   UNL     1      -6.657  16.842  69.662  1.00  0.00    -0.148 C  
HETATM   22  H   UNL     1      -6.260  17.169  71.561  1.00  0.00     0.000 HD 
HETATM   23  C   UNL     1      -6.531  18.261  69.148  1.00  0.00    -0.261 C  
HETATM   24  O   UNL     1      -5.899  16.636  70.863  1.00  0.00     0.111 OA 
BRANCH  18  25
HETATM   25  C   UNL     1      -6.987  14.799  68.216  1.00  0.00    -0.119 C  
BRANCH  25  26
HETATM   26  O   UNL     1      -6.131  13.748  67.766  1.00  0.00    -0.145 OA 
BRANCH  26  27
HETATM   27  P   UNL     1      -6.701  12.264  67.981  1.00  0.00    -0.109 P  
HETATM   28  O   UNL     1      -6.560  11.751  66.455  1.00  0.00     0.011 OA 
HETATM   29  O   UNL     1      -5.963  11.402  68.963  1.00  0.00    -0.047 OA 
BRANCH  27  30
HETATM   30  O   UNL     1      -8.275  12.492  68.354  1.00  0.00    -0.161 OA 
HETATM   31  P   UNL     1      -9.237  11.069  68.556  1.00  0.00    -0.165 P  
HETATM   32  C   UNL     1     -10.253   9.562  68.770  1.00  0.00    -0.198 C  
HETATM   33  O   UNL     1      -9.332  10.979  66.910  1.00  0.00    -0.170 OA 
HETATM   34  O   UNL     1      -8.004  10.237  69.000  1.00  0.00    -0.105 OA 
HETATM   35 CL   UNL     1      -9.645   8.151  67.779  1.00  0.00    -0.170 Cl 
HETATM   36  P   UNL     1     -10.093   8.957  70.490  1.00  0.00    -0.242 P  
HETATM   37 CL   UNL     1     -11.907   9.899  68.158  1.00  0.00     0.721 Cl 
HETATM   38  O   UNL     1     -11.558   9.637  70.860  1.00  0.00    -0.292 OA 
HETATM   39  O   UNL     1      -9.356  10.369  70.960  1.00  0.00     1.083 OA 
HETATM   40  O   UNL     1      -9.958   8.446  71.946  1.00  0.00    -0.209 OA 
ENDBRANCH  27  30
ENDBRANCH  26  27
ENDBRANCH  25  26
ENDBRANCH  18  25
ENDBRANCH  11  16
BRANCH  14  41
HETATM   41  S   UNL     1      -9.882  13.639  67.600  1.00  0.00    -0.233 SA 
BRANCH  41  42
HETATM   42  C   UNL     1     -11.587  13.554  68.243  1.00  0.00    -0.346 C  
BRANCH  42  43
HETATM   43  C   UNL     1     -11.727  12.283  69.071  1.00  0.00    -0.376 C  
HETATM   44  C   UNL     1     -12.904  12.348  70.020  1.00  0.00     0.554 C  
HETATM   45  F   UNL     1     -13.735  11.298  69.818  1.00  0.00     0.908 F  
HETATM   46  F   UNL     1     -13.631  13.474  69.883  1.00  0.00     0.675 F  
HETATM   47  F   UNL     1     -12.488  12.282  71.304  1.00  0.00    -0.432 F  
ENDBRANCH  42  43
ENDBRANCH  41  42
ENDBRANCH  14  41
ENDBRANCH   5   7
ENDBRANCH   4   5
ENDBRANCH   3   4
ENDBRANCH   2   3
TORSDOF 12
ENDMDL
MODEL      266
REMARK 921   NORMALIZED FREE ENERGY PREDICTED BY IDOCK:   21.06 KCAL/MOL
REMARK 922        TOTAL FREE ENERGY PREDICTED BY IDOCK:   34.83 KCAL/MOL
REMARK 923 INTER-LIGAND FREE ENERGY PREDICTED BY IDOCK:   20.50 KCAL/MOL
REMARK 924 INTRA-LIGAND FREE ENERGY PREDICTED BY IDOCK:   14.33 KCAL/MOL
REMARK 927      BINDING AFFINITY PREDICTED BY RF-SCORE:    0.00 PKD
ROOT
HETATM    1  C   UNL     1     -12.638  16.454  66.017  1.00  0.00     3.701 C  
HETATM    2  S   UNL     1     -11.364  16.271  64.750  1.00  0.00    -0.051 SA 
ENDROOT
BRANCH   2   3
HETATM    3  C   UNL     1     -11.365  14.446  64.579  1.00  0.00    -0.321 C  
BRANCH   3   4
HETATM    4  C   UNL     1     -10.315  13.778  65.493  1.00  0.00    -0.321 C  
BRANCH   4   5
HETATM    5  N   UNL     1     -10.746  13.806  66.880  1.00  0.00    -0.279 NA 
HETATM    6  H   UNL     1     -11.513  14.419  67.156  1.00  0.00     0.000 HD 
BRANCH   5   7
HETATM    7  C   UNL     1     -10.130  13.013  67.832  1.00  0.00    -0.235 A  
HETATM    8  C   UNL     1     -10.539  11.683  68.019  1.00  0.00    -0.202 A  
HETATM    9  N   UNL     1     -11.484  10.909  67.375  1.00  0.00    -0.489 NA 
HETATM   10  C   UNL     1     -11.369   9.708  67.921  1.00  0.00     0.317 A  
HETATM   11  N   UNL     1     -10.410   9.683  68.912  1.00  0.00    -0.196 NA 
HETATM   12  C   UNL     1      -9.873  10.937  68.981  1.00  0.00    -0.180 A  
HETATM   13  N   UNL     1      -9.122  13.485  68.621  1.00  0.00    -0.077 NA 
HETATM   14  C   UNL     1      -8.589  12.665  69.550  1.00  0.00     1.586 A  
HETATM   15  N   UNL     1      -8.898  11.368  69.783  1.00  0.00     1.062 NA 
BRANCH  11  16
HETATM   16  C   UNL     1      -9.955   8.476  69.565  1.00  0.00    -0.193 C  
HETATM   17  O   UNL     1     -10.080   7.401  68.625  1.00  0.00    -0.168 OA 
HETATM   18  C   UNL     1     -11.219   6.593  68.964  1.00  0.00    -0.220 C  
HETATM   19  H   UNL     1     -10.132   6.868  72.432  1.00  0.00     0.000 HD 
HETATM   20  O   UNL     1      -9.710   7.185  71.642  1.00  0.00    -0.160 OA 
HETATM   21  C   UNL     1     -11.716   7.029  70.338  1.00  0.00    -0.279 C  
HETATM   22  H   UNL     1     -12.176   6.148  72.036  1.00  0.00     0.000 HD 
HETATM   23  C   UNL     1     -10.637   7.964  70.844  1.00  0.00    -0.213 C  
HETATM   24  O   UNL     1     -11.867   5.877  71.180  1.00  0.00    -0.042 OA 
BRANCH  18  25
HETATM   25  C   UNL     1     -12.324   6.694  67.911  1.00  0.00     4.587 C  
BRANCH  25  26
HETATM   26  O   UNL     1     -11.667   6.818  66.649  1.00  0.00     0.611 OA 
BRANCH  26  27
HETATM   27  P   UNL     1     -10.111   6.427  66.648  1.00  0.00    -0.062 P  
HETATM   28  O   UNL     1      -9.837   6.619  65.067  1.00  0.00     1.434 OA 
HETATM   29  O   UNL     1      -9.212   7.264  67.508  1.00  0.00    -0.129 OA 
BRANCH  27  30
HETATM   30  O   UNL     1     -10.101   4.838  67.030  1.00  0.00    -0.202 OA 
HETATM   31  P   UNL     1      -8.865   4.313  68.120  1.00  0.00    -0.122 P  
HETATM   32  C   UNL     1      -7.557   3.759  69.274  1.00  0.00    -0.053 C  
HETATM   33  O   UNL     1      -7.824   4.316  66.839  1.00  0.00    -0.095 OA 
HETATM   34  O   UNL     1      -8.788   5.712  68.789  1.00  0.00    -0.109 OA 
HETATM   35 CL   UNL     1      -6.046   4.784  69.177  1.00  0.00    -0.028 Cl 
HETATM   36  P   UNL     1      -8.117   4.012  70.998  1.00  0.00    -0.065 P  
HETATM   37 CL   UNL     1      -7.044   2.104  68.801  1.00  0.00    -0.043 Cl 
HETATM   38  O   UNL     1      -8.483   2.400  71.110  1.00  0.00    -0.056 OA 
HETATM   39  O   UNL     1      -9.673   4.297  70.493  1.00  0.00    -0.185 OA 
HETATM   40  O   UNL     1      -8.590   4.226  72.457  1.00  0.00    -0.103 OA 
ENDBRANCH  27  30
ENDBRANCH  26  27
ENDBRANCH  25  26
ENDBRANCH  18  25
ENDBRANCH  11  16
BRANCH  14  41
HETATM   41  S   UNL     1      -7.335  13.319  70.630  1.00  0.00     3.364 SA 
BRANCH  41  42
HETATM   42  C   UNL     1      -5.839  12.600  69.871  1.00  0.00    -0.133 C  
BRANCH  42  43
HETATM   43  C   UNL     1      -5.459  11.346  70.649  1.00  0.00    -0.138 C  
HETATM   44  C   UNL     1      -6.348  11.133  71.854  1.00  0.00     2.454 C  
HETATM   45  F   UNL     1      -6.922   9.907  71.810  1.00  0.00     0.285 F  
HETATM   46  F   UNL     1      -7.338  12.042  71.948  1.00  0.00     5.703 F  
HETATM   47  F   UNL     1      -5.629  11.193  72.997  1.00  0.00     0.544 F  
ENDBRANCH  42  43
ENDBRANCH  41  42
ENDBRANCH  14  41
ENDBRANCH   5   7
ENDBRANCH   4   5
ENDBRANCH   3   4
ENDBRANCH   2   3
TORSDOF 12
ENDMDL
MODEL      267
REMARK 921   NORMALIZED FREE ENERGY PREDICTED BY IDOCK:   21.08 KCAL/MOL
REMARK 922        TOTAL FREE ENERGY PREDICTED BY IDOCK:   34.87 KCAL/MOL
REMARK 923 INTER-LIGAND FREE ENERGY PREDICTED BY IDOCK:   26.04 KCAL/MOL
REMARK 924 INTRA-LIGAND FREE ENERGY PREDICTED BY IDOCK:    8.83 KCAL/MOL
REMARK 927      BINDING AFFINITY PREDICTED BY RF-SCORE:    0.00 PKD
ROOT
HETATM    1  C   UNL     1      -6.059  16.207  74.390  1.00  0.00     5.912 C  
HETATM    2  S   UNL     1      -5.351  15.048  73.198  1.00  0.00     0.459 SA 
ENDROOT
BRANCH   2   3
HETATM    3  C   UNL     1      -6.285  15.544  71.701  1.00  0.00     1.255 C  
BRANCH   3   4
HETATM    4  C   UNL     1      -7.524  16.397  72.048  1.00  0.00     8.744 C  
BRANCH   4   5
HETATM    5  N   UNL     1      -8.736  15.598  71.976  1.00  0.00     5.889 NA 
HETATM    6  H   UNL     1      -9.354  15.549  72.786  1.00  0.00     0.000 HD 
BRANCH   5   7
HETATM    7  C   UNL     1      -9.063  14.904  70.825  1.00  0.00     2.100 A  
HETATM    8  C   UNL     1      -8.076  14.603  69.873  1.00  0.00     0.428 A  
HETATM    9  N   UNL     1      -6.715  14.839  69.849  1.00  0.00    -0.173 NA 
HETATM   10  C   UNL     1      -6.290  14.255  68.740  1.00  0.00    -0.087 A  
HETATM   11  N   UNL     1      -7.324  13.680  68.031  1.00  0.00    -0.113 NA 
HETATM   12  C   UNL     1      -8.467  13.894  68.747  1.00  0.00    -0.008 A  
HETATM   13  N   UNL     1     -10.340  14.494  70.569  1.00  0.00     0.609 NA 
HETATM   14  C   UNL     1     -10.592  13.850  69.411  1.00  0.00     0.051 A  
HETATM   15  N   UNL     1      -9.705  13.494  68.452  1.00  0.00    -0.222 NA 
BRANCH  11  16
HETATM   16  C   UNL     1      -7.137  12.835  66.871  1.00  0.00     0.329 C  
HETATM   17  O   UNL     1      -8.207  11.882  66.853  1.00  0.00    -0.166 OA 
HETATM   18  C   UNL     1      -7.719  10.600  67.280  1.00  0.00    -0.108 C  
HETATM   19  H   UNL     1      -4.800  11.238  65.192  1.00  0.00     0.000 HD 
HETATM   20  O   UNL     1      -5.590  11.755  65.297  1.00  0.00     0.595 OA 
HETATM   21  C   UNL     1      -6.197  10.671  67.348  1.00  0.00    -0.057 C  
HETATM   22  H   UNL     1      -4.685   9.609  66.672  1.00  0.00     0.000 HD 
HETATM   23  C   UNL     1      -5.859  11.999  66.701  1.00  0.00     0.156 C  
HETATM   24  O   UNL     1      -5.633   9.565  66.631  1.00  0.00    -0.045 OA 
BRANCH  18  25
HETATM   25  C   UNL     1      -8.319  10.178  68.622  1.00  0.00    -0.116 C  
BRANCH  25  26
HETATM   26  O   UNL     1      -7.292   9.469  69.316  1.00  0.00    -0.067 OA 
BRANCH  26  27
HETATM   27  P   UNL     1      -7.657   7.959  69.719  1.00  0.00    -0.093 P  
HETATM   28  O   UNL     1      -6.473   7.222  68.902  1.00  0.00    -0.037 OA 
HETATM   29  O   UNL     1      -7.650   7.640  71.185  1.00  0.00    -0.077 OA 
BRANCH  27  30
HETATM   30  O   UNL     1      -9.094   7.689  68.991  1.00  0.00    -0.144 OA 
HETATM   31  P   UNL     1      -9.058   6.776  67.522  1.00  0.00    -0.116 P  
HETATM   32  C   UNL     1      -9.019   5.810  65.968  1.00  0.00    -0.151 C  
HETATM   33  O   UNL     1      -8.590   8.159  66.751  1.00  0.00    -0.125 OA 
HETATM   34  O   UNL     1      -7.772   6.026  67.960  1.00  0.00    -0.098 OA 
HETATM   35 CL   UNL     1      -7.444   5.998  65.058  1.00  0.00    -0.080 Cl 
HETATM   36  P   UNL     1      -9.057   4.022  66.361  1.00  0.00    -0.160 P  
HETATM   37 CL   UNL     1     -10.287   6.447  64.869  1.00  0.00     2.961 Cl 
HETATM   38  O   UNL     1     -10.672   3.982  65.995  1.00  0.00     0.284 OA 
HETATM   39  O   UNL     1      -9.456   4.338  67.942  1.00  0.00    -0.149 OA 
HETATM   40  O   UNL     1      -9.090   2.510  66.693  1.00  0.00    -0.143 OA 
ENDBRANCH  27  30
ENDBRANCH  26  27
ENDBRANCH  25  26
ENDBRANCH  18  25
ENDBRANCH  11  16
BRANCH  14  41
HETATM   41  S   UNL     1     -12.275  13.398  69.049  1.00  0.00    -0.014 SA 
BRANCH  41  42
HETATM   42  C   UNL     1     -13.053  13.695  70.673  1.00  0.00     0.029 C  
BRANCH  42  43
HETATM   43  C   UNL     1     -12.128  14.583  71.495  1.00  0.00    -0.400 C  
HETATM   44  C   UNL     1     -12.610  16.016  71.545  1.00  0.00    -0.273 C  
HETATM   45  F   UNL     1     -12.754  16.423  72.828  1.00  0.00    -0.472 F  
HETATM   46  F   UNL     1     -13.794  16.196  70.926  1.00  0.00     0.067 F  
HETATM   47  F   UNL     1     -11.714  16.844  70.965  1.00  0.00    -0.139 F  
ENDBRANCH  42  43
ENDBRANCH  41  42
ENDBRANCH  14  41
ENDBRANCH   5   7
ENDBRANCH   4   5
ENDBRANCH   3   4
ENDBRANCH   2   3
TORSDOF 12
ENDMDL
MODEL      268
REMARK 921   NORMALIZED FREE ENERGY PREDICTED BY IDOCK:   22.03 KCAL/MOL
REMARK 922        TOTAL FREE ENERGY PREDICTED BY IDOCK:   36.48 KCAL/MOL
REMARK 923 INTER-LIGAND FREE ENERGY PREDICTED BY IDOCK:   35.06 KCAL/MOL
REMARK 924 INTRA-LIGAND FREE ENERGY PREDICTED BY IDOCK:    1.42 KCAL/MOL
REMARK 927      BINDING AFFINITY PREDICTED BY RF-SCORE:    0.00 PKD
ROOT
HETATM    1  C   UNL     1      -8.408  20.933  66.468  1.00  0.00     0.424 C  
HETATM    2  S   UNL     1      -8.774  19.185  66.196  1.00  0.00    -0.119 SA 
ENDROOT
BRANCH   2   3
HETATM    3  C   UNL     1      -8.171  19.012  64.474  1.00  0.00     4.717 C  
BRANCH   3   4
HETATM    4  C   UNL     1      -6.874  18.179  64.395  1.00  0.00     3.167 C  
BRANCH   4   5
HETATM    5  N   UNL     1      -7.167  16.759  64.482  1.00  0.00     5.946 NA 
HETATM    6  H   UNL     1      -6.976  16.156  63.681  1.00  0.00     0.000 HD 
BRANCH   5   7
HETATM    7  C   UNL     1      -7.703  16.212  65.635  1.00  0.00     2.028 A  
HETATM    8  C   UNL     1      -6.876  15.550  66.556  1.00  0.00     1.276 A  
HETATM    9  N   UNL     1      -5.511  15.338  66.585  1.00  0.00     1.016 NA 
HETATM   10  C   UNL     1      -5.287  14.730  67.739  1.00  0.00    -0.018 A  
HETATM   11  N   UNL     1      -6.454  14.514  68.443  1.00  0.00    -0.093 NA 
HETATM   12  C   UNL     1      -7.472  15.036  67.698  1.00  0.00    -0.181 A  
HETATM   13  N   UNL     1      -9.036  16.287  65.916  1.00  0.00    -0.444 NA 
HETATM   14  C   UNL     1      -9.493  15.704  67.043  1.00  0.00    -0.224 A  
HETATM   15  N   UNL     1      -8.772  15.071  67.998  1.00  0.00    -0.156 NA 
BRANCH  11  16
HETATM   16  C   UNL     1      -6.498  14.021  69.802  1.00  0.00    -0.115 C  
HETATM   17  O   UNL     1      -5.960  12.693  69.799  1.00  0.00    -0.108 OA 
HETATM   18  C   UNL     1      -7.028  11.739  69.918  1.00  0.00     0.320 C  
HETATM   19  H   UNL     1      -8.444  13.940  72.455  1.00  0.00     0.000 HD 
HETATM   20  O   UNL     1      -7.620  14.011  71.988  1.00  0.00     3.618 OA 
HETATM   21  C   UNL     1      -8.305  12.499  70.258  1.00  0.00     4.514 C  
HETATM   22  H   UNL     1      -9.732  12.365  71.607  1.00  0.00     0.000 HD 
HETATM   23  C   UNL     1      -7.831  13.906  70.558  1.00  0.00     2.513 C  
HETATM   24  O   UNL     1      -8.936  11.892  71.394  1.00  0.00    10.195 OA 
BRANCH  18  25
HETATM   25  C   UNL     1      -7.195  10.907  68.645  1.00  0.00    -0.088 C  
BRANCH  25  26
HETATM   26  O   UNL     1      -7.005   9.545  69.029  1.00  0.00    -0.057 OA 
BRANCH  26  27
HETATM   27  P   UNL     1      -7.815   8.470  68.154  1.00  0.00    -0.104 P  
HETATM   28  O   UNL     1      -8.891   8.036  69.280  1.00  0.00    -0.140 OA 
HETATM   29  O   UNL     1      -8.451   8.978  66.895  1.00  0.00    -0.117 OA 
BRANCH  27  30
HETATM   30  O   UNL     1      -6.739   7.264  67.912  1.00  0.00    -0.057 OA 
HETATM   31  P   UNL     1      -7.090   6.161  66.627  1.00  0.00    -0.075 P  
HETATM   32  C   UNL     1      -7.463   4.994  65.267  1.00  0.00    -0.077 C  
HETATM   33  O   UNL     1      -8.150   5.412  67.648  1.00  0.00    -0.100 OA 
HETATM   34  O   UNL     1      -7.880   7.243  65.844  1.00  0.00    -0.095 OA 
HETATM   35 CL   UNL     1      -9.256   4.828  64.948  1.00  0.00    -0.146 Cl 
HETATM   36  P   UNL     1      -6.826   5.672  63.690  1.00  0.00    -0.043 P  
HETATM   37 CL   UNL     1      -6.908   3.357  65.752  1.00  0.00    -0.051 Cl 
HETATM   38  O   UNL     1      -5.513   4.666  63.794  1.00  0.00    -0.012 OA 
HETATM   39  O   UNL     1      -5.956   6.835  64.496  1.00  0.00    -0.034 OA 
HETATM   40  O   UNL     1      -6.286   6.245  62.356  1.00  0.00    -0.029 OA 
ENDBRANCH  27  30
ENDBRANCH  26  27
ENDBRANCH  25  26
ENDBRANCH  18  25
ENDBRANCH  11  16
BRANCH  14  41
HETATM   41  S   UNL     1     -11.245  15.732  67.355  1.00  0.00    -0.102 SA 
BRANCH  41  42
HETATM   42  C   UNL     1     -11.751  14.180  66.540  1.00  0.00    -0.397 C  
BRANCH  42  43
HETATM   43  C   UNL     1     -10.745  13.095  66.904  1.00  0.00    -0.270 C  
HETATM   44  C   UNL     1     -10.872  11.879  66.013  1.00  0.00    -0.299 C  
HETATM   45  F   UNL     1      -9.685  11.598  65.424  1.00  0.00    -0.229 F  
HETATM   46  F   UNL     1     -11.784  12.035  65.034  1.00  0.00    -0.384 F  
HETATM   47  F   UNL     1     -11.224  10.791  66.733  1.00  0.00    -0.311 F  
ENDBRANCH  42  43
ENDBRANCH  41  42
ENDBRANCH  14  41
ENDBRANCH   5   7
ENDBRANCH   4   5
ENDBRANCH   3   4
ENDBRANCH   2   3
TORSDOF 12
ENDMDL
MODEL      269
REMARK 921   NORMALIZED FREE ENERGY PREDICTED BY IDOCK:   22.84 KCAL/MOL
REMARK 922        TOTAL FREE ENERGY PREDICTED BY IDOCK:   37.86 KCAL/MOL
REMARK 923 INTER-LIGAND FREE ENERGY PREDICTED BY IDOCK:   36.33 KCAL/MOL
REMARK 924 INTRA-LIGAND FREE ENERGY PREDICTED BY IDOCK:    1.53 KCAL/MOL
REMARK 927      BINDING AFFINITY PREDICTED BY RF-SCORE:    0.00 PKD
ROOT
HETATM    1  C   UNL     1      -8.408  20.933  66.468  1.00  0.00     0.424 C  
HETATM    2  S   UNL     1      -8.766  19.184  66.189  1.00  0.00    -0.119 SA 
ENDROOT
BRANCH   2   3
HETATM    3  C   UNL     1      -8.154  19.018  64.470  1.00  0.00     4.408 C  
BRANCH   3   4
HETATM    4  C   UNL     1      -6.854  18.190  64.395  1.00  0.00     3.167 C  
BRANCH   4   5
HETATM    5  N   UNL     1      -7.136  16.773  64.542  1.00  0.00     5.828 NA 
HETATM    6  H   UNL     1      -6.958  16.141  63.762  1.00  0.00     0.000 HD 
BRANCH   5   7
HETATM    7  C   UNL     1      -7.644  16.268  65.726  1.00  0.00     1.426 A  
HETATM    8  C   UNL     1      -6.794  15.646  66.654  1.00  0.00     0.714 A  
HETATM    9  N   UNL     1      -5.428  15.443  66.663  1.00  0.00     0.868 NA 
HETATM   10  C   UNL     1      -5.176  14.880  67.834  1.00  0.00    -0.081 A  
HETATM   11  N   UNL     1      -6.326  14.685  68.570  1.00  0.00    -0.082 NA 
HETATM   12  C   UNL     1      -7.363  15.172  67.827  1.00  0.00    -0.164 A  
HETATM   13  N   UNL     1      -8.972  16.346  66.032  1.00  0.00    -0.442 NA 
HETATM   14  C   UNL     1      -9.402  15.803  67.190  1.00  0.00    -0.213 A  
HETATM   15  N   UNL     1      -8.656  15.211  68.153  1.00  0.00    -0.154 NA 
BRANCH  11  16
HETATM   16  C   UNL     1      -6.339  14.244  69.948  1.00  0.00    -0.150 C  
HETATM   17  O   UNL     1      -5.793  12.920  69.984  1.00  0.00    -0.119 OA 
HETATM   18  C   UNL     1      -6.852  11.965  70.161  1.00  0.00     0.593 C  
HETATM   19  H   UNL     1      -8.229  14.253  72.642  1.00  0.00     0.000 HD 
HETATM   20  O   UNL     1      -7.415  14.311  72.156  1.00  0.00     2.756 OA 
HETATM   21  C   UNL     1      -8.127  12.731  70.499  1.00  0.00     5.333 C  
HETATM   22  H   UNL     1      -9.524  12.640  71.882  1.00  0.00     0.000 HD 
HETATM   23  C   UNL     1      -7.655  14.151  70.735  1.00  0.00     2.204 C  
HETATM   24  O   UNL     1      -8.730  12.164  71.671  1.00  0.00    13.110 OA 
BRANCH  18  25
HETATM   25  C   UNL     1      -7.040  11.084  68.925  1.00  0.00    -0.098 C  
BRANCH  25  26
HETATM   26  O   UNL     1      -6.834   9.738  69.356  1.00  0.00    -0.051 OA 
BRANCH  26  27
HETATM   27  P   UNL     1      -7.751   8.640  68.630  1.00  0.00    -0.100 P  
HETATM   28  O   UNL     1      -8.867   8.484  69.789  1.00  0.00    -0.134 OA 
HETATM   29  O   UNL     1      -8.331   9.028  67.302  1.00  0.00    -0.110 OA 
BRANCH  27  30
HETATM   30  O   UNL     1      -6.808   7.307  68.575  1.00  0.00    -0.068 OA 
HETATM   31  P   UNL     1      -7.117   6.091  69.766  1.00  0.00    -0.076 P  
HETATM   32  C   UNL     1      -7.446   4.805  71.026  1.00  0.00    -0.068 C  
HETATM   33  O   UNL     1      -6.264   7.015  70.836  1.00  0.00    -0.035 OA 
HETATM   34  O   UNL     1      -8.609   6.505  69.876  1.00  0.00    -0.136 OA 
HETATM   35 CL   UNL     1      -8.137   5.491  72.574  1.00  0.00    -0.103 Cl 
HETATM   36  P   UNL     1      -8.779   3.698  70.435  1.00  0.00    -0.088 P  
HETATM   37 CL   UNL     1      -5.884   4.051  71.491  1.00  0.00    -0.012 Cl 
HETATM   38  O   UNL     1      -7.643   2.569  70.009  1.00  0.00    -0.043 OA 
HETATM   39  O   UNL     1      -8.677   4.329  68.902  1.00  0.00    -0.086 OA 
HETATM   40  O   UNL     1      -9.905   2.761  69.934  1.00  0.00     0.014 OA 
ENDBRANCH  27  30
ENDBRANCH  26  27
ENDBRANCH  25  26
ENDBRANCH  18  25
ENDBRANCH  11  16
BRANCH  14  41
HETATM   41  S   UNL     1     -11.147  15.834  67.537  1.00  0.00    -0.204 SA 
BRANCH  41  42
HETATM   42  C   UNL     1     -11.659  14.249  66.793  1.00  0.00    -0.391 C  
BRANCH  42  43
HETATM   43  C   UNL     1     -11.903  13.247  67.913  1.00  0.00    -0.388 C  
HETATM   44  C   UNL     1     -11.229  11.919  67.645  1.00  0.00    -0.276 C  
HETATM   45  F   UNL     1     -10.410  11.587  68.672  1.00  0.00    -0.185 F  
HETATM   46  F   UNL     1     -10.489  11.920  66.519  1.00  0.00    -0.229 F  
HETATM   47  F   UNL     1     -12.145  10.931  67.534  1.00  0.00    -0.112 F  
ENDBRANCH  42  43
ENDBRANCH  41  42
ENDBRANCH  14  41
ENDBRANCH   5   7
ENDBRANCH   4   5
ENDBRANCH   3   4
ENDBRANCH   2   3
TORSDOF 12
ENDMDL
MODEL      270
REMARK 921   NORMALIZED FREE ENERGY PREDICTED BY IDOCK:   23.75 KCAL/MOL
REMARK 922        TOTAL FREE ENERGY PREDICTED BY IDOCK:   39.40 KCAL/MOL
REMARK 923 INTER-LIGAND FREE ENERGY PREDICTED BY IDOCK:   37.84 KCAL/MOL
REMARK 924 INTRA-LIGAND FREE ENERGY PREDICTED BY IDOCK:    1.56 KCAL/MOL
REMARK 927      BINDING AFFINITY PREDICTED BY RF-SCORE:    0.00 PKD
ROOT
HETATM    1  C   UNL     1      -5.702  20.645  72.622  1.00  0.00     1.637 C  
HETATM    2  S   UNL     1      -5.720  18.880  73.010  1.00  0.00     4.970 SA 
ENDROOT
BRANCH   2   3
HETATM    3  C   UNL     1      -6.135  18.210  71.355  1.00  0.00     1.363 C  
BRANCH   3   4
HETATM    4  C   UNL     1      -7.428  17.367  71.379  1.00  0.00     7.030 C  
BRANCH   4   5
HETATM    5  N   UNL     1      -7.368  16.302  70.393  1.00  0.00     1.250 NA 
HETATM    6  H   UNL     1      -6.639  15.592  70.463  1.00  0.00     0.000 HD 
BRANCH   5   7
HETATM    7  C   UNL     1      -8.286  16.238  69.359  1.00  0.00    -0.035 A  
HETATM    8  C   UNL     1      -8.633  15.001  68.794  1.00  0.00    -0.182 A  
HETATM    9  N   UNL     1      -8.253  13.708  69.099  1.00  0.00     0.262 NA 
HETATM   10  C   UNL     1      -8.968  12.944  68.289  1.00  0.00    -0.175 A  
HETATM   11  N   UNL     1      -9.773  13.691  67.453  1.00  0.00    -0.224 NA 
HETATM   12  C   UNL     1      -9.568  15.004  67.770  1.00  0.00    -0.203 A  
HETATM   13  N   UNL     1      -8.876  17.358  68.848  1.00  0.00    -0.210 NA 
HETATM   14  C   UNL     1      -9.737  17.224  67.819  1.00  0.00    -0.270 A  
HETATM   15  N   UNL     1     -10.151  16.076  67.231  1.00  0.00    -0.260 NA 
BRANCH  11  16
HETATM   16  C   UNL     1     -10.780  13.125  66.583  1.00  0.00    -0.279 C  
HETATM   17  O   UNL     1     -11.540  12.186  67.353  1.00  0.00    -0.330 OA 
HETATM   18  C   UNL     1     -11.155  10.847  67.000  1.00  0.00    -0.202 C  
HETATM   19  H   UNL     1     -11.195  11.965  63.531  1.00  0.00     0.000 HD 
HETATM   20  O   UNL     1     -11.440  12.436  64.318  1.00  0.00    -0.323 OA 
HETATM   21  C   UNL     1     -10.269  10.921  65.761  1.00  0.00    -0.259 C  
HETATM   22  H   UNL     1     -10.204  10.053  63.996  1.00  0.00     0.000 HD 
HETATM   23  C   UNL     1     -10.384  12.362  65.308  1.00  0.00    -0.282 C  
HETATM   24  O   UNL     1     -10.755  10.007  64.768  1.00  0.00     0.414 OA 
BRANCH  18  25
HETATM   25  C   UNL     1     -10.446  10.133  68.152  1.00  0.00    -0.206 C  
BRANCH  25  26
HETATM   26  O   UNL     1     -11.378   9.183  68.669  1.00  0.00     0.198 OA 
BRANCH  26  27
HETATM   27  P   UNL     1     -11.461   7.798  67.862  1.00  0.00     1.841 P  
HETATM   28  O   UNL     1     -13.071   7.708  67.745  1.00  0.00     9.471 OA 
HETATM   29  O   UNL     1     -10.770   7.760  66.532  1.00  0.00    -0.093 OA 
BRANCH  27  30
HETATM   30  O   UNL     1     -10.912   6.685  68.925  1.00  0.00    -0.263 OA 
HETATM   31  P   UNL     1      -9.721   5.577  68.338  1.00  0.00    -0.147 P  
HETATM   32  C   UNL     1      -8.461   4.404  67.717  1.00  0.00    -0.098 C  
HETATM   33  O   UNL     1     -10.951   4.731  67.632  1.00  0.00     0.492 OA 
HETATM   34  O   UNL     1      -9.202   6.605  67.298  1.00  0.00    -0.122 OA 
HETATM   35 CL   UNL     1      -8.602   4.101  65.919  1.00  0.00    -0.113 Cl 
HETATM   36  P   UNL     1      -6.798   5.153  67.878  1.00  0.00    -0.062 P  
HETATM   37 CL   UNL     1      -8.733   2.809  68.494  1.00  0.00    -0.118 Cl 
HETATM   38  O   UNL     1      -6.532   4.253  69.244  1.00  0.00    -0.034 OA 
HETATM   39  O   UNL     1      -7.397   6.369  68.838  1.00  0.00    -0.082 OA 
HETATM   40  O   UNL     1      -5.392   5.786  68.016  1.00  0.00    -0.004 OA 
ENDBRANCH  27  30
ENDBRANCH  26  27
ENDBRANCH  25  26
ENDBRANCH  18  25
ENDBRANCH  11  16
BRANCH  14  41
HETATM   41  S   UNL     1     -10.433  18.698  67.106  1.00  0.00    -0.415 SA 
BRANCH  41  42
HETATM   42  C   UNL     1     -11.174  18.011  65.587  1.00  0.00     0.851 C  
BRANCH  42  43
HETATM   43  C   UNL     1     -10.486  18.645  64.385  1.00  0.00     4.994 C  
HETATM   44  C   UNL     1     -10.597  20.154  64.396  1.00  0.00     3.105 C  
HETATM   45  F   UNL     1      -9.369  20.720  64.331  1.00  0.00     0.929 F  
HETATM   46  F   UNL     1     -11.206  20.630  65.499  1.00  0.00     0.098 F  
HETATM   47  F   UNL     1     -11.292  20.591  63.323  1.00  0.00     3.923 F  
ENDBRANCH  42  43
ENDBRANCH  41  42
ENDBRANCH  14  41
ENDBRANCH   5   7
ENDBRANCH   4   5
ENDBRANCH   3   4
ENDBRANCH   2   3
TORSDOF 12
ENDMDL
MODEL      271
REMARK 921   NORMALIZED FREE ENERGY PREDICTED BY IDOCK:   24.64 KCAL/MOL
REMARK 922        TOTAL FREE ENERGY PREDICTED BY IDOCK:   40.92 KCAL/MOL
REMARK 923 INTER-LIGAND FREE ENERGY PREDICTED BY IDOCK:    8.52 KCAL/MOL
REMARK 924 INTRA-LIGAND FREE ENERGY PREDICTED BY IDOCK:   32.40 KCAL/MOL
REMARK 927      BINDING AFFINITY PREDICTED BY RF-SCORE:    0.00 PKD
ROOT
HETATM    1  C   UNL     1     -12.657  16.466  65.999  1.00  0.00     3.701 C  
HETATM    2  S   UNL     1     -11.471  16.412  64.637  1.00  0.00     0.161 SA 
ENDROOT
BRANCH   2   3
HETATM    3  C   UNL     1     -11.661  14.659  64.137  1.00  0.00    -0.177 C  
BRANCH   3   4
HETATM    4  C   UNL     1     -10.647  13.740  64.852  1.00  0.00    -0.413 C  
BRANCH   4   5
HETATM    5  N   UNL     1     -11.062  13.479  66.219  1.00  0.00    -0.299 NA 
HETATM    6  H   UNL     1     -11.887  13.946  66.592  1.00  0.00     0.000 HD 
BRANCH   5   7
HETATM    7  C   UNL     1     -10.352  12.604  67.023  1.00  0.00    -0.232 A  
HETATM    8  C   UNL     1     -10.602  11.224  66.964  1.00  0.00    -0.246 A  
HETATM    9  N   UNL     1     -11.456  10.474  66.178  1.00  0.00     0.443 NA 
HETATM   10  C   UNL     1     -11.199   9.217  66.503  1.00  0.00     1.375 A  
HETATM   11  N   UNL     1     -10.237   9.125  67.487  1.00  0.00    -0.228 NA 
HETATM   12  C   UNL     1      -9.848  10.400  67.786  1.00  0.00    -0.168 A  
HETATM   13  N   UNL     1      -9.399  13.041  67.897  1.00  0.00    -0.204 NA 
HETATM   14  C   UNL     1      -8.769  12.135  68.673  1.00  0.00     0.007 A  
HETATM   15  N   UNL     1      -8.924  10.789  68.666  1.00  0.00    -0.156 NA 
BRANCH  11  16
HETATM   16  C   UNL     1      -9.640   7.881  67.921  1.00  0.00    -0.147 C  
HETATM   17  O   UNL     1      -9.632   7.880  69.353  1.00  0.00    -0.160 OA 
HETATM   18  C   UNL     1      -8.302   8.139  69.830  1.00  0.00    -0.124 C  
HETATM   19  H   UNL     1      -7.144   5.844  67.246  1.00  0.00     0.000 HD 
HETATM   20  O   UNL     1      -8.032   6.072  67.495  1.00  0.00    -0.101 OA 
HETATM   21  C   UNL     1      -7.351   8.065  68.640  1.00  0.00    -0.089 C  
HETATM   22  H   UNL     1      -5.660   7.152  68.217  1.00  0.00     0.000 HD 
HETATM   23  C   UNL     1      -8.204   7.511  67.517  1.00  0.00    -0.113 C  
HETATM   24  O   UNL     1      -6.252   7.198  68.957  1.00  0.00    -0.029 OA 
BRANCH  18  25
HETATM   25  C   UNL     1      -8.202   9.490  70.541  1.00  0.00    -0.167 C  
BRANCH  25  26
HETATM   26  O   UNL     1      -9.455   9.691  71.197  1.00  0.00    -0.164 OA 
BRANCH  26  27
HETATM   27  P   UNL     1     -10.416   8.407  71.244  1.00  0.00    -0.251 P  
HETATM   28  O   UNL     1     -11.570   9.030  72.189  1.00  0.00    -0.355 OA 
HETATM   29  O   UNL     1     -10.935   7.914  69.926  1.00  0.00    -0.243 OA 
BRANCH  27  30
HETATM   30  O   UNL     1      -9.552   7.295  72.072  1.00  0.00    -0.150 OA 
HETATM   31  P   UNL     1      -9.629   5.667  71.492  1.00  0.00    -0.156 P  
HETATM   32  C   UNL     1      -9.710   3.945  70.877  1.00  0.00    -0.183 C  
HETATM   33  O   UNL     1     -11.088   5.535  72.252  1.00  0.00    -0.250 OA 
HETATM   34  O   UNL     1      -9.898   6.143  70.040  1.00  0.00    -0.165 OA 
HETATM   35 CL   UNL     1     -11.284   3.572  70.024  1.00  0.00     5.062 Cl 
HETATM   36  P   UNL     1      -8.462   3.708  69.559  1.00  0.00    -0.071 P  
HETATM   37 CL   UNL     1      -9.653   2.834  72.286  1.00  0.00    -0.184 Cl 
HETATM   38  O   UNL     1      -7.464   2.957  70.648  1.00  0.00    -0.037 OA 
HETATM   39  O   UNL     1      -7.732   5.151  69.937  1.00  0.00    -0.066 OA 
HETATM   40  O   UNL     1      -7.406   3.507  68.445  1.00  0.00    -0.050 OA 
ENDBRANCH  27  30
ENDBRANCH  26  27
ENDBRANCH  25  26
ENDBRANCH  18  25
ENDBRANCH  11  16
BRANCH  14  41
HETATM   41  S   UNL     1      -7.591  12.725  69.870  1.00  0.00     1.878 SA 
BRANCH  41  42
HETATM   42  C   UNL     1      -6.028  12.327  69.017  1.00  0.00    -0.070 C  
BRANCH  42  43
HETATM   43  C   UNL     1      -5.501  11.008  69.568  1.00  0.00    -0.042 C  
HETATM   44  C   UNL     1      -6.355  10.483  70.701  1.00  0.00    -0.037 C  
HETATM   45  F   UNL     1      -6.781   9.226  70.430  1.00  0.00    -0.045 F  
HETATM   46  F   UNL     1      -7.444  11.239  70.936  1.00  0.00     1.498 F  
HETATM   47  F   UNL     1      -5.643  10.421  71.848  1.00  0.00    -0.034 F  
ENDBRANCH  42  43
ENDBRANCH  41  42
ENDBRANCH  14  41
ENDBRANCH   5   7
ENDBRANCH   4   5
ENDBRANCH   3   4
ENDBRANCH   2   3
TORSDOF 12
ENDMDL
MODEL      272
REMARK 921   NORMALIZED FREE ENERGY PREDICTED BY IDOCK:   29.32 KCAL/MOL
REMARK 922        TOTAL FREE ENERGY PREDICTED BY IDOCK:   48.88 KCAL/MOL
REMARK 923 INTER-LIGAND FREE ENERGY PREDICTED BY IDOCK:   14.36 KCAL/MOL
REMARK 924 INTRA-LIGAND FREE ENERGY PREDICTED BY IDOCK:   34.52 KCAL/MOL
REMARK 927      BINDING AFFINITY PREDICTED BY RF-SCORE:    0.00 PKD
ROOT
HETATM    1  C   UNL     1      -5.471  14.017  70.527  1.00  0.00    -0.129 C  
HETATM    2  S   UNL     1      -5.135  12.855  71.869  1.00  0.00    -0.014 SA 
ENDROOT
BRANCH   2   3
HETATM    3  C   UNL     1      -6.106  13.647  73.207  1.00  0.00     1.095 C  
BRANCH   3   4
HETATM    4  C   UNL     1      -7.079  14.715  72.662  1.00  0.00     3.593 C  
BRANCH   4   5
HETATM    5  N   UNL     1      -6.976  14.816  71.216  1.00  0.00     0.470 NA 
HETATM    6  H   UNL     1      -6.929  15.736  70.779  1.00  0.00     0.000 HD 
BRANCH   5   7
HETATM    7  C   UNL     1      -6.941  13.682  70.424  1.00  0.00     0.820 A  
HETATM    8  C   UNL     1      -6.704  12.423  70.998  1.00  0.00     2.592 A  
HETATM    9  N   UNL     1      -6.518  12.027  72.308  1.00  0.00     3.520 NA 
HETATM   10  C   UNL     1      -6.426  10.707  72.254  1.00  0.00     2.551 A  
HETATM   11  N   UNL     1      -6.514  10.238  70.960  1.00  0.00    -0.337 NA 
HETATM   12  C   UNL     1      -6.695  11.324  70.152  1.00  0.00     0.098 A  
HETATM   13  N   UNL     1      -7.126  13.740  69.073  1.00  0.00    -0.108 NA 
HETATM   14  C   UNL     1      -7.047  12.598  68.360  1.00  0.00    -0.101 A  
HETATM   15  N   UNL     1      -6.851  11.343  68.827  1.00  0.00    -0.074 NA 
BRANCH  11  16
HETATM   16  C   UNL     1      -6.611   8.837  70.613  1.00  0.00    -0.045 C  
HETATM   17  O   UNL     1      -7.112   8.756  69.273  1.00  0.00    -0.060 OA 
HETATM   18  C   UNL     1      -8.494   8.361  69.298  1.00  0.00    -0.125 C  
HETATM   19  H   UNL     1      -7.549   5.933  71.846  1.00  0.00     0.000 HD 
HETATM   20  O   UNL     1      -7.000   6.523  71.343  1.00  0.00    -0.071 OA 
HETATM   21  C   UNL     1      -8.838   7.930  70.719  1.00  0.00    -0.139 C  
HETATM   22  H   UNL     1      -9.690   6.376  71.575  1.00  0.00     0.000 HD 
HETATM   23  C   UNL     1      -7.499   7.882  71.426  1.00  0.00    -0.074 C  
HETATM   24  O   UNL     1      -9.476   6.646  70.690  1.00  0.00    -0.168 OA 
BRANCH  18  25
HETATM   25  C   UNL     1      -9.417   9.481  68.814  1.00  0.00    -0.147 C  
BRANCH  25  26
HETATM   26  O   UNL     1     -10.746   9.077  69.145  1.00  0.00    -0.222 OA 
BRANCH  26  27
HETATM   27  P   UNL     1     -11.698  10.244  69.697  1.00  0.00    -0.046 P  
HETATM   28  O   UNL     1     -12.954   9.988  68.713  1.00  0.00     1.858 OA 
HETATM   29  O   UNL     1     -12.064  10.175  71.150  1.00  0.00    -0.328 OA 
BRANCH  27  30
HETATM   30  O   UNL     1     -10.925  11.621  69.275  1.00  0.00    -0.232 OA 
HETATM   31  P   UNL     1     -11.040  12.094  67.616  1.00  0.00    -0.310 P  
HETATM   32  C   UNL     1     -11.162  12.595  65.860  1.00  0.00    -0.314 C  
HETATM   33  O   UNL     1      -9.865  10.982  67.286  1.00  0.00    -0.175 OA 
HETATM   34  O   UNL     1     -12.412  11.388  67.455  1.00  0.00     0.247 OA 
HETATM   35 CL   UNL     1     -11.379  11.173  64.732  1.00  0.00    -0.053 Cl 
HETATM   36  P   UNL     1     -12.696  13.561  65.606  1.00  0.00    -0.147 P  
HETATM   37 CL   UNL     1      -9.610  13.357  65.376  1.00  0.00    -0.006 Cl 
HETATM   38  O   UNL     1     -11.812  14.962  65.635  1.00  0.00    -0.265 OA 
HETATM   39  O   UNL     1     -12.921  13.709  67.245  1.00  0.00     0.618 OA 
HETATM   40  O   UNL     1     -13.993  14.378  65.391  1.00  0.00     0.343 OA 
ENDBRANCH  27  30
ENDBRANCH  26  27
ENDBRANCH  25  26
ENDBRANCH  18  25
ENDBRANCH  11  16
BRANCH  14  41
HETATM   41  S   UNL     1      -7.203  12.699  66.590  1.00  0.00     0.929 SA 
BRANCH  41  42
HETATM   42  C   UNL     1      -7.510  10.946  66.186  1.00  0.00    -0.107 C  
BRANCH  42  43
HETATM   43  C   UNL     1      -6.234  10.357  65.599  1.00  0.00    -0.126 C  
HETATM   44  C   UNL     1      -6.428   9.884  64.175  1.00  0.00    -0.126 C  
HETATM   45  F   UNL     1      -5.527  10.474  63.353  1.00  0.00    -0.117 F  
HETATM   46  F   UNL     1      -7.656  10.154  63.692  1.00  0.00    -0.140 F  
HETATM   47  F   UNL     1      -6.234   8.550  64.082  1.00  0.00    -0.064 F  
ENDBRANCH  42  43
ENDBRANCH  41  42
ENDBRANCH  14  41
ENDBRANCH   5   7
ENDBRANCH   4   5
ENDBRANCH   3   4
ENDBRANCH   2   3
TORSDOF 12
ENDMDL
MODEL      273
REMARK 921   NORMALIZED FREE ENERGY PREDICTED BY IDOCK:   29.38 KCAL/MOL
REMARK 922        TOTAL FREE ENERGY PREDICTED BY IDOCK:   48.98 KCAL/MOL
REMARK 923 INTER-LIGAND FREE ENERGY PREDICTED BY IDOCK:   11.64 KCAL/MOL
REMARK 924 INTRA-LIGAND FREE ENERGY PREDICTED BY IDOCK:   37.34 KCAL/MOL
REMARK 927      BINDING AFFINITY PREDICTED BY RF-SCORE:    0.00 PKD
ROOT
HETATM    1  C   UNL     1      -7.217   4.213  69.100  1.00  0.00    -0.051 C  
HETATM    2  S   UNL     1      -8.838   3.431  68.937  1.00  0.00    -0.126 SA 
ENDROOT
BRANCH   2   3
HETATM    3  C   UNL     1      -9.887   4.751  69.655  1.00  0.00    -0.221 C  
BRANCH   3   4
HETATM    4  C   UNL     1      -9.267   6.152  69.462  1.00  0.00    -0.138 C  
BRANCH   4   5
HETATM    5  N   UNL     1      -9.854   6.822  68.315  1.00  0.00    -0.140 NA 
HETATM    6  H   UNL     1     -10.065   6.286  67.473  1.00  0.00     0.000 HD 
BRANCH   5   7
HETATM    7  C   UNL     1     -10.129   8.178  68.347  1.00  0.00    -0.200 A  
HETATM    8  C   UNL     1     -11.242   8.659  69.056  1.00  0.00     0.378 A  
HETATM    9  N   UNL     1     -12.188   8.019  69.831  1.00  0.00     0.858 NA 
HETATM   10  C   UNL     1     -12.944   8.992  70.317  1.00  0.00     1.045 A  
HETATM   11  N   UNL     1     -12.542  10.231  69.862  1.00  0.00    -0.032 NA 
HETATM   12  C   UNL     1     -11.456  10.029  69.060  1.00  0.00    -0.012 A  
HETATM   13  N   UNL     1      -9.347   9.088  67.697  1.00  0.00    -0.135 NA 
HETATM   14  C   UNL     1      -9.694  10.391  67.745  1.00  0.00    -0.160 A  
HETATM   15  N   UNL     1     -10.727  10.947  68.421  1.00  0.00    -0.188 NA 
BRANCH  11  16
HETATM   16  C   UNL     1     -13.074  11.483  70.354  1.00  0.00     0.370 C  
HETATM   17  O   UNL     1     -12.430  12.540  69.631  1.00  0.00    -0.032 OA 
HETATM   18  C   UNL     1     -11.448  13.170  70.470  1.00  0.00     0.459 C  
HETATM   19  H   UNL     1     -13.919  13.010  73.144  1.00  0.00     0.000 HD 
HETATM   20  O   UNL     1     -14.005  12.768  72.229  1.00  0.00    -0.405 OA 
HETATM   21  C   UNL     1     -11.635  12.649  71.891  1.00  0.00     3.368 C  
HETATM   22  H   UNL     1     -11.825  13.431  73.686  1.00  0.00     0.000 HD 
HETATM   23  C   UNL     1     -12.935  11.874  71.833  1.00  0.00    -0.329 C  
HETATM   24  O   UNL     1     -11.709  13.755  72.801  1.00  0.00     1.254 OA 
BRANCH  18  25
HETATM   25  C   UNL     1     -10.024  12.924  69.967  1.00  0.00     2.554 C  
BRANCH  25  26
HETATM   26  O   UNL     1      -9.617  14.125  69.310  1.00  0.00     0.054 OA 
BRANCH  26  27
HETATM   27  P   UNL     1      -8.043  14.431  69.360  1.00  0.00     0.409 P  
HETATM   28  O   UNL     1      -8.120  15.855  70.122  1.00  0.00     0.460 OA 
HETATM   29  O   UNL     1      -7.191  13.425  70.075  1.00  0.00     0.496 OA 
BRANCH  27  30
HETATM   30  O   UNL     1      -7.631  14.653  67.795  1.00  0.00    -0.128 OA 
HETATM   31  P   UNL     1      -8.514  13.735  66.625  1.00  0.00     0.505 P  
HETATM   32  C   UNL     1      -9.449  12.763  65.387  1.00  0.00     0.177 C  
HETATM   33  O   UNL     1      -7.552  12.449  67.005  1.00  0.00    -0.132 OA 
HETATM   34  O   UNL     1      -9.764  13.672  67.542  1.00  0.00    -0.218 OA 
HETATM   35 CL   UNL     1     -10.067  11.177  66.053  1.00  0.00    -0.280 Cl 
HETATM   36  P   UNL     1     -10.988  13.653  64.949  1.00  0.00    -0.409 P  
HETATM   37 CL   UNL     1      -8.335  12.320  64.051  1.00  0.00     2.362 Cl 
HETATM   38  O   UNL     1     -10.274  14.187  63.551  1.00  0.00     1.711 OA 
HETATM   39  O   UNL     1     -10.454  15.031  65.707  1.00  0.00    -0.297 OA 
HETATM   40  O   UNL     1     -12.288  14.406  64.577  1.00  0.00    -0.535 OA 
ENDBRANCH  27  30
ENDBRANCH  26  27
ENDBRANCH  25  26
ENDBRANCH  18  25
ENDBRANCH  11  16
BRANCH  14  41
HETATM   41  S   UNL     1      -8.717  11.557  66.822  1.00  0.00    -0.182 SA 
BRANCH  41  42
HETATM   42  C   UNL     1      -7.432  10.451  66.150  1.00  0.00    -0.131 C  
BRANCH  42  43
HETATM   43  C   UNL     1      -6.451  10.117  67.267  1.00  0.00    -0.068 C  
HETATM   44  C   UNL     1      -6.772  10.858  68.546  1.00  0.00    -0.057 C  
HETATM   45  F   UNL     1      -6.928   9.987  69.572  1.00  0.00    -0.050 F  
HETATM   46  F   UNL     1      -7.898  11.593  68.462  1.00  0.00    -0.113 F  
HETATM   47  F   UNL     1      -5.763  11.691  68.883  1.00  0.00    -0.047 F  
ENDBRANCH  42  43
ENDBRANCH  41  42
ENDBRANCH  14  41
ENDBRANCH   5   7
ENDBRANCH   4   5
ENDBRANCH   3   4
ENDBRANCH   2   3
TORSDOF 12
ENDMDL
MODEL      274
REMARK 921   NORMALIZED FREE ENERGY PREDICTED BY IDOCK:   29.93 KCAL/MOL
REMARK 922        TOTAL FREE ENERGY PREDICTED BY IDOCK:   49.92 KCAL/MOL
REMARK 923 INTER-LIGAND FREE ENERGY PREDICTED BY IDOCK:    8.21 KCAL/MOL
REMARK 924 INTRA-LIGAND FREE ENERGY PREDICTED BY IDOCK:   41.71 KCAL/MOL
REMARK 927      BINDING AFFINITY PREDICTED BY RF-SCORE:    0.00 PKD
ROOT
HETATM    1  C   UNL     1      -5.535  14.877  68.280  1.00  0.00    -0.116 C  
HETATM    2  S   UNL     1      -5.385  13.102  68.586  1.00  0.00    -0.072 SA 
ENDROOT
BRANCH   2   3
HETATM    3  C   UNL     1      -5.138  12.518  66.866  1.00  0.00     0.260 C  
BRANCH   3   4
HETATM    4  C   UNL     1      -6.193  13.098  65.901  1.00  0.00     5.561 C  
BRANCH   4   5
HETATM    5  N   UNL     1      -7.087  12.056  65.426  1.00  0.00     1.400 NA 
HETATM    6  H   UNL     1      -7.699  12.242  64.633  1.00  0.00     0.000 HD 
BRANCH   5   7
HETATM    7  C   UNL     1      -7.119  10.815  66.037  1.00  0.00    -0.102 A  
HETATM    8  C   UNL     1      -6.654  10.659  67.352  1.00  0.00    -0.071 A  
HETATM    9  N   UNL     1      -6.159  11.565  68.270  1.00  0.00    -0.045 NA 
HETATM   10  C   UNL     1      -5.962  10.859  69.372  1.00  0.00    -0.048 A  
HETATM   11  N   UNL     1      -6.280   9.529  69.195  1.00  0.00    -0.041 NA 
HETATM   12  C   UNL     1      -6.725   9.391  67.912  1.00  0.00    -0.067 A  
HETATM   13  N   UNL     1      -7.591   9.707  65.394  1.00  0.00    -0.106 NA 
HETATM   14  C   UNL     1      -7.563   8.523  66.039  1.00  0.00    -0.089 A  
HETATM   15  N   UNL     1      -7.160   8.283  67.310  1.00  0.00    -0.078 NA 
BRANCH  11  16
HETATM   16  C   UNL     1      -6.322   8.559  70.268  1.00  0.00    -0.035 C  
HETATM   17  O   UNL     1      -6.481   7.264  69.675  1.00  0.00    -0.034 OA 
HETATM   18  C   UNL     1      -7.835   6.816  69.849  1.00  0.00    -0.115 C  
HETATM   19  H   UNL     1      -7.602   8.075  73.261  1.00  0.00     0.000 HD 
HETATM   20  O   UNL     1      -6.932   8.030  72.589  1.00  0.00    -0.076 OA 
HETATM   21  C   UNL     1      -8.527   7.767  70.818  1.00  0.00    -0.121 C  
HETATM   22  H   UNL     1      -9.600   7.605  72.460  1.00  0.00     0.000 HD 
HETATM   23  C   UNL     1      -7.405   8.631  71.356  1.00  0.00    -0.102 C  
HETATM   24  O   UNL     1      -9.169   7.013  71.855  1.00  0.00    -0.141 OA 
BRANCH  18  25
HETATM   25  C   UNL     1      -8.584   6.730  68.518  1.00  0.00    -0.125 C  
BRANCH  25  26
HETATM   26  O   UNL     1      -9.753   5.948  68.765  1.00  0.00    -0.124 OA 
BRANCH  26  27
HETATM   27  P   UNL     1      -9.487   4.515  69.436  1.00  0.00    -0.199 P  
HETATM   28  O   UNL     1      -7.904   4.418  69.127  1.00  0.00    -0.062 OA 
HETATM   29  O   UNL     1      -9.812   4.392  70.896  1.00  0.00    -0.183 OA 
BRANCH  27  30
HETATM   30  O   UNL     1     -10.310   3.472  68.486  1.00  0.00     0.730 OA 
HETATM   31  P   UNL     1     -10.153   3.693  66.778  1.00  0.00     1.075 P  
HETATM   32  C   UNL     1      -9.985   3.927  64.970  1.00  0.00    -0.184 C  
HETATM   33  O   UNL     1     -11.256   4.915  66.900  1.00  0.00     0.636 OA 
HETATM   34  O   UNL     1      -8.742   4.318  66.936  1.00  0.00    -0.110 OA 
HETATM   35 CL   UNL     1      -9.651   5.664  64.509  1.00  0.00     0.755 Cl 
HETATM   36  P   UNL     1      -8.492   3.049  64.377  1.00  0.00    -0.095 P  
HETATM   37 CL   UNL     1     -11.553   3.518  64.195  1.00  0.00     1.049 Cl 
HETATM   38  O   UNL     1      -9.446   1.810  63.828  1.00  0.00    -0.108 OA 
HETATM   39  O   UNL     1      -8.341   2.247  65.823  1.00  0.00    -0.086 OA 
HETATM   40  O   UNL     1      -7.230   2.306  63.875  1.00  0.00    -0.049 OA 
ENDBRANCH  27  30
ENDBRANCH  26  27
ENDBRANCH  25  26
ENDBRANCH  18  25
ENDBRANCH  11  16
BRANCH  14  41
HETATM   41  S   UNL     1      -8.099   7.072  65.160  1.00  0.00    -0.106 SA 
BRANCH  41  42
HETATM   42  C   UNL     1      -6.863   5.860  65.739  1.00  0.00    -0.056 C  
BRANCH  42  43
HETATM   43  C   UNL     1      -6.337   5.095  64.531  1.00  0.00    -0.034 C  
HETATM   44  C   UNL     1      -7.445   4.699  63.581  1.00  0.00    -0.055 C  
HETATM   45  F   UNL     1      -7.190   5.164  62.335  1.00  0.00    -0.034 F  
HETATM   46  F   UNL     1      -8.652   5.171  63.951  1.00  0.00    -0.129 F  
HETATM   47  F   UNL     1      -7.542   3.354  63.490  1.00  0.00    -0.058 F  
ENDBRANCH  42  43
ENDBRANCH  41  42
ENDBRANCH  14  41
ENDBRANCH   5   7
ENDBRANCH   4   5
ENDBRANCH   3   4
ENDBRANCH   2   3
TORSDOF 12
ENDMDL
MODEL      275
REMARK 921   NORMALIZED FREE ENERGY PREDICTED BY IDOCK:   30.46 KCAL/MOL
REMARK 922        TOTAL FREE ENERGY PREDICTED BY IDOCK:   50.81 KCAL/MOL
REMARK 923 INTER-LIGAND FREE ENERGY PREDICTED BY IDOCK:   36.67 KCAL/MOL
REMARK 924 INTRA-LIGAND FREE ENERGY PREDICTED BY IDOCK:   14.14 KCAL/MOL
REMARK 927      BINDING AFFINITY PREDICTED BY RF-SCORE:    0.00 PKD
ROOT
HETATM    1  C   UNL     1     -12.884  11.405  70.808  1.00  0.00    -0.167 C  
HETATM    2  S   UNL     1     -14.056  10.318  71.649  1.00  0.00     0.726 SA 
ENDROOT
BRANCH   2   3
HETATM    3  C   UNL     1     -13.170   8.723  71.473  1.00  0.00    -0.314 C  
BRANCH   3   4
HETATM    4  C   UNL     1     -14.110   7.585  71.023  1.00  0.00    -0.006 C  
BRANCH   4   5
HETATM    5  N   UNL     1     -13.767   7.130  69.686  1.00  0.00     3.731 NA 
HETATM    6  H   UNL     1     -14.509   6.870  69.037  1.00  0.00     0.000 HD 
BRANCH   5   7
HETATM    7  C   UNL     1     -12.446   7.046  69.282  1.00  0.00     2.310 A  
HETATM    8  C   UNL     1     -12.090   6.247  68.184  1.00  0.00     3.081 A  
HETATM    9  N   UNL     1     -12.846   5.484  67.314  1.00  0.00     9.891 NA 
HETATM   10  C   UNL     1     -11.978   5.023  66.427  1.00  0.00     4.076 A  
HETATM   11  N   UNL     1     -10.691   5.432  66.704  1.00  0.00    -0.286 NA 
HETATM   12  C   UNL     1     -10.751   6.214  67.822  1.00  0.00    -0.303 A  
HETATM   13  N   UNL     1     -11.450   7.720  69.927  1.00  0.00     0.016 NA 
HETATM   14  C   UNL     1     -10.181   7.565  69.498  1.00  0.00    -0.207 A  
HETATM   15  N   UNL     1      -9.748   6.842  68.438  1.00  0.00    -0.128 NA 
BRANCH  11  16
HETATM   16  C   UNL     1      -9.567   5.219  65.818  1.00  0.00    -0.089 C  
HETATM   17  O   UNL     1      -8.545   6.155  66.183  1.00  0.00    -0.130 OA 
HETATM   18  C   UNL     1      -8.500   7.221  65.220  1.00  0.00    -0.057 C  
HETATM   19  H   UNL     1      -8.844   4.650  62.658  1.00  0.00     0.000 HD 
HETATM   20  O   UNL     1      -8.749   4.555  63.599  1.00  0.00    -0.123 OA 
HETATM   21  C   UNL     1      -9.377   6.826  64.037  1.00  0.00     2.211 C  
HETATM   22  H   UNL     1      -9.188   6.749  62.080  1.00  0.00     0.000 HD 
HETATM   23  C   UNL     1      -9.720   5.374  64.297  1.00  0.00     0.980 C  
HETATM   24  O   UNL     1      -8.642   6.994  62.817  1.00  0.00     0.130 OA 
BRANCH  18  25
HETATM   25  C   UNL     1      -8.940   8.556  65.823  1.00  0.00    -0.182 C  
BRANCH  25  26
HETATM   26  O   UNL     1     -10.148   8.920  65.153  1.00  0.00     0.580 OA 
BRANCH  26  27
HETATM   27  P   UNL     1     -10.934  10.164  65.791  1.00  0.00     1.192 P  
HETATM   28  O   UNL     1     -12.416   9.777  65.274  1.00  0.00     7.648 OA 
HETATM   29  O   UNL     1     -10.850  10.314  67.281  1.00  0.00    -0.277 OA 
BRANCH  27  30
HETATM   30  O   UNL     1     -10.371  11.456  64.964  1.00  0.00    -0.259 OA 
HETATM   31  P   UNL     1      -9.638  12.713  65.899  1.00  0.00    -0.006 P  
HETATM   32  C   UNL     1      -8.863  14.043  66.889  1.00  0.00    -0.194 C  
HETATM   33  O   UNL     1     -11.160  13.237  66.266  1.00  0.00    -0.286 OA 
HETATM   34  O   UNL     1      -9.208  11.712  67.003  1.00  0.00    -0.175 OA 
HETATM   35 CL   UNL     1      -9.534  14.145  68.586  1.00  0.00    -0.195 Cl 
HETATM   36  P   UNL     1      -7.098  13.646  67.167  1.00  0.00     0.782 P  
HETATM   37 CL   UNL     1      -9.249  15.621  66.125  1.00  0.00    -0.361 Cl 
HETATM   38  O   UNL     1      -6.676  14.704  65.964  1.00  0.00     3.507 OA 
HETATM   39  O   UNL     1      -7.151  12.432  66.035  1.00  0.00     1.071 OA 
HETATM   40  O   UNL     1      -5.604  13.311  67.402  1.00  0.00    -0.334 OA 
ENDBRANCH  27  30
ENDBRANCH  26  27
ENDBRANCH  25  26
ENDBRANCH  18  25
ENDBRANCH  11  16
BRANCH  14  41
HETATM   41  S   UNL     1      -8.881   8.380  70.401  1.00  0.00    -0.153 SA 
BRANCH  41  42
HETATM   42  C   UNL     1      -7.784   6.964  70.748  1.00  0.00    -0.092 C  
BRANCH  42  43
HETATM   43  C   UNL     1      -8.614   5.856  71.383  1.00  0.00    -0.129 C  
HETATM   44  C   UNL     1      -9.637   5.290  70.423  1.00  0.00    -0.179 C  
HETATM   45  F   UNL     1      -9.485   3.950  70.304  1.00  0.00    -0.188 F  
HETATM   46  F   UNL     1      -9.552   5.820  69.187  1.00  0.00    -0.132 F  
HETATM   47  F   UNL     1     -10.892   5.508  70.877  1.00  0.00    -0.314 F  
ENDBRANCH  42  43
ENDBRANCH  41  42
ENDBRANCH  14  41
ENDBRANCH   5   7
ENDBRANCH   4   5
ENDBRANCH   3   4
ENDBRANCH   2   3
TORSDOF 12
ENDMDL
MODEL      276
REMARK 921   NORMALIZED FREE ENERGY PREDICTED BY IDOCK:   30.49 KCAL/MOL
REMARK 922        TOTAL FREE ENERGY PREDICTED BY IDOCK:   50.86 KCAL/MOL
REMARK 923 INTER-LIGAND FREE ENERGY PREDICTED BY IDOCK:   27.22 KCAL/MOL
REMARK 924 INTRA-LIGAND FREE ENERGY PREDICTED BY IDOCK:   23.65 KCAL/MOL
REMARK 927      BINDING AFFINITY PREDICTED BY RF-SCORE:    0.00 PKD
ROOT
HETATM    1  C   UNL     1      -5.429   9.517  72.189  1.00  0.00    -0.039 C  
HETATM    2  S   UNL     1      -6.800   8.386  71.861  1.00  0.00    -0.091 SA 
ENDROOT
BRANCH   2   3
HETATM    3  C   UNL     1      -7.630   8.433  73.494  1.00  0.00    -0.077 C  
BRANCH   3   4
HETATM    4  C   UNL     1      -8.537   9.673  73.647  1.00  0.00     4.507 C  
BRANCH   4   5
HETATM    5  N   UNL     1      -9.801   9.475  72.960  1.00  0.00     2.611 NA 
HETATM    6  H   UNL     1     -10.496   8.843  73.358  1.00  0.00     0.000 HD 
BRANCH   5   7
HETATM    7  C   UNL     1     -10.077  10.132  71.774  1.00  0.00     2.825 A  
HETATM    8  C   UNL     1     -11.037  11.155  71.736  1.00  0.00     3.895 A  
HETATM    9  N   UNL     1     -11.813  11.730  72.725  1.00  0.00     4.645 NA 
HETATM   10  C   UNL     1     -12.469  12.706  72.117  1.00  0.00     0.497 A  
HETATM   11  N   UNL     1     -12.172  12.766  70.771  1.00  0.00    -0.334 NA 
HETATM   12  C   UNL     1     -11.258  11.783  70.519  1.00  0.00     0.845 A  
HETATM   13  N   UNL     1      -9.442   9.812  70.609  1.00  0.00    -0.115 NA 
HETATM   14  C   UNL     1      -9.784  10.473  69.483  1.00  0.00    -0.119 A  
HETATM   15  N   UNL     1     -10.673  11.486  69.357  1.00  0.00    -0.132 NA 
BRANCH  11  16
HETATM   16  C   UNL     1     -12.611  13.829  69.893  1.00  0.00    -0.092 C  
HETATM   17  O   UNL     1     -13.241  13.221  68.759  1.00  0.00     1.917 OA 
HETATM   18  C   UNL     1     -12.361  13.286  67.625  1.00  0.00     0.052 C  
HETATM   19  H   UNL     1     -11.631  16.710  68.640  1.00  0.00     0.000 HD 
HETATM   20  O   UNL     1     -12.252  16.092  69.007  1.00  0.00    -0.125 OA 
HETATM   21  C   UNL     1     -11.195  14.200  67.983  1.00  0.00    -0.281 C  
HETATM   22  H   UNL     1     -10.293  15.751  67.175  1.00  0.00     0.000 HD 
HETATM   23  C   UNL     1     -11.606  14.828  69.299  1.00  0.00    -0.303 C  
HETATM   24  O   UNL     1     -11.019  15.181  66.952  1.00  0.00    -0.317 OA 
BRANCH  18  25
HETATM   25  C   UNL     1     -11.875  11.899  67.199  1.00  0.00    -0.139 C  
BRANCH  25  26
HETATM   26  O   UNL     1     -11.124  12.089  65.999  1.00  0.00    -0.296 OA 
BRANCH  26  27
HETATM   27  P   UNL     1     -11.033  13.605  65.482  1.00  0.00    -0.312 P  
HETATM   28  O   UNL     1     -10.131  13.336  64.168  1.00  0.00    -0.347 OA 
HETATM   29  O   UNL     1     -12.335  14.284  65.175  1.00  0.00    -0.414 OA 
BRANCH  27  30
HETATM   30  O   UNL     1     -10.146  14.363  66.626  1.00  0.00    -0.262 OA 
HETATM   31  P   UNL     1      -9.687  15.997  66.293  1.00  0.00    -0.360 P  
HETATM   32  C   UNL     1      -9.203  17.726  65.940  1.00  0.00     0.126 C  
HETATM   33  O   UNL     1      -8.484  15.395  65.336  1.00  0.00     1.366 OA 
HETATM   34  O   UNL     1     -10.933  16.218  65.396  1.00  0.00    -0.291 OA 
HETATM   35 CL   UNL     1      -9.044  18.065  64.151  1.00  0.00     9.044 Cl 
HETATM   36  P   UNL     1     -10.549  18.854  66.456  1.00  0.00    -0.252 P  
HETATM   37 CL   UNL     1      -7.569  18.012  66.629  1.00  0.00    -0.247 Cl 
HETATM   38  O   UNL     1      -9.709  19.215  67.838  1.00  0.00    -0.307 OA 
HETATM   39  O   UNL     1     -11.312  17.631  67.279  1.00  0.00     0.183 OA 
HETATM   40  O   UNL     1     -11.687  19.809  66.893  1.00  0.00     0.524 OA 
ENDBRANCH  27  30
ENDBRANCH  26  27
ENDBRANCH  25  26
ENDBRANCH  18  25
ENDBRANCH  11  16
BRANCH  14  41
HETATM   41  S   UNL     1      -9.012   9.988  67.955  1.00  0.00    -0.128 SA 
BRANCH  41  42
HETATM   42  C   UNL     1      -8.218  11.559  67.474  1.00  0.00    -0.140 C  
BRANCH  42  43
HETATM   43  C   UNL     1      -7.579  12.175  68.713  1.00  0.00    -0.056 C  
HETATM   44  C   UNL     1      -6.174  11.664  68.941  1.00  0.00    -0.057 C  
HETATM   45  F   UNL     1      -5.300  12.697  69.014  1.00  0.00    -0.065 F  
HETATM   46  F   UNL     1      -5.747  10.839  67.966  1.00  0.00    -0.043 F  
HETATM   47  F   UNL     1      -6.092  10.993  70.112  1.00  0.00    -0.078 F  
ENDBRANCH  42  43
ENDBRANCH  41  42
ENDBRANCH  14  41
ENDBRANCH   5   7
ENDBRANCH   4   5
ENDBRANCH   3   4
ENDBRANCH   2   3
TORSDOF 12
ENDMDL
MODEL      277
REMARK 921   NORMALIZED FREE ENERGY PREDICTED BY IDOCK:   31.41 KCAL/MOL
REMARK 922        TOTAL FREE ENERGY PREDICTED BY IDOCK:   52.43 KCAL/MOL
REMARK 923 INTER-LIGAND FREE ENERGY PREDICTED BY IDOCK:   17.83 KCAL/MOL
REMARK 924 INTRA-LIGAND FREE ENERGY PREDICTED BY IDOCK:   34.61 KCAL/MOL
REMARK 927      BINDING AFFINITY PREDICTED BY RF-SCORE:    0.00 PKD
ROOT
HETATM    1  C   UNL     1      -5.392  14.088  70.649  1.00  0.00    -0.127 C  
HETATM    2  S   UNL     1      -5.133  12.921  72.004  1.00  0.00     0.029 SA 
ENDROOT
BRANCH   2   3
HETATM    3  C   UNL     1      -6.064  13.781  73.328  1.00  0.00     0.933 C  
BRANCH   3   4
HETATM    4  C   UNL     1      -6.971  14.897  72.766  1.00  0.00     3.461 C  
BRANCH   4   5
HETATM    5  N   UNL     1      -6.860  14.972  71.320  1.00  0.00     0.616 NA 
HETATM    6  H   UNL     1      -6.770  15.883  70.869  1.00  0.00     0.000 HD 
BRANCH   5   7
HETATM    7  C   UNL     1      -6.875  13.826  70.544  1.00  0.00     0.646 A  
HETATM    8  C   UNL     1      -6.690  12.567  71.136  1.00  0.00     2.916 A  
HETATM    9  N   UNL     1      -6.517  12.182  72.451  1.00  0.00     3.717 NA 
HETATM   10  C   UNL     1      -6.480  10.859  72.416  1.00  0.00     3.324 A  
HETATM   11  N   UNL     1      -6.592  10.375  71.129  1.00  0.00    -0.237 NA 
HETATM   12  C   UNL     1      -6.729  11.456  70.306  1.00  0.00     0.336 A  
HETATM   13  N   UNL     1      -7.062  13.873  69.193  1.00  0.00    -0.099 NA 
HETATM   14  C   UNL     1      -7.033  12.718  68.496  1.00  0.00    -0.095 A  
HETATM   15  N   UNL     1      -6.888  11.462  68.981  1.00  0.00    -0.093 NA 
BRANCH  11  16
HETATM   16  C   UNL     1      -6.749   8.975  70.803  1.00  0.00    -0.067 C  
HETATM   17  O   UNL     1      -7.265   8.895  69.469  1.00  0.00    -0.060 OA 
HETATM   18  C   UNL     1      -8.661   8.558  69.510  1.00  0.00    -0.136 C  
HETATM   19  H   UNL     1      -7.792   6.129  72.085  1.00  0.00     0.000 HD 
HETATM   20  O   UNL     1      -7.224   6.689  71.569  1.00  0.00    -0.079 OA 
HETATM   21  C   UNL     1      -9.009   8.160  70.941  1.00  0.00    -0.146 C  
HETATM   22  H   UNL     1      -9.916   6.655  71.825  1.00  0.00     0.000 HD 
HETATM   23  C   UNL     1      -7.667   8.068  71.637  1.00  0.00    -0.091 C  
HETATM   24  O   UNL     1      -9.699   6.903  70.935  1.00  0.00    -0.178 OA 
BRANCH  18  25
HETATM   25  C   UNL     1      -9.542   9.708  69.019  1.00  0.00    -0.168 C  
BRANCH  25  26
HETATM   26  O   UNL     1     -10.885   9.354  69.351  1.00  0.00    -0.228 OA 
BRANCH  26  27
HETATM   27  P   UNL     1     -11.819  10.575  69.812  1.00  0.00    -0.195 P  
HETATM   28  O   UNL     1     -13.090  10.249  68.868  1.00  0.00     1.326 OA 
HETATM   29  O   UNL     1     -12.167  10.634  71.270  1.00  0.00    -0.352 OA 
BRANCH  27  30
HETATM   30  O   UNL     1     -11.038  11.902  69.265  1.00  0.00    -0.240 OA 
HETATM   31  P   UNL     1     -11.157  12.225  67.570  1.00  0.00    -0.316 P  
HETATM   32  C   UNL     1     -11.283  12.567  65.776  1.00  0.00    -0.320 C  
HETATM   33  O   UNL     1      -9.992  11.079  67.337  1.00  0.00    -0.178 OA 
HETATM   34  O   UNL     1     -12.535  11.518  67.479  1.00  0.00     0.158 OA 
HETATM   35 CL   UNL     1     -11.516  11.050  64.782  1.00  0.00     0.177 Cl 
HETATM   36  P   UNL     1     -12.811  13.517  65.442  1.00  0.00    -0.022 P  
HETATM   37 CL   UNL     1      -9.728  13.270  65.220  1.00  0.00    -0.073 Cl 
HETATM   38  O   UNL     1     -11.917  14.909  65.342  1.00  0.00    -0.262 OA 
HETATM   39  O   UNL     1     -13.028  13.814  67.062  1.00  0.00     0.358 OA 
HETATM   40  O   UNL     1     -14.104  14.322  65.160  1.00  0.00     0.926 OA 
ENDBRANCH  27  30
ENDBRANCH  26  27
ENDBRANCH  25  26
ENDBRANCH  18  25
ENDBRANCH  11  16
BRANCH  14  41
HETATM   41  S   UNL     1      -7.190  12.800  66.725  1.00  0.00     0.761 SA 
BRANCH  41  42
HETATM   42  C   UNL     1      -6.928  14.585  66.453  1.00  0.00     2.938 C  
BRANCH  42  43
HETATM   43  C   UNL     1      -8.149  15.335  66.968  1.00  0.00    -0.253 C  
HETATM   44  C   UNL     1      -7.849  16.792  67.242  1.00  0.00    -0.173 C  
HETATM   45  F   UNL     1      -8.700  17.589  66.554  1.00  0.00    -0.243 F  
HETATM   46  F   UNL     1      -6.595  17.146  66.899  1.00  0.00    -0.162 F  
HETATM   47  F   UNL     1      -8.011  17.078  68.553  1.00  0.00    -0.206 F  
ENDBRANCH  42  43
ENDBRANCH  41  42
ENDBRANCH  14  41
ENDBRANCH   5   7
ENDBRANCH   4   5
ENDBRANCH   3   4
ENDBRANCH   2   3
TORSDOF 12
ENDMDL
MODEL      278
REMARK 921   NORMALIZED FREE ENERGY PREDICTED BY IDOCK:   32.12 KCAL/MOL
REMARK 922        TOTAL FREE ENERGY PREDICTED BY IDOCK:   53.65 KCAL/MOL
REMARK 923 INTER-LIGAND FREE ENERGY PREDICTED BY IDOCK:   31.72 KCAL/MOL
REMARK 924 INTRA-LIGAND FREE ENERGY PREDICTED BY IDOCK:   21.93 KCAL/MOL
REMARK 927      BINDING AFFINITY PREDICTED BY RF-SCORE:    0.00 PKD
ROOT
HETATM    1  C   UNL     1     -12.937   6.355  67.556  1.00  0.00    11.047 C  
HETATM    2  S   UNL     1     -12.194   7.350  68.869  1.00  0.00     3.024 SA 
ENDROOT
BRANCH   2   3
HETATM    3  C   UNL     1     -12.109   8.968  68.012  1.00  0.00     4.031 C  
BRANCH   3   4
HETATM    4  C   UNL     1     -12.022  10.146  69.007  1.00  0.00     0.314 C  
BRANCH   4   5
HETATM    5  N   UNL     1     -10.638  10.520  69.243  1.00  0.00    -0.222 NA 
HETATM    6  H   UNL     1     -10.056   9.938  69.845  1.00  0.00     0.000 HD 
BRANCH   5   7
HETATM    7  C   UNL     1     -10.099  11.654  68.663  1.00  0.00    -0.198 A  
HETATM    8  C   UNL     1     -10.385  11.972  67.326  1.00  0.00    -0.212 A  
HETATM    9  N   UNL     1     -11.192  11.362  66.385  1.00  0.00    -0.273 NA 
HETATM   10  C   UNL     1     -11.139  12.156  65.327  1.00  0.00    -0.321 A  
HETATM   11  N   UNL     1     -10.307  13.236  65.535  1.00  0.00    -0.286 NA 
HETATM   12  C   UNL     1      -9.823  13.130  66.807  1.00  0.00    -0.251 A  
HETATM   13  N   UNL     1      -9.275  12.495  69.354  1.00  0.00     0.997 NA 
HETATM   14  C   UNL     1      -8.760  13.566  68.715  1.00  0.00     0.102 A  
HETATM   15  N   UNL     1      -8.999  13.964  67.443  1.00  0.00    -0.199 NA 
BRANCH  11  16
HETATM   16  C   UNL     1     -10.185  14.350  64.620  1.00  0.00    -0.064 C  
HETATM   17  O   UNL     1      -9.049  15.122  65.027  1.00  0.00     0.864 OA 
HETATM   18  C   UNL     1      -9.490  16.321  65.685  1.00  0.00    -0.062 C  
HETATM   19  H   UNL     1     -11.992  16.610  63.050  1.00  0.00     0.000 HD 
HETATM   20  O   UNL     1     -11.289  15.978  63.147  1.00  0.00     0.935 OA 
HETATM   21  C   UNL     1     -10.996  16.447  65.480  1.00  0.00    -0.119 C  
HETATM   22  H   UNL     1     -12.243  17.838  64.863  1.00  0.00     0.000 HD 
HETATM   23  C   UNL     1     -11.322  15.372  64.463  1.00  0.00    -0.313 C  
HETATM   24  O   UNL     1     -11.305  17.759  64.991  1.00  0.00    -0.334 OA 
BRANCH  18  25
HETATM   25  C   UNL     1      -9.127  16.323  67.171  1.00  0.00    -0.202 C  
BRANCH  25  26
HETATM   26  O   UNL     1      -9.335  17.658  67.634  1.00  0.00    -0.242 OA 
BRANCH  26  27
HETATM   27  P   UNL     1     -10.605  18.409  67.003  1.00  0.00    -0.231 P  
HETATM   28  O   UNL     1     -10.160  19.923  67.350  1.00  0.00    -0.377 OA 
HETATM   29  O   UNL     1     -10.853  18.187  65.541  1.00  0.00    -0.489 OA 
BRANCH  27  30
HETATM   30  O   UNL     1     -11.850  17.956  67.960  1.00  0.00     1.147 OA 
HETATM   31  P   UNL     1     -11.438  17.184  69.452  1.00  0.00     1.618 P  
HETATM   32  C   UNL     1     -11.001  16.367  71.030  1.00  0.00     0.200 C  
HETATM   33  O   UNL     1     -11.205  15.794  68.592  1.00  0.00    -0.308 OA 
HETATM   34  O   UNL     1     -10.077  17.926  69.520  1.00  0.00    -0.114 OA 
HETATM   35 CL   UNL     1      -9.413  15.464  70.944  1.00  0.00     1.270 Cl 
HETATM   36  P   UNL     1     -10.682  17.639  72.308  1.00  0.00     5.017 P  
HETATM   37 CL   UNL     1     -12.242  15.120  71.389  1.00  0.00    -0.365 Cl 
HETATM   38  O   UNL     1     -12.193  17.378  72.936  1.00  0.00     0.942 OA 
HETATM   39  O   UNL     1     -11.325  18.827  71.342  1.00  0.00     3.605 OA 
HETATM   40  O   UNL     1     -10.413  18.714  73.388  1.00  0.00     2.201 OA 
ENDBRANCH  27  30
ENDBRANCH  26  27
ENDBRANCH  25  26
ENDBRANCH  18  25
ENDBRANCH  11  16
BRANCH  14  41
HETATM   41  S   UNL     1      -7.619  14.606  69.600  1.00  0.00     0.103 SA 
BRANCH  41  42
HETATM   42  C   UNL     1      -6.095  13.610  69.467  1.00  0.00    -0.114 C  
BRANCH  42  43
HETATM   43  C   UNL     1      -6.475  12.205  69.020  1.00  0.00    -0.092 C  
HETATM   44  C   UNL     1      -5.933  11.879  67.646  1.00  0.00    -0.084 C  
HETATM   45  F   UNL     1      -5.185  10.750  67.687  1.00  0.00    -0.040 F  
HETATM   46  F   UNL     1      -5.161  12.858  67.136  1.00  0.00    -0.062 F  
HETATM   47  F   UNL     1      -6.940  11.655  66.773  1.00  0.00    -0.125 F  
ENDBRANCH  42  43
ENDBRANCH  41  42
ENDBRANCH  14  41
ENDBRANCH   5   7
ENDBRANCH   4   5
ENDBRANCH   3   4
ENDBRANCH   2   3
TORSDOF 12
ENDMDL
MODEL      279
REMARK 921   NORMALIZED FREE ENERGY PREDICTED BY IDOCK:   32.79 KCAL/MOL
REMARK 922        TOTAL FREE ENERGY PREDICTED BY IDOCK:   54.78 KCAL/MOL
REMARK 923 INTER-LIGAND FREE ENERGY PREDICTED BY IDOCK:   30.07 KCAL/MOL
REMARK 924 INTRA-LIGAND FREE ENERGY PREDICTED BY IDOCK:   24.71 KCAL/MOL
REMARK 927      BINDING AFFINITY PREDICTED BY RF-SCORE:    0.00 PKD
ROOT
HETATM    1  C   UNL     1     -12.359   7.227  68.984  1.00  0.00     2.599 C  
HETATM    2  S   UNL     1     -12.015   7.696  70.695  1.00  0.00    -0.019 SA 
ENDROOT
BRANCH   2   3
HETATM    3  C   UNL     1     -10.187   7.564  70.684  1.00  0.00    -0.202 C  
BRANCH   3   4
HETATM    4  C   UNL     1      -9.677   6.692  69.517  1.00  0.00    -0.149 C  
BRANCH   4   5
HETATM    5  N   UNL     1      -8.910   7.488  68.575  1.00  0.00    -0.127 NA 
HETATM    6  H   UNL     1      -8.499   7.041  67.756  1.00  0.00     0.000 HD 
BRANCH   5   7
HETATM    7  C   UNL     1      -8.731   8.846  68.772  1.00  0.00    -0.137 A  
HETATM    8  C   UNL     1      -7.748   9.544  68.053  1.00  0.00    -0.087 A  
HETATM    9  N   UNL     1      -6.864   9.142  67.071  1.00  0.00    -0.079 NA 
HETATM   10  C   UNL     1      -6.240  10.250  66.702  1.00  0.00    -0.069 A  
HETATM   11  N   UNL     1      -6.664  11.345  67.426  1.00  0.00    -0.085 NA 
HETATM   12  C   UNL     1      -7.627  10.906  68.288  1.00  0.00    -0.100 A  
HETATM   13  N   UNL     1      -9.485   9.550  69.666  1.00  0.00    -0.186 NA 
HETATM   14  C   UNL     1      -9.233  10.865  69.831  1.00  0.00     0.827 A  
HETATM   15  N   UNL     1      -8.330  11.624  69.166  1.00  0.00     0.153 NA 
BRANCH  11  16
HETATM   16  C   UNL     1      -6.280  12.708  67.129  1.00  0.00     0.028 C  
HETATM   17  O   UNL     1      -5.700  13.263  68.316  1.00  0.00    -0.078 OA 
HETATM   18  C   UNL     1      -6.637  14.160  68.936  1.00  0.00    -0.099 C  
HETATM   19  H   UNL     1      -7.350  15.412  65.588  1.00  0.00     0.000 HD 
HETATM   20  O   UNL     1      -6.704  14.774  65.868  1.00  0.00     4.127 OA 
HETATM   21  C   UNL     1      -7.793  14.381  67.967  1.00  0.00    -0.140 C  
HETATM   22  H   UNL     1      -8.749  15.925  67.211  1.00  0.00     0.000 HD 
HETATM   23  C   UNL     1      -7.323  13.742  66.677  1.00  0.00     1.411 C  
HETATM   24  O   UNL     1      -8.029  15.787  67.815  1.00  0.00    -0.133 OA 
BRANCH  18  25
HETATM   25  C   UNL     1      -7.130  13.629  70.284  1.00  0.00     0.859 C  
BRANCH  25  26
HETATM   26  O   UNL     1      -8.520  13.949  70.357  1.00  0.00     2.289 OA 
BRANCH  26  27
HETATM   27  P   UNL     1      -8.943  15.324  69.646  1.00  0.00     0.174 P  
HETATM   28  O   UNL     1     -10.056  15.793  70.719  1.00  0.00     0.248 OA 
HETATM   29  O   UNL     1      -7.852  16.334  69.447  1.00  0.00    -0.220 OA 
BRANCH  27  30
HETATM   30  O   UNL     1      -9.665  14.849  68.259  1.00  0.00    -0.205 OA 
HETATM   31  P   UNL     1     -10.675  16.013  67.475  1.00  0.00    -0.256 P  
HETATM   32  C   UNL     1     -11.743  17.246  66.645  1.00  0.00     1.945 C  
HETATM   33  O   UNL     1     -11.852  15.631  68.568  1.00  0.00    -0.355 OA 
HETATM   34  O   UNL     1      -9.857  17.194  68.061  1.00  0.00    -0.265 OA 
HETATM   35 CL   UNL     1     -12.488  18.438  67.815  1.00  0.00     4.166 Cl 
HETATM   36  P   UNL     1     -10.720  18.312  65.566  1.00  0.00     0.840 P  
HETATM   37 CL   UNL     1     -13.128  16.385  65.892  1.00  0.00     4.819 Cl 
HETATM   38  O   UNL     1     -11.211  17.439  64.246  1.00  0.00    -0.818 OA 
HETATM   39  O   UNL     1      -9.422  17.288  65.718  1.00  0.00    -0.527 OA 
HETATM   40  O   UNL     1      -9.854  19.214  64.652  1.00  0.00     2.290 OA 
ENDBRANCH  27  30
ENDBRANCH  26  27
ENDBRANCH  25  26
ENDBRANCH  18  25
ENDBRANCH  11  16
BRANCH  14  41
HETATM   41  S   UNL     1     -10.164  11.753  71.061  1.00  0.00     6.796 SA 
BRANCH  41  42
HETATM   42  C   UNL     1     -10.887  13.077  70.034  1.00  0.00     0.848 C  
BRANCH  42  43
HETATM   43  C   UNL     1     -12.320  12.692  69.690  1.00  0.00    -0.045 C  
HETATM   44  C   UNL     1     -12.863  11.630  70.621  1.00  0.00    -0.040 C  
HETATM   45  F   UNL     1     -14.011  12.051  71.203  1.00  0.00     0.546 F  
HETATM   46  F   UNL     1     -12.004  11.303  71.607  1.00  0.00    -0.188 F  
HETATM   47  F   UNL     1     -13.155  10.499  69.941  1.00  0.00    -0.284 F  
ENDBRANCH  42  43
ENDBRANCH  41  42
ENDBRANCH  14  41
ENDBRANCH   5   7
ENDBRANCH   4   5
ENDBRANCH   3   4
ENDBRANCH   2   3
TORSDOF 12
ENDMDL
MODEL      280
REMARK 921   NORMALIZED FREE ENERGY PREDICTED BY IDOCK:   34.15 KCAL/MOL
REMARK 922        TOTAL FREE ENERGY PREDICTED BY IDOCK:   57.11 KCAL/MOL
REMARK 923 INTER-LIGAND FREE ENERGY PREDICTED BY IDOCK:   28.60 KCAL/MOL
REMARK 924 INTRA-LIGAND FREE ENERGY PREDICTED BY IDOCK:   28.50 KCAL/MOL
REMARK 927      BINDING AFFINITY PREDICTED BY RF-SCORE:    0.00 PKD
ROOT
HETATM    1  C   UNL     1      -5.818   9.805  71.977  1.00  0.00     0.188 C  
HETATM    2  S   UNL     1      -7.116   8.794  71.228  1.00  0.00    -0.090 SA 
ENDROOT
BRANCH   2   3
HETATM    3  C   UNL     1      -8.423   8.988  72.499  1.00  0.00     0.614 C  
BRANCH   3   4
HETATM    4  C   UNL     1      -9.486  10.025  72.082  1.00  0.00     4.418 C  
BRANCH   4   5
HETATM    5  N   UNL     1     -10.379   9.474  71.078  1.00  0.00    -0.302 NA 
HETATM    6  H   UNL     1     -11.005   8.708  71.327  1.00  0.00     0.000 HD 
BRANCH   5   7
HETATM    7  C   UNL     1     -10.391   9.972  69.787  1.00  0.00    -0.255 A  
HETATM    8  C   UNL     1     -11.591  10.415  69.209  1.00  0.00    -0.176 A  
HETATM    9  N   UNL     1     -12.877  10.505  69.706  1.00  0.00    -0.065 NA 
HETATM   10  C   UNL     1     -13.576  11.077  68.738  1.00  0.00     5.772 A  
HETATM   11  N   UNL     1     -12.802  11.331  67.625  1.00  0.00     2.695 NA 
HETATM   12  C   UNL     1     -11.534  10.915  67.916  1.00  0.00    -0.266 A  
HETATM   13  N   UNL     1      -9.257  10.046  69.032  1.00  0.00    -0.167 NA 
HETATM   14  C   UNL     1      -9.348  10.513  67.769  1.00  0.00    -0.149 A  
HETATM   15  N   UNL     1     -10.451  10.984  67.140  1.00  0.00    -0.220 NA 
BRANCH  11  16
HETATM   16  C   UNL     1     -13.255  12.094  66.483  1.00  0.00     4.943 C  
HETATM   17  O   UNL     1     -13.331  11.199  65.366  1.00  0.00     4.618 OA 
HETATM   18  C   UNL     1     -12.219  11.430  64.486  1.00  0.00     0.558 C  
HETATM   19  H   UNL     1     -12.824  14.990  64.979  1.00  0.00     0.000 HD 
HETATM   20  O   UNL     1     -13.321  14.245  65.297  1.00  0.00    -0.660 OA 
HETATM   21  C   UNL     1     -11.518  12.707  64.934  1.00  0.00    -0.322 C  
HETATM   22  H   UNL     1     -10.906  14.375  64.087  1.00  0.00     0.000 HD 
HETATM   23  C   UNL     1     -12.452  13.300  65.969  1.00  0.00    -0.321 C  
HETATM   24  O   UNL     1     -11.342  13.579  63.808  1.00  0.00    -0.272 OA 
BRANCH  18  25
HETATM   25  C   UNL     1     -11.255  10.242  64.459  1.00  0.00     2.233 C  
BRANCH  25  26
HETATM   26  O   UNL     1     -10.021  10.739  63.940  1.00  0.00    -0.296 OA 
BRANCH  26  27
HETATM   27  P   UNL     1      -9.884  12.338  63.916  1.00  0.00     0.090 P  
HETATM   28  O   UNL     1      -8.339  12.419  63.451  1.00  0.00     1.770 OA 
HETATM   29  O   UNL     1     -10.816  13.073  62.999  1.00  0.00     0.312 OA 
BRANCH  27  30
HETATM   30  O   UNL     1     -10.022  12.773  65.485  1.00  0.00    -0.271 OA 
HETATM   31  P   UNL     1      -9.382  14.320  65.918  1.00  0.00     0.276 P  
HETATM   32  C   UNL     1      -8.705  15.957  66.375  1.00  0.00    -0.327 C  
HETATM   33  O   UNL     1      -7.885  13.623  65.934  1.00  0.00     2.043 OA 
HETATM   34  O   UNL     1      -9.624  14.877  64.490  1.00  0.00     0.464 OA 
HETATM   35 CL   UNL     1      -7.317  16.474  65.302  1.00  0.00     2.879 Cl 
HETATM   36  P   UNL     1      -9.966  17.247  66.067  1.00  0.00    -0.115 P  
HETATM   37 CL   UNL     1      -8.016  15.847  68.030  1.00  0.00    -0.136 Cl 
HETATM   38  O   UNL     1     -10.325  17.276  67.684  1.00  0.00    -0.324 OA 
HETATM   39  O   UNL     1     -11.147  16.098  65.860  1.00  0.00    -0.133 OA 
HETATM   40  O   UNL     1     -11.034  18.338  65.807  1.00  0.00    -0.129 OA 
ENDBRANCH  27  30
ENDBRANCH  26  27
ENDBRANCH  25  26
ENDBRANCH  18  25
ENDBRANCH  11  16
BRANCH  14  41
HETATM   41  S   UNL     1      -7.879  10.523  66.766  1.00  0.00    -0.126 SA 
BRANCH  41  42
HETATM   42  C   UNL     1      -6.966  11.904  67.534  1.00  0.00    -0.123 C  
BRANCH  42  43
HETATM   43  C   UNL     1      -7.519  12.127  68.936  1.00  0.00    -0.027 C  
HETATM   44  C   UNL     1      -6.421  12.352  69.952  1.00  0.00     0.024 C  
HETATM   45  F   UNL     1      -6.613  13.522  70.606  1.00  0.00    -0.000 F  
HETATM   46  F   UNL     1      -5.192  12.391  69.402  1.00  0.00    -0.064 F  
HETATM   47  F   UNL     1      -6.422  11.373  70.884  1.00  0.00     0.043 F  
ENDBRANCH  42  43
ENDBRANCH  41  42
ENDBRANCH  14  41
ENDBRANCH   5   7
ENDBRANCH   4   5
ENDBRANCH   3   4
ENDBRANCH   2   3
TORSDOF 12
ENDMDL
MODEL      281
REMARK 921   NORMALIZED FREE ENERGY PREDICTED BY IDOCK:   37.36 KCAL/MOL
REMARK 922        TOTAL FREE ENERGY PREDICTED BY IDOCK:   62.56 KCAL/MOL
REMARK 923 INTER-LIGAND FREE ENERGY PREDICTED BY IDOCK:   34.69 KCAL/MOL
REMARK 924 INTRA-LIGAND FREE ENERGY PREDICTED BY IDOCK:   27.88 KCAL/MOL
REMARK 927      BINDING AFFINITY PREDICTED BY RF-SCORE:    0.00 PKD
ROOT
HETATM    1  C   UNL     1      -5.883   9.916  71.984  1.00  0.00     0.260 C  
HETATM    2  S   UNL     1      -7.386   9.101  71.400  1.00  0.00     0.102 SA 
ENDROOT
BRANCH   2   3
HETATM    3  C   UNL     1      -8.556   9.653  72.699  1.00  0.00     3.371 C  
BRANCH   3   4
HETATM    4  C   UNL     1      -9.511  10.753  72.189  1.00  0.00    10.194 C  
BRANCH   4   5
HETATM    5  N   UNL     1     -10.575  10.178  71.384  1.00  0.00     0.191 NA 
HETATM    6  H   UNL     1     -11.238   9.533  71.813  1.00  0.00     0.000 HD 
BRANCH   5   7
HETATM    7  C   UNL     1     -10.702  10.494  70.043  1.00  0.00    -0.224 A  
HETATM    8  C   UNL     1     -10.295  11.751  69.568  1.00  0.00     0.396 A  
HETATM    9  N   UNL     1      -9.706  12.829  70.199  1.00  0.00     3.086 NA 
HETATM   10  C   UNL     1      -9.472  13.702  69.232  1.00  0.00     0.593 A  
HETATM   11  N   UNL     1      -9.913  13.244  68.008  1.00  0.00    -0.227 NA 
HETATM   12  C   UNL     1     -10.437  12.000  68.211  1.00  0.00    -0.204 A  
HETATM   13  N   UNL     1     -11.226   9.613  69.142  1.00  0.00    -0.091 NA 
HETATM   14  C   UNL     1     -11.350   9.999  67.855  1.00  0.00     0.051 A  
HETATM   15  N   UNL     1     -10.962  11.174  67.304  1.00  0.00    -0.280 NA 
BRANCH  11  16
HETATM   16  C   UNL     1      -9.643  13.910  66.751  1.00  0.00    -0.283 C  
HETATM   17  O   UNL     1     -10.872  14.489  66.296  1.00  0.00    -0.306 OA 
HETATM   18  C   UNL     1     -11.410  13.700  65.223  1.00  0.00    -0.296 C  
HETATM   19  H   UNL     1      -8.011  13.516  63.921  1.00  0.00     0.000 HD 
HETATM   20  O   UNL     1      -8.344  13.999  64.668  1.00  0.00     5.007 OA 
HETATM   21  C   UNL     1     -10.348  12.690  64.800  1.00  0.00    -0.312 C  
HETATM   22  H   UNL     1      -9.511  12.118  63.114  1.00  0.00     0.000 HD 
HETATM   23  C   UNL     1      -9.103  13.128  65.544  1.00  0.00     0.709 C  
HETATM   24  O   UNL     1     -10.172  12.747  63.378  1.00  0.00    -0.314 OA 
BRANCH  18  25
HETATM   25  C   UNL     1     -12.714  13.006  65.621  1.00  0.00    -0.132 C  
BRANCH  25  26
HETATM   26  O   UNL     1     -12.888  11.922  64.707  1.00  0.00    -0.286 OA 
BRANCH  26  27
HETATM   27  P   UNL     1     -11.592  11.548  63.838  1.00  0.00     0.112 P  
HETATM   28  O   UNL     1     -12.179  10.219  63.130  1.00  0.00     3.679 OA 
HETATM   29  O   UNL     1     -11.127  12.583  62.856  1.00  0.00    -0.010 OA 
BRANCH  27  30
HETATM   30  O   UNL     1     -10.469  11.142  64.952  1.00  0.00    -0.295 OA 
HETATM   31  P   UNL     1      -9.115  10.225  64.387  1.00  0.00    -0.281 P  
HETATM   32  C   UNL     1      -7.683   9.255  63.789  1.00  0.00    -0.117 C  
HETATM   33  O   UNL     1     -10.082   8.888  64.440  1.00  0.00     1.720 OA 
HETATM   34  O   UNL     1      -9.232  10.832  62.964  1.00  0.00    -0.244 OA 
HETATM   35 CL   UNL     1      -8.087   8.219  62.338  1.00  0.00    -0.163 Cl 
HETATM   36  P   UNL     1      -6.404  10.393  63.140  1.00  0.00    -0.001 P  
HETATM   37 CL   UNL     1      -7.195   8.105  65.078  1.00  0.00    -0.074 Cl 
HETATM   38  O   UNL     1      -5.549  10.227  64.549  1.00  0.00    -0.107 OA 
HETATM   39  O   UNL     1      -7.178  11.704  63.804  1.00  0.00     1.927 OA 
HETATM   40  O   UNL     1      -5.322  11.355  62.592  1.00  0.00    -0.067 OA 
ENDBRANCH  27  30
ENDBRANCH  26  27
ENDBRANCH  25  26
ENDBRANCH  18  25
ENDBRANCH  11  16
BRANCH  14  41
HETATM   41  S   UNL     1     -12.114   8.874  66.707  1.00  0.00     8.158 SA 
BRANCH  41  42
HETATM   42  C   UNL     1     -10.836   7.575  66.620  1.00  0.00     0.266 C  
BRANCH  42  43
HETATM   43  C   UNL     1      -9.938   7.699  67.845  1.00  0.00    -0.208 C  
HETATM   44  C   UNL     1      -9.671   6.358  68.493  1.00  0.00    -0.132 C  
HETATM   45  F   UNL     1      -8.339   6.134  68.587  1.00  0.00    -0.110 F  
HETATM   46  F   UNL     1     -10.209   5.326  67.813  1.00  0.00    -0.185 F  
HETATM   47  F   UNL     1     -10.169   6.325  69.749  1.00  0.00    -0.183 F  
ENDBRANCH  42  43
ENDBRANCH  41  42
ENDBRANCH  14  41
ENDBRANCH   5   7
ENDBRANCH   4   5
ENDBRANCH   3   4
ENDBRANCH   2   3
TORSDOF 12
ENDMDL
MODEL      282
REMARK 921   NORMALIZED FREE ENERGY PREDICTED BY IDOCK:   41.74 KCAL/MOL
REMARK 922        TOTAL FREE ENERGY PREDICTED BY IDOCK:   70.01 KCAL/MOL
REMARK 923 INTER-LIGAND FREE ENERGY PREDICTED BY IDOCK:   37.39 KCAL/MOL
REMARK 924 INTRA-LIGAND FREE ENERGY PREDICTED BY IDOCK:   32.62 KCAL/MOL
REMARK 927      BINDING AFFINITY PREDICTED BY RF-SCORE:    0.00 PKD
ROOT
HETATM    1  C   UNL     1     -13.160  19.686  67.717  1.00  0.00     6.514 C  
HETATM    2  S   UNL     1     -11.774  20.744  67.244  1.00  0.00     4.745 SA 
ENDROOT
BRANCH   2   3
HETATM    3  C   UNL     1     -11.222  19.863  65.734  1.00  0.00     0.318 C  
BRANCH   3   4
HETATM    4  C   UNL     1     -12.373  19.079  65.068  1.00  0.00     8.174 C  
BRANCH   4   5
HETATM    5  N   UNL     1     -12.106  17.651  65.093  1.00  0.00     3.277 NA 
HETATM    6  H   UNL     1     -12.776  17.008  64.673  1.00  0.00     0.000 HD 
BRANCH   5   7
HETATM    7  C   UNL     1     -10.956  17.153  65.679  1.00  0.00     0.080 A  
HETATM    8  C   UNL     1      -9.809  17.956  65.787  1.00  0.00     0.105 A  
HETATM    9  N   UNL     1      -9.567  19.270  65.438  1.00  0.00     0.127 NA 
HETATM   10  C   UNL     1      -8.334  19.510  65.856  1.00  0.00    -0.134 A  
HETATM   11  N   UNL     1      -7.760  18.396  66.433  1.00  0.00    -0.252 NA 
HETATM   12  C   UNL     1      -8.693  17.401  66.396  1.00  0.00    -0.242 A  
HETATM   13  N   UNL     1     -10.888  15.878  66.162  1.00  0.00    -0.260 NA 
HETATM   14  C   UNL     1      -9.724  15.448  66.692  1.00  0.00    -0.253 A  
HETATM   15  N   UNL     1      -8.581  16.155  66.862  1.00  0.00    -0.200 NA 
BRANCH  11  16
HETATM   16  C   UNL     1      -6.488  18.409  67.123  1.00  0.00    -0.179 C  
HETATM   17  O   UNL     1      -5.853  17.147  66.884  1.00  0.00    -0.154 OA 
HETATM   18  C   UNL     1      -5.951  16.327  68.060  1.00  0.00    -0.117 C  
HETATM   19  H   UNL     1      -5.107  19.315  69.970  1.00  0.00     0.000 HD 
HETATM   20  O   UNL     1      -5.150  19.194  69.029  1.00  0.00    -0.190 OA 
HETATM   21  C   UNL     1      -6.465  17.197  69.202  1.00  0.00    -0.223 C  
HETATM   22  H   UNL     1      -5.932  17.584  71.056  1.00  0.00     0.000 HD 
HETATM   23  C   UNL     1      -6.418  18.605  68.646  1.00  0.00    -0.234 C  
HETATM   24  O   UNL     1      -5.612  17.042  70.345  1.00  0.00    -0.221 OA 
BRANCH  18  25
HETATM   25  C   UNL     1      -6.850  15.110  67.836  1.00  0.00    -0.155 C  
BRANCH  25  26
HETATM   26  O   UNL     1      -6.002  14.068  67.350  1.00  0.00    -0.350 OA 
BRANCH  26  27
HETATM   27  P   UNL     1      -6.520  12.577  67.635  1.00  0.00    -0.157 P  
HETATM   28  O   UNL     1      -6.489  12.039  66.111  1.00  0.00     0.289 OA 
HETATM   29  O   UNL     1      -5.688  11.749  68.569  1.00  0.00    -0.049 OA 
BRANCH  27  30
HETATM   30  O   UNL     1      -8.064  12.779  68.128  1.00  0.00    -0.141 OA 
HETATM   31  P   UNL     1      -8.310  13.805  69.499  1.00  0.00     1.364 P  
HETATM   32  C   UNL     1      -8.570  14.890  70.949  1.00  0.00     2.592 C  
HETATM   33  O   UNL     1      -7.861  12.532  70.449  1.00  0.00     2.579 OA 
HETATM   34  O   UNL     1      -7.032  14.625  69.180  1.00  0.00    -0.117 OA 
HETATM   35 CL   UNL     1      -7.136  14.909  72.085  1.00  0.00     2.358 Cl 
HETATM   36  P   UNL     1      -8.680  16.632  70.396  1.00  0.00     3.734 P  
HETATM   37 CL   UNL     1      -9.936  14.236  71.913  1.00  0.00     4.593 Cl 
HETATM   38  O   UNL     1     -10.330  16.563  70.527  1.00  0.00     0.293 OA 
HETATM   39  O   UNL     1      -8.820  16.160  68.810  1.00  0.00    -0.208 OA 
HETATM   40  O   UNL     1      -8.774  18.105  69.928  1.00  0.00     1.094 OA 
ENDBRANCH  27  30
ENDBRANCH  26  27
ENDBRANCH  25  26
ENDBRANCH  18  25
ENDBRANCH  11  16
BRANCH  14  41
HETATM   41  S   UNL     1      -9.621  13.758  67.239  1.00  0.00    -0.245 SA 
BRANCH  41  42
HETATM   42  C   UNL     1     -11.264  13.561  68.009  1.00  0.00    -0.271 C  
BRANCH  42  43
HETATM   43  C   UNL     1     -11.269  12.263  68.807  1.00  0.00    -0.312 C  
HETATM   44  C   UNL     1     -12.367  12.239  69.847  1.00  0.00    -0.052 C  
HETATM   45  F   UNL     1     -13.155  11.151  69.681  1.00  0.00    -0.051 F  
HETATM   46  F   UNL     1     -13.161  13.327  69.802  1.00  0.00     0.154 F  
HETATM   47  F   UNL     1     -11.846  12.164  71.092  1.00  0.00    -0.233 F  
ENDBRANCH  42  43
ENDBRANCH  41  42
ENDBRANCH  14  41
ENDBRANCH   5   7
ENDBRANCH   4   5
ENDBRANCH   3   4
ENDBRANCH   2   3
TORSDOF 12
ENDMDL
MODEL      283
REMARK 921   NORMALIZED FREE ENERGY PREDICTED BY IDOCK:   44.17 KCAL/MOL
REMARK 922        TOTAL FREE ENERGY PREDICTED BY IDOCK:   74.14 KCAL/MOL
REMARK 923 INTER-LIGAND FREE ENERGY PREDICTED BY IDOCK:   29.86 KCAL/MOL
REMARK 924 INTRA-LIGAND FREE ENERGY PREDICTED BY IDOCK:   44.29 KCAL/MOL
REMARK 927      BINDING AFFINITY PREDICTED BY RF-SCORE:    0.00 PKD
ROOT
HETATM    1  C   UNL     1     -10.817  19.131  73.049  1.00  0.00     3.659 C  
HETATM    2  S   UNL     1     -11.551  17.729  73.923  1.00  0.00     1.369 SA 
ENDROOT
BRANCH   2   3
HETATM    3  C   UNL     1     -10.510  16.376  73.255  1.00  0.00     5.681 C  
BRANCH   3   4
HETATM    4  C   UNL     1      -9.797  16.785  71.949  1.00  0.00     6.541 C  
BRANCH   4   5
HETATM    5  N   UNL     1      -8.958  15.705  71.459  1.00  0.00     3.530 NA 
HETATM    6  H   UNL     1      -8.088  15.486  71.943  1.00  0.00     0.000 HD 
BRANCH   5   7
HETATM    7  C   UNL     1      -9.324  14.970  70.345  1.00  0.00     0.906 A  
HETATM    8  C   UNL     1      -8.524  13.904  69.905  1.00  0.00     1.631 A  
HETATM    9  N   UNL     1      -7.362  13.352  70.410  1.00  0.00     1.412 NA 
HETATM   10  C   UNL     1      -7.111  12.314  69.627  1.00  0.00     0.336 A  
HETATM   11  N   UNL     1      -8.045  12.191  68.620  1.00  0.00    -0.096 NA 
HETATM   12  C   UNL     1      -8.952  13.198  68.790  1.00  0.00     0.166 A  
HETATM   13  N   UNL     1     -10.455  15.251  69.636  1.00  0.00    -0.259 NA 
HETATM   14  C   UNL     1     -10.732  14.513  68.541  1.00  0.00    -0.250 A  
HETATM   15  N   UNL     1     -10.038  13.454  68.059  1.00  0.00    -0.235 NA 
BRANCH  11  16
HETATM   16  C   UNL     1      -8.119  11.061  67.720  1.00  0.00    -0.116 C  
HETATM   17  O   UNL     1      -8.608  11.541  66.461  1.00  0.00    -0.173 OA 
HETATM   18  C   UNL     1      -9.984  11.159  66.301  1.00  0.00    -0.219 C  
HETATM   19  H   UNL     1      -9.023   7.899  67.617  1.00  0.00     0.000 HD 
HETATM   20  O   UNL     1      -8.479   8.650  67.414  1.00  0.00    -0.121 OA 
HETATM   21  C   UNL     1     -10.332  10.170  67.408  1.00  0.00    -0.238 C  
HETATM   22  H   UNL     1     -11.169   8.393  67.527  1.00  0.00     0.000 HD 
HETATM   23  C   UNL     1      -8.999   9.845  68.049  1.00  0.00    -0.121 C  
HETATM   24  O   UNL     1     -10.951   9.009  66.838  1.00  0.00    -0.059 OA 
BRANCH  18  25
HETATM   25  C   UNL     1     -10.919  12.369  66.316  1.00  0.00    -0.286 C  
BRANCH  25  26
HETATM   26  O   UNL     1     -10.679  13.078  65.100  1.00  0.00    -0.289 OA 
BRANCH  26  27
HETATM   27  P   UNL     1     -10.785  14.675  65.208  1.00  0.00    -0.440 P  
HETATM   28  O   UNL     1     -10.047  15.039  63.816  1.00  0.00     1.980 OA 
HETATM   29  O   UNL     1     -12.168  15.246  65.309  1.00  0.00     0.070 OA 
BRANCH  27  30
HETATM   30  O   UNL     1      -9.820  15.053  66.471  1.00  0.00    -0.239 OA 
HETATM   31  P   UNL     1      -9.202  16.668  66.516  1.00  0.00    -0.305 P  
HETATM   32  C   UNL     1      -8.549  18.377  66.563  1.00  0.00    -0.273 C  
HETATM   33  O   UNL     1      -8.071  16.196  65.410  1.00  0.00     1.040 OA 
HETATM   34  O   UNL     1     -10.425  17.213  65.732  1.00  0.00    -0.472 OA 
HETATM   35 CL   UNL     1      -8.368  19.112  64.898  1.00  0.00     2.285 Cl 
HETATM   36  P   UNL     1      -9.772  19.476  67.367  1.00  0.00    -0.392 P  
HETATM   37 CL   UNL     1      -6.891  18.334  67.251  1.00  0.00    -0.203 Cl 
HETATM   38  O   UNL     1      -8.892  19.419  68.770  1.00  0.00    -0.366 OA 
HETATM   39  O   UNL     1     -10.649  18.172  67.904  1.00  0.00    -0.400 OA 
HETATM   40  O   UNL     1     -10.806  20.405  68.048  1.00  0.00     0.019 OA 
ENDBRANCH  27  30
ENDBRANCH  26  27
ENDBRANCH  25  26
ENDBRANCH  18  25
ENDBRANCH  11  16
BRANCH  14  41
HETATM   41  S   UNL     1     -12.164  14.944  67.575  1.00  0.00     0.359 SA 
BRANCH  41  42
HETATM   42  C   UNL     1     -13.374  13.743  68.225  1.00  0.00     4.243 C  
BRANCH  42  43
HETATM   43  C   UNL     1     -12.763  13.052  69.438  1.00  0.00     0.637 C  
HETATM   44  C   UNL     1     -11.554  13.793  69.966  1.00  0.00    -0.195 C  
HETATM   45  F   UNL     1     -11.716  14.092  71.276  1.00  0.00    -0.361 F  
HETATM   46  F   UNL     1     -11.314  14.946  69.312  1.00  0.00    -0.246 F  
HETATM   47  F   UNL     1     -10.444  13.028  69.869  1.00  0.00     0.348 F  
ENDBRANCH  42  43
ENDBRANCH  41  42
ENDBRANCH  14  41
ENDBRANCH   5   7
ENDBRANCH   4   5
ENDBRANCH   3   4
ENDBRANCH   2   3
TORSDOF 12
ENDMDL
MODEL      284
REMARK 921   NORMALIZED FREE ENERGY PREDICTED BY IDOCK:   44.50 KCAL/MOL
REMARK 922        TOTAL FREE ENERGY PREDICTED BY IDOCK:   74.70 KCAL/MOL
REMARK 923 INTER-LIGAND FREE ENERGY PREDICTED BY IDOCK:   39.85 KCAL/MOL
REMARK 924 INTRA-LIGAND FREE ENERGY PREDICTED BY IDOCK:   34.86 KCAL/MOL
REMARK 927      BINDING AFFINITY PREDICTED BY RF-SCORE:    0.00 PKD
ROOT
HETATM    1  C   UNL     1      -5.883   9.932  72.008  1.00  0.00     0.260 C  
HETATM    2  S   UNL     1      -7.467   9.141  71.650  1.00  0.00     0.290 SA 
ENDROOT
BRANCH   2   3
HETATM    3  C   UNL     1      -8.482   9.872  72.991  1.00  0.00     5.522 C  
BRANCH   3   4
HETATM    4  C   UNL     1      -9.490  10.910  72.453  1.00  0.00    12.794 C  
BRANCH   4   5
HETATM    5  N   UNL     1     -10.683  10.255  71.945  1.00  0.00     1.395 NA 
HETATM    6  H   UNL     1     -11.588  10.461  72.367  1.00  0.00     0.000 HD 
BRANCH   5   7
HETATM    7  C   UNL     1     -10.608   9.354  70.897  1.00  0.00    -0.320 A  
HETATM    8  C   UNL     1      -9.597   9.472  69.931  1.00  0.00    -0.223 A  
HETATM    9  N   UNL     1      -8.538  10.350  69.806  1.00  0.00    -0.056 NA 
HETATM   10  C   UNL     1      -7.868   9.926  68.746  1.00  0.00    -0.091 A  
HETATM   11  N   UNL     1      -8.468   8.829  68.163  1.00  0.00    -0.129 NA 
HETATM   12  C   UNL     1      -9.570   8.530  68.913  1.00  0.00    -0.160 A  
HETATM   13  N   UNL     1     -11.505   8.335  70.758  1.00  0.00    -0.269 NA 
HETATM   14  C   UNL     1     -11.391   7.514  69.693  1.00  0.00     0.089 A  
HETATM   15  N   UNL     1     -10.438   7.534  68.731  1.00  0.00    -0.207 NA 
BRANCH  11  16
HETATM   16  C   UNL     1      -7.874   8.055  67.095  1.00  0.00    -0.105 C  
HETATM   17  O   UNL     1      -8.638   8.299  65.907  1.00  0.00    -0.133 OA 
HETATM   18  C   UNL     1      -9.474   7.164  65.629  1.00  0.00     0.462 C  
HETATM   19  H   UNL     1      -6.594   5.091  66.459  1.00  0.00     0.000 HD 
HETATM   20  O   UNL     1      -6.658   6.037  66.400  1.00  0.00    -0.051 OA 
HETATM   21  C   UNL     1      -9.050   6.027  66.552  1.00  0.00    -0.146 C  
HETATM   22  H   UNL     1      -8.573   4.128  66.355  1.00  0.00     0.000 HD 
HETATM   23  C   UNL     1      -7.770   6.525  67.191  1.00  0.00    -0.100 C  
HETATM   24  O   UNL     1      -8.837   4.837  65.780  1.00  0.00    -0.123 OA 
BRANCH  18  25
HETATM   25  C   UNL     1     -10.959   7.494  65.793  1.00  0.00     3.713 C  
BRANCH  25  26
HETATM   26  O   UNL     1     -11.617   6.257  66.068  1.00  0.00     1.240 OA 
BRANCH  26  27
HETATM   27  P   UNL     1     -10.653   5.057  66.524  1.00  0.00     0.045 P  
HETATM   28  O   UNL     1     -11.802   3.984  66.902  1.00  0.00     6.138 OA 
HETATM   29  O   UNL     1      -9.688   4.550  65.495  1.00  0.00    -0.172 OA 
BRANCH  27  30
HETATM   30  O   UNL     1      -9.938   5.616  67.883  1.00  0.00    -0.126 OA 
HETATM   31  P   UNL     1      -9.205   4.436  68.912  1.00  0.00    -0.164 P  
HETATM   32  C   UNL     1      -8.428   3.186  70.001  1.00  0.00    -0.049 C  
HETATM   33  O   UNL     1     -10.714   4.097  69.490  1.00  0.00     1.085 OA 
HETATM   34  O   UNL     1      -8.936   3.484  67.716  1.00  0.00    -0.114 OA 
HETATM   35 CL   UNL     1      -9.231   1.548  69.883  1.00  0.00    -0.148 Cl 
HETATM   36  P   UNL     1      -6.723   2.851  69.426  1.00  0.00    -0.034 P  
HETATM   37 CL   UNL     1      -8.644   3.704  71.707  1.00  0.00    -0.103 Cl 
HETATM   38  O   UNL     1      -6.132   3.829  70.626  1.00  0.00    -0.017 OA 
HETATM   39  O   UNL     1      -6.762   4.170  68.417  1.00  0.00    -0.045 OA 
HETATM   40  O   UNL     1      -5.280   2.568  68.940  1.00  0.00    -0.011 OA 
ENDBRANCH  27  30
ENDBRANCH  26  27
ENDBRANCH  25  26
ENDBRANCH  18  25
ENDBRANCH  11  16
BRANCH  14  41
HETATM   41  S   UNL     1     -12.617   6.242  69.476  1.00  0.00     4.167 SA 
BRANCH  41  42
HETATM   42  C   UNL     1     -12.198   5.139  70.868  1.00  0.00     3.800 C  
BRANCH  42  43
HETATM   43  C   UNL     1     -11.372   5.928  71.876  1.00  0.00    -0.307 C  
HETATM   44  C   UNL     1     -11.840   5.701  73.296  1.00  0.00     0.411 C  
HETATM   45  F   UNL     1     -10.815   5.268  74.069  1.00  0.00    -0.292 F  
HETATM   46  F   UNL     1     -12.830   4.792  73.388  1.00  0.00     0.054 F  
HETATM   47  F   UNL     1     -12.289   6.852  73.843  1.00  0.00     2.077 F  
ENDBRANCH  42  43
ENDBRANCH  41  42
ENDBRANCH  14  41
ENDBRANCH   5   7
ENDBRANCH   4   5
ENDBRANCH   3   4
ENDBRANCH   2   3
TORSDOF 12
ENDMDL
MODEL      285
REMARK 921   NORMALIZED FREE ENERGY PREDICTED BY IDOCK:   54.08 KCAL/MOL
REMARK 922        TOTAL FREE ENERGY PREDICTED BY IDOCK:   91.02 KCAL/MOL
REMARK 923 INTER-LIGAND FREE ENERGY PREDICTED BY IDOCK:   66.20 KCAL/MOL
REMARK 924 INTRA-LIGAND FREE ENERGY PREDICTED BY IDOCK:   24.82 KCAL/MOL
REMARK 927      BINDING AFFINITY PREDICTED BY RF-SCORE:    0.00 PKD
ROOT
HETATM    1  C   UNL     1     -13.248  19.704  67.753  1.00  0.00     6.833 C  
HETATM    2  S   UNL     1     -11.944  20.726  67.030  1.00  0.00     5.629 SA 
ENDROOT
BRANCH   2   3
HETATM    3  C   UNL     1     -11.555  19.719  65.549  1.00  0.00     1.596 C  
BRANCH   3   4
HETATM    4  C   UNL     1     -12.755  18.856  65.103  1.00  0.00    11.574 C  
BRANCH   4   5
HETATM    5  N   UNL     1     -12.462  17.443  65.264  1.00  0.00     4.842 NA 
HETATM    6  H   UNL     1     -13.140  16.750  64.946  1.00  0.00     0.000 HD 
BRANCH   5   7
HETATM    7  C   UNL     1     -11.277  17.023  65.843  1.00  0.00     0.550 A  
HETATM    8  C   UNL     1     -10.152  17.861  65.843  1.00  0.00    -0.170 A  
HETATM    9  N   UNL     1      -9.961  19.150  65.382  1.00  0.00    -0.069 NA 
HETATM   10  C   UNL     1      -8.721  19.454  65.732  1.00  0.00     0.182 A  
HETATM   11  N   UNL     1      -8.094  18.406  66.372  1.00  0.00    -0.307 NA 
HETATM   12  C   UNL     1      -8.998  17.386  66.451  1.00  0.00    -0.246 A  
HETATM   13  N   UNL     1     -11.155  15.793  66.422  1.00  0.00    -0.153 NA 
HETATM   14  C   UNL     1      -9.960  15.438  66.939  1.00  0.00    -0.243 A  
HETATM   15  N   UNL     1      -8.833  16.186  67.008  1.00  0.00    -0.196 NA 
BRANCH  11  16
HETATM   16  C   UNL     1      -6.799  18.507  67.010  1.00  0.00    -0.194 C  
HETATM   17  O   UNL     1      -6.475  17.215  67.539  1.00  0.00    -0.125 OA 
HETATM   18  C   UNL     1      -6.654  17.220  68.965  1.00  0.00    -0.230 C  
HETATM   19  H   UNL     1      -5.030  20.482  68.959  1.00  0.00     0.000 HD 
HETATM   20  O   UNL     1      -5.173  19.880  68.239  1.00  0.00    -0.184 OA 
HETATM   21  C   UNL     1      -6.873  18.661  69.410  1.00  0.00    -0.163 C  
HETATM   22  H   UNL     1      -6.122  19.867  70.771  1.00  0.00     0.000 HD 
HETATM   23  C   UNL     1      -6.566  19.482  68.175  1.00  0.00    -0.256 C  
HETATM   24  O   UNL     1      -5.986  18.969  70.494  1.00  0.00    -0.185 OA 
BRANCH  18  25
HETATM   25  C   UNL     1      -7.812  16.318  69.399  1.00  0.00    -0.081 C  
BRANCH  25  26
HETATM   26  O   UNL     1      -7.244  15.034  69.660  1.00  0.00    -0.184 OA 
BRANCH  26  27
HETATM   27  P   UNL     1      -8.156  14.050  70.540  1.00  0.00     3.776 P  
HETATM   28  O   UNL     1      -7.987  12.723  69.633  1.00  0.00     0.906 OA 
HETATM   29  O   UNL     1      -7.736  13.848  71.965  1.00  0.00     4.521 OA 
BRANCH  27  30
HETATM   30  O   UNL     1      -9.666  14.653  70.375  1.00  0.00     0.624 OA 
HETATM   31  P   UNL     1      -9.891  16.307  70.828  1.00  0.00     2.629 P  
HETATM   32  C   UNL     1     -10.129  18.058  71.307  1.00  0.00     4.149 C  
HETATM   33  O   UNL     1      -9.944  15.801  72.399  1.00  0.00     3.245 OA 
HETATM   34  O   UNL     1      -8.415  16.653  70.497  1.00  0.00     2.475 OA 
HETATM   35 CL   UNL     1      -8.959  18.601  72.604  1.00  0.00     9.638 Cl 
HETATM   36  P   UNL     1      -9.708  19.140  69.893  1.00  0.00     1.099 P  
HETATM   37 CL   UNL     1     -11.762  18.233  72.031  1.00  0.00     4.181 Cl 
HETATM   38  O   UNL     1     -11.321  19.323  69.559  1.00  0.00     2.652 OA 
HETATM   39  O   UNL     1      -9.676  17.841  68.858  1.00  0.00    -0.308 OA 
HETATM   40  O   UNL     1      -9.352  20.056  68.696  1.00  0.00    -0.213 OA 
ENDBRANCH  27  30
ENDBRANCH  26  27
ENDBRANCH  25  26
ENDBRANCH  18  25
ENDBRANCH  11  16
BRANCH  14  41
HETATM   41  S   UNL     1      -9.788  13.800  67.613  1.00  0.00    -0.240 SA 
BRANCH  41  42
HETATM   42  C   UNL     1      -8.981  12.951  66.214  1.00  0.00     0.083 C  
BRANCH  42  43
HETATM   43  C   UNL     1      -9.671  11.609  66.002  1.00  0.00    -0.257 C  
HETATM   44  C   UNL     1     -11.124  11.770  65.614  1.00  0.00    -0.285 C  
HETATM   45  F   UNL     1     -11.378  11.128  64.449  1.00  0.00    -0.349 F  
HETATM   46  F   UNL     1     -11.488  13.058  65.455  1.00  0.00    -0.316 F  
HETATM   47  F   UNL     1     -11.934  11.228  66.550  1.00  0.00    -0.035 F  
ENDBRANCH  42  43
ENDBRANCH  41  42
ENDBRANCH  14  41
ENDBRANCH   5   7
ENDBRANCH   4   5
ENDBRANCH   3   4
ENDBRANCH   2   3
TORSDOF 12
ENDMDL
MODEL      286
REMARK 921   NORMALIZED FREE ENERGY PREDICTED BY IDOCK:   54.58 KCAL/MOL
REMARK 922        TOTAL FREE ENERGY PREDICTED BY IDOCK:   91.85 KCAL/MOL
REMARK 923 INTER-LIGAND FREE ENERGY PREDICTED BY IDOCK:   40.42 KCAL/MOL
REMARK 924 INTRA-LIGAND FREE ENERGY PREDICTED BY IDOCK:   51.43 KCAL/MOL
REMARK 927      BINDING AFFINITY PREDICTED BY RF-SCORE:    0.00 PKD
ROOT
HETATM    1  C   UNL     1     -13.026   6.372  67.533  1.00  0.00    11.047 C  
HETATM    2  S   UNL     1     -12.635   7.512  68.879  1.00  0.00     5.212 SA 
ENDROOT
BRANCH   2   3
HETATM    3  C   UNL     1     -12.697   9.098  67.961  1.00  0.00     8.388 C  
BRANCH   3   4
HETATM    4  C   UNL     1     -13.001  10.293  68.890  1.00  0.00     2.802 C  
BRANCH   4   5
HETATM    5  N   UNL     1     -11.771  10.883  69.389  1.00  0.00    -0.301 NA 
HETATM    6  H   UNL     1     -11.259  10.418  70.139  1.00  0.00     0.000 HD 
BRANCH   5   7
HETATM    7  C   UNL     1     -11.285  12.066  68.863  1.00  0.00    -0.261 A  
HETATM    8  C   UNL     1     -11.622  13.296  69.450  1.00  0.00    -0.305 A  
HETATM    9  N   UNL     1     -12.373  13.610  70.566  1.00  0.00    -0.355 NA 
HETATM   10  C   UNL     1     -12.273  14.925  70.683  1.00  0.00    -0.318 A  
HETATM   11  N   UNL     1     -11.514  15.476  69.672  1.00  0.00    -0.303 NA 
HETATM   12  C   UNL     1     -11.092  14.445  68.881  1.00  0.00    -0.259 A  
HETATM   13  N   UNL     1     -10.476  12.087  67.763  1.00  0.00    -0.199 NA 
HETATM   14  C   UNL     1     -10.065  13.280  67.285  1.00  0.00    -0.234 A  
HETATM   15  N   UNL     1     -10.316  14.508  67.798  1.00  0.00    -0.236 NA 
BRANCH  11  16
HETATM   16  C   UNL     1     -11.099  16.861  69.635  1.00  0.00     0.116 C  
HETATM   17  O   UNL     1     -10.939  17.229  68.260  1.00  0.00    -0.336 OA 
HETATM   18  C   UNL     1      -9.540  17.291  67.937  1.00  0.00    -0.269 C  
HETATM   19  H   UNL     1      -9.082  18.990  71.129  1.00  0.00     0.000 HD 
HETATM   20  O   UNL     1      -9.885  18.710  70.706  1.00  0.00     2.041 OA 
HETATM   21  C   UNL     1      -8.749  17.193  69.237  1.00  0.00     0.151 C  
HETATM   22  H   UNL     1      -7.298  18.198  70.107  1.00  0.00     0.000 HD 
HETATM   23  C   UNL     1      -9.801  17.315  70.321  1.00  0.00     1.603 C  
HETATM   24  O   UNL     1      -7.791  18.258  69.297  1.00  0.00    -0.067 OA 
BRANCH  18  25
HETATM   25  C   UNL     1      -9.132  16.196  66.950  1.00  0.00    -0.218 C  
BRANCH  25  26
HETATM   26  O   UNL     1      -7.770  16.454  66.604  1.00  0.00    -0.234 OA 
BRANCH  26  27
HETATM   27  P   UNL     1      -6.795  16.751  67.843  1.00  0.00    -0.157 P  
HETATM   28  O   UNL     1      -5.578  17.414  67.010  1.00  0.00    -0.125 OA 
HETATM   29  O   UNL     1      -7.334  17.650  68.916  1.00  0.00    -0.258 OA 
BRANCH  27  30
HETATM   30  O   UNL     1      -6.367  15.267  68.376  1.00  0.00    -0.097 OA 
HETATM   31  P   UNL     1      -6.904  13.921  67.432  1.00  0.00     0.371 P  
HETATM   32  C   UNL     1      -7.471  12.497  66.431  1.00  0.00     0.894 C  
HETATM   33  O   UNL     1      -8.378  14.084  68.157  1.00  0.00    -0.146 OA 
HETATM   34  O   UNL     1      -6.923  14.773  66.135  1.00  0.00     2.191 OA 
HETATM   35 CL   UNL     1      -9.027  12.838  65.534  1.00  0.00     0.523 Cl 
HETATM   36  P   UNL     1      -6.276  12.186  65.080  1.00  0.00     5.809 P  
HETATM   37 CL   UNL     1      -7.846  11.135  67.540  1.00  0.00    -0.114 Cl 
HETATM   38  O   UNL     1      -5.627  10.935  65.950  1.00  0.00    -0.126 OA 
HETATM   39  O   UNL     1      -5.163  13.203  65.777  1.00  0.00     3.595 OA 
HETATM   40  O   UNL     1      -5.265  11.923  63.937  1.00  0.00     1.458 OA 
ENDBRANCH  27  30
ENDBRANCH  26  27
ENDBRANCH  25  26
ENDBRANCH  18  25
ENDBRANCH  11  16
BRANCH  14  41
HETATM   41  S   UNL     1      -9.083  13.299  65.801  1.00  0.00     0.670 SA 
BRANCH  41  42
HETATM   42  C   UNL     1     -10.372  12.986  64.548  1.00  0.00    -0.364 C  
BRANCH  42  43
HETATM   43  C   UNL     1     -11.613  12.456  65.256  1.00  0.00    -0.419 C  
HETATM   44  C   UNL     1     -12.778  13.415  65.158  1.00  0.00    -0.399 C  
HETATM   45  F   UNL     1     -13.856  12.798  64.619  1.00  0.00     0.407 F  
HETATM   46  F   UNL     1     -12.509  14.497  64.401  1.00  0.00    -0.466 F  
HETATM   47  F   UNL     1     -13.143  13.853  66.383  1.00  0.00    -0.289 F  
ENDBRANCH  42  43
ENDBRANCH  41  42
ENDBRANCH  14  41
ENDBRANCH   5   7
ENDBRANCH   4   5
ENDBRANCH   3   4
ENDBRANCH   2   3
TORSDOF 12
ENDMDL
MODEL      287
REMARK 921   NORMALIZED FREE ENERGY PREDICTED BY IDOCK:   66.55 KCAL/MOL
REMARK 922        TOTAL FREE ENERGY PREDICTED BY IDOCK:  112.22 KCAL/MOL
REMARK 923 INTER-LIGAND FREE ENERGY PREDICTED BY IDOCK:   71.78 KCAL/MOL
REMARK 924 INTRA-LIGAND FREE ENERGY PREDICTED BY IDOCK:   40.44 KCAL/MOL
REMARK 927      BINDING AFFINITY PREDICTED BY RF-SCORE:    0.00 PKD
ROOT
HETATM    1  C   UNL     1     -13.640   7.513  67.634  1.00  0.00    19.204 C  
HETATM    2  S   UNL     1     -12.541   8.769  68.326  1.00  0.00     8.178 SA 
ENDROOT
BRANCH   2   3
HETATM    3  C   UNL     1     -11.167   8.671  67.116  1.00  0.00     0.893 C  
BRANCH   3   4
HETATM    4  C   UNL     1     -10.491  10.041  66.897  1.00  0.00    -0.218 C  
BRANCH   4   5
HETATM    5  N   UNL     1     -10.917  10.994  67.906  1.00  0.00    -0.242 NA 
HETATM    6  H   UNL     1     -11.886  10.994  68.221  1.00  0.00     0.000 HD 
BRANCH   5   7
HETATM    7  C   UNL     1     -10.025  11.904  68.447  1.00  0.00    -0.203 A  
HETATM    8  C   UNL     1      -9.168  12.639  67.613  1.00  0.00    -0.191 A  
HETATM    9  N   UNL     1      -9.034  12.685  66.239  1.00  0.00    -0.055 NA 
HETATM   10  C   UNL     1      -8.126  13.623  66.018  1.00  0.00     2.055 A  
HETATM   11  N   UNL     1      -7.647  14.163  67.193  1.00  0.00    -0.058 NA 
HETATM   12  C   UNL     1      -8.306  13.544  68.216  1.00  0.00    -0.165 A  
HETATM   13  N   UNL     1      -9.938  12.115  69.793  1.00  0.00     1.268 NA 
HETATM   14  C   UNL     1      -9.023  12.993  70.252  1.00  0.00     4.781 A  
HETATM   15  N   UNL     1      -8.178  13.764  69.525  1.00  0.00     0.651 NA 
BRANCH  11  16
HETATM   16  C   UNL     1      -6.773  15.314  67.256  1.00  0.00    -0.024 C  
HETATM   17  O   UNL     1      -6.303  15.427  68.605  1.00  0.00    -0.092 OA 
HETATM   18  C   UNL     1      -6.990  16.501  69.267  1.00  0.00    -0.227 C  
HETATM   19  H   UNL     1      -6.522  18.423  66.206  1.00  0.00     0.000 HD 
HETATM   20  O   UNL     1      -6.203  17.556  66.427  1.00  0.00    -0.188 OA 
HETATM   21  C   UNL     1      -7.775  17.280  68.217  1.00  0.00    -0.234 C  
HETATM   22  H   UNL     1      -7.974  19.165  67.688  1.00  0.00     0.000 HD 
HETATM   23  C   UNL     1      -7.288  16.717  66.897  1.00  0.00    -0.225 C  
HETATM   24  O   UNL     1      -7.486  18.680  68.342  1.00  0.00    -0.277 OA 
BRANCH  18  25
HETATM   25  C   UNL     1      -7.904  15.993  70.384  1.00  0.00     1.672 C  
BRANCH  25  26
HETATM   26  O   UNL     1      -9.233  16.023  69.861  1.00  0.00     0.008 OA 
BRANCH  26  27
HETATM   27  P   UNL     1      -9.820  17.488  69.572  1.00  0.00     0.496 P  
HETATM   28  O   UNL     1      -9.787  18.042  71.090  1.00  0.00     3.597 OA 
HETATM   29  O   UNL     1      -9.041  18.342  68.616  1.00  0.00    -0.320 OA 
BRANCH  27  30
HETATM   30  O   UNL     1     -11.362  17.214  69.108  1.00  0.00     0.176 OA 
HETATM   31  P   UNL     1     -11.607  15.966  67.936  1.00  0.00     0.157 P  
HETATM   32  C   UNL     1     -11.865  14.645  66.696  1.00  0.00    -0.310 C  
HETATM   33  O   UNL     1     -11.139  17.049  66.782  1.00  0.00     0.061 OA 
HETATM   34  O   UNL     1     -10.339  15.205  68.406  1.00  0.00    -0.222 OA 
HETATM   35 CL   UNL     1     -10.424  14.416  65.595  1.00  0.00    -0.325 Cl 
HETATM   36  P   UNL     1     -11.996  13.029  67.545  1.00  0.00    -0.119 P  
HETATM   37 CL   UNL     1     -13.218  15.130  65.620  1.00  0.00     0.995 Cl 
HETATM   38  O   UNL     1     -13.645  13.086  67.389  1.00  0.00     3.940 OA 
HETATM   39  O   UNL     1     -12.144  13.772  69.023  1.00  0.00    -0.346 OA 
HETATM   40  O   UNL     1     -12.107  11.661  68.263  1.00  0.00    -0.552 OA 
ENDBRANCH  27  30
ENDBRANCH  26  27
ENDBRANCH  25  26
ENDBRANCH  18  25
ENDBRANCH  11  16
BRANCH  14  41
HETATM   41  S   UNL     1      -8.859  13.196  72.012  1.00  0.00    18.991 SA 
BRANCH  41  42
HETATM   42  C   UNL     1     -10.616  13.266  72.500  1.00  0.00     9.916 C  
BRANCH  42  43
HETATM   43  C   UNL     1     -11.220  14.548  71.942  1.00  0.00     0.771 C  
HETATM   44  C   UNL     1     -12.353  14.270  70.979  1.00  0.00    -0.361 C  
HETATM   45  F   UNL     1     -13.479  14.913  71.373  1.00  0.00    -0.370 F  
HETATM   46  F   UNL     1     -12.649  12.960  70.874  1.00  0.00    -0.408 F  
HETATM   47  F   UNL     1     -12.052  14.723  69.741  1.00  0.00    -0.302 F  
ENDBRANCH  42  43
ENDBRANCH  41  42
ENDBRANCH  14  41
ENDBRANCH   5   7
ENDBRANCH   4   5
ENDBRANCH   3   4
ENDBRANCH   2   3
TORSDOF 12
ENDMDL
MODEL      288
REMARK 921   NORMALIZED FREE ENERGY PREDICTED BY IDOCK:   71.10 KCAL/MOL
REMARK 922        TOTAL FREE ENERGY PREDICTED BY IDOCK:  119.98 KCAL/MOL
REMARK 923 INTER-LIGAND FREE ENERGY PREDICTED BY IDOCK:   44.77 KCAL/MOL
REMARK 924 INTRA-LIGAND FREE ENERGY PREDICTED BY IDOCK:   75.21 KCAL/MOL
REMARK 927      BINDING AFFINITY PREDICTED BY RF-SCORE:    0.00 PKD
ROOT
HETATM    1  C   UNL     1     -12.710   5.894  67.331  1.00  0.00     9.486 C  
HETATM    2  S   UNL     1     -12.654   6.927  68.813  1.00  0.00     5.544 SA 
ENDROOT
BRANCH   2   3
HETATM    3  C   UNL     1     -12.777   8.582  68.035  1.00  0.00     9.384 C  
BRANCH   3   4
HETATM    4  C   UNL     1     -13.526   9.589  68.932  1.00  0.00     6.772 C  
BRANCH   4   5
HETATM    5  N   UNL     1     -12.617  10.214  69.878  1.00  0.00    -0.519 NA 
HETATM    6  H   UNL     1     -12.586   9.880  70.841  1.00  0.00     0.000 HD 
BRANCH   5   7
HETATM    7  C   UNL     1     -11.792  11.255  69.489  1.00  0.00    -0.357 A  
HETATM    8  C   UNL     1     -12.240  12.582  69.567  1.00  0.00    -0.080 A  
HETATM    9  N   UNL     1     -13.422  13.132  70.024  1.00  0.00     1.436 NA 
HETATM   10  C   UNL     1     -13.245  14.440  69.934  1.00  0.00     0.682 A  
HETATM   11  N   UNL     1     -12.010  14.758  69.409  1.00  0.00    -0.308 NA 
HETATM   12  C   UNL     1     -11.360  13.580  69.174  1.00  0.00    -0.282 A  
HETATM   13  N   UNL     1     -10.530  11.036  69.016  1.00  0.00    -0.212 NA 
HETATM   14  C   UNL     1      -9.793  12.096  68.626  1.00  0.00    -0.101 A  
HETATM   15  N   UNL     1     -10.130  13.406  68.689  1.00  0.00    -0.200 NA 
BRANCH  11  16
HETATM   16  C   UNL     1     -11.479  16.103  69.350  1.00  0.00    -0.296 C  
HETATM   17  O   UNL     1     -10.610  16.175  68.213  1.00  0.00    -0.263 OA 
HETATM   18  C   UNL     1      -9.241  16.158  68.649  1.00  0.00    -0.220 C  
HETATM   19  H   UNL     1     -10.256  18.481  71.268  1.00  0.00     0.000 HD 
HETATM   20  O   UNL     1     -10.764  18.125  70.549  1.00  0.00     1.225 OA 
HETATM   21  C   UNL     1      -9.225  16.327  70.165  1.00  0.00     1.109 C  
HETATM   22  H   UNL     1      -8.303  17.479  71.465  1.00  0.00     0.000 HD 
HETATM   23  C   UNL     1     -10.657  16.679  70.513  1.00  0.00     0.402 C  
HETATM   24  O   UNL     1      -8.312  17.374  70.521  1.00  0.00     3.231 OA 
BRANCH  18  25
HETATM   25  C   UNL     1      -8.520  14.878  68.222  1.00  0.00    -0.151 C  
BRANCH  25  26
HETATM   26  O   UNL     1      -7.179  14.994  68.698  1.00  0.00    -0.106 OA 
BRANCH  26  27
HETATM   27  P   UNL     1      -7.035  15.450  70.230  1.00  0.00     0.541 P  
HETATM   28  O   UNL     1      -5.443  15.728  70.228  1.00  0.00    -0.145 OA 
HETATM   29  O   UNL     1      -7.841  16.644  70.648  1.00  0.00     2.641 OA 
BRANCH  27  30
HETATM   30  O   UNL     1      -7.368  14.097  71.081  1.00  0.00     1.413 OA 
HETATM   31  P   UNL     1      -7.712  12.671  70.165  1.00  0.00     3.634 P  
HETATM   32  C   UNL     1      -8.076  11.163  69.194  1.00  0.00    -0.024 C  
HETATM   33  O   UNL     1      -9.237  13.263  69.940  1.00  0.00     1.935 OA 
HETATM   34  O   UNL     1      -6.841  13.161  68.978  1.00  0.00    -0.103 OA 
HETATM   35 CL   UNL     1      -8.806  11.533  67.559  1.00  0.00    -0.152 Cl 
HETATM   36  P   UNL     1      -6.508  10.321  68.764  1.00  0.00    -0.053 P  
HETATM   37 CL   UNL     1      -9.319  10.208  70.069  1.00  0.00    -0.153 Cl 
HETATM   38  O   UNL     1      -6.763   9.234  69.988  1.00  0.00    -0.045 OA 
HETATM   39  O   UNL     1      -5.660  11.272  69.829  1.00  0.00    -0.052 OA 
HETATM   40  O   UNL     1      -5.182   9.609  68.401  1.00  0.00    -0.034 OA 
ENDBRANCH  27  30
ENDBRANCH  26  27
ENDBRANCH  25  26
ENDBRANCH  18  25
ENDBRANCH  11  16
BRANCH  14  41
HETATM   41  S   UNL     1      -8.183  11.792  67.930  1.00  0.00    -0.156 SA 
BRANCH  41  42
HETATM   42  C   UNL     1      -8.649  11.208  66.265  1.00  0.00    -0.180 C  
BRANCH  42  43
HETATM   43  C   UNL     1      -7.417  10.604  65.604  1.00  0.00    -0.093 C  
HETATM   44  C   UNL     1      -7.568   9.117  65.371  1.00  0.00    -0.097 C  
HETATM   45  F   UNL     1      -7.373   8.820  64.064  1.00  0.00    -0.093 F  
HETATM   46  F   UNL     1      -8.783   8.648  65.717  1.00  0.00    -0.143 F  
HETATM   47  F   UNL     1      -6.646   8.425  66.076  1.00  0.00    -0.051 F  
ENDBRANCH  42  43
ENDBRANCH  41  42
ENDBRANCH  14  41
ENDBRANCH   5   7
ENDBRANCH   4   5
ENDBRANCH   3   4
ENDBRANCH   2   3
TORSDOF 12
ENDMDL
MODEL      289
REMARK 921   NORMALIZED FREE ENERGY PREDICTED BY IDOCK:   75.34 KCAL/MOL
REMARK 922        TOTAL FREE ENERGY PREDICTED BY IDOCK:  127.18 KCAL/MOL
REMARK 923 INTER-LIGAND FREE ENERGY PREDICTED BY IDOCK:   44.89 KCAL/MOL
REMARK 924 INTRA-LIGAND FREE ENERGY PREDICTED BY IDOCK:   82.29 KCAL/MOL
REMARK 927      BINDING AFFINITY PREDICTED BY RF-SCORE:    0.00 PKD
ROOT
HETATM    1  C   UNL     1      -5.533  10.005  71.331  1.00  0.00    -0.062 C  
HETATM    2  S   UNL     1      -7.157   9.308  70.955  1.00  0.00    -0.078 SA 
ENDROOT
BRANCH   2   3
HETATM    3  C   UNL     1      -8.120  10.010  72.348  1.00  0.00     4.541 C  
BRANCH   3   4
HETATM    4  C   UNL     1      -9.061  11.143  71.887  1.00  0.00    12.257 C  
BRANCH   4   5
HETATM    5  N   UNL     1     -10.312  10.603  71.384  1.00  0.00     1.635 NA 
HETATM    6  H   UNL     1     -11.187  10.847  71.846  1.00  0.00     0.000 HD 
BRANCH   5   7
HETATM    7  C   UNL     1     -10.331   9.760  70.286  1.00  0.00    -0.291 A  
HETATM    8  C   UNL     1      -9.302   9.812  69.333  1.00  0.00    -0.202 A  
HETATM    9  N   UNL     1      -8.145  10.564  69.265  1.00  0.00    -0.155 NA 
HETATM   10  C   UNL     1      -7.518  10.124  68.185  1.00  0.00    -0.083 A  
HETATM   11  N   UNL     1      -8.236   9.140  67.538  1.00  0.00    -0.108 NA 
HETATM   12  C   UNL     1      -9.374   8.932  68.263  1.00  0.00    -0.143 A  
HETATM   13  N   UNL     1     -11.340   8.863  70.084  1.00  0.00    -0.170 NA 
HETATM   14  C   UNL     1     -11.311   8.096  68.976  1.00  0.00     0.601 A  
HETATM   15  N   UNL     1     -10.351   8.057  68.021  1.00  0.00    -0.210 NA 
BRANCH  11  16
HETATM   16  C   UNL     1      -7.725   8.363  66.429  1.00  0.00    -0.094 C  
HETATM   17  O   UNL     1      -8.424   8.779  65.250  1.00  0.00    -0.155 OA 
HETATM   18  C   UNL     1      -9.395   7.783  64.888  1.00  0.00     1.185 C  
HETATM   19  H   UNL     1      -6.828   5.302  65.621  1.00  0.00     0.000 HD 
HETATM   20  O   UNL     1      -6.767   6.250  65.622  1.00  0.00    -0.046 OA 
HETATM   21  C   UNL     1      -9.143   6.545  65.741  1.00  0.00     0.019 C  
HETATM   22  H   UNL     1      -8.913   4.616  65.428  1.00  0.00     0.000 HD 
HETATM   23  C   UNL     1      -7.823   6.830  66.428  1.00  0.00    -0.104 C  
HETATM   24  O   UNL     1      -9.070   5.388  64.897  1.00  0.00    -0.070 OA 
BRANCH  18  25
HETATM   25  C   UNL     1     -10.827   8.295  65.053  1.00  0.00     6.713 C  
BRANCH  25  26
HETATM   26  O   UNL     1     -11.644   7.141  65.254  1.00  0.00     6.627 OA 
BRANCH  26  27
HETATM   27  P   UNL     1     -10.846   5.759  65.418  1.00  0.00     2.552 P  
HETATM   28  O   UNL     1     -11.550   5.259  66.785  1.00  0.00     1.170 OA 
HETATM   29  O   UNL     1     -10.979   4.775  64.293  1.00  0.00     0.431 OA 
BRANCH  27  30
HETATM   30  O   UNL     1      -9.308   6.220  65.714  1.00  0.00    -0.050 OA 
HETATM   31  P   UNL     1      -8.388   5.211  66.776  1.00  0.00    -0.106 P  
HETATM   32  C   UNL     1      -7.415   4.142  67.899  1.00  0.00    -0.068 C  
HETATM   33  O   UNL     1      -9.165   5.941  68.036  1.00  0.00    -0.114 OA 
HETATM   34  O   UNL     1      -9.212   3.957  66.381  1.00  0.00    -0.144 OA 
HETATM   35 CL   UNL     1      -8.457   3.260  69.115  1.00  0.00    -0.086 Cl 
HETATM   36  P   UNL     1      -6.658   2.779  66.940  1.00  0.00    -0.037 P  
HETATM   37 CL   UNL     1      -6.321   5.183  68.870  1.00  0.00    -0.030 Cl 
HETATM   38  O   UNL     1      -5.212   3.588  66.942  1.00  0.00    -0.011 OA 
HETATM   39  O   UNL     1      -7.036   3.526  65.505  1.00  0.00    -0.063 OA 
HETATM   40  O   UNL     1      -6.017   1.626  66.129  1.00  0.00    -0.017 OA 
ENDBRANCH  27  30
ENDBRANCH  26  27
ENDBRANCH  25  26
ENDBRANCH  18  25
ENDBRANCH  11  16
BRANCH  14  41
HETATM   41  S   UNL     1     -12.676   6.992  68.679  1.00  0.00     6.927 SA 
BRANCH  41  42
HETATM   42  C   UNL     1     -12.156   5.552  69.673  1.00  0.00     3.807 C  
BRANCH  42  43
HETATM   43  C   UNL     1     -10.932   5.947  70.490  1.00  0.00    -0.362 C  
HETATM   44  C   UNL     1      -9.725   6.209  69.616  1.00  0.00    -0.152 C  
HETATM   45  F   UNL     1      -9.232   7.448  69.850  1.00  0.00    -0.144 F  
HETATM   46  F   UNL     1      -9.997   6.121  68.299  1.00  0.00    -0.126 F  
HETATM   47  F   UNL     1      -8.735   5.330  69.890  1.00  0.00    -0.099 F  
ENDBRANCH  42  43
ENDBRANCH  41  42
ENDBRANCH  14  41
ENDBRANCH   5   7
ENDBRANCH   4   5
ENDBRANCH   3   4
ENDBRANCH   2   3
TORSDOF 12
ENDMDL
MODEL      290
REMARK 921   NORMALIZED FREE ENERGY PREDICTED BY IDOCK:   76.08 KCAL/MOL
REMARK 922        TOTAL FREE ENERGY PREDICTED BY IDOCK:  128.44 KCAL/MOL
REMARK 923 INTER-LIGAND FREE ENERGY PREDICTED BY IDOCK:   26.44 KCAL/MOL
REMARK 924 INTRA-LIGAND FREE ENERGY PREDICTED BY IDOCK:  101.99 KCAL/MOL
REMARK 927      BINDING AFFINITY PREDICTED BY RF-SCORE:    0.00 PKD
ROOT
HETATM    1  C   UNL     1     -11.235  14.112  65.676  1.00  0.00    -0.308 C  
HETATM    2  S   UNL     1     -10.890  13.980  63.908  1.00  0.00     0.935 SA 
ENDROOT
BRANCH   2   3
HETATM    3  C   UNL     1     -12.553  14.373  63.244  1.00  0.00     1.182 C  
BRANCH   3   4
HETATM    4  C   UNL     1     -13.507  13.163  63.319  1.00  0.00     2.636 C  
BRANCH   4   5
HETATM    5  N   UNL     1     -12.773  11.944  63.611  1.00  0.00    -0.625 NA 
HETATM    6  H   UNL     1     -12.903  11.124  63.019  1.00  0.00     0.000 HD 
BRANCH   5   7
HETATM    7  C   UNL     1     -11.899  11.880  64.682  1.00  0.00    -0.205 A  
HETATM    8  C   UNL     1     -10.647  11.260  64.541  1.00  0.00    -0.336 A  
HETATM    9  N   UNL     1     -10.024  10.678  63.455  1.00  0.00    -0.321 NA 
HETATM   10  C   UNL     1      -8.822  10.339  63.896  1.00  0.00    -0.220 A  
HETATM   11  N   UNL     1      -8.656  10.650  65.229  1.00  0.00    -0.176 NA 
HETATM   12  C   UNL     1      -9.813  11.241  65.649  1.00  0.00    -0.234 A  
HETATM   13  N   UNL     1     -12.215  12.404  65.903  1.00  0.00    -0.632 NA 
HETATM   14  C   UNL     1     -11.328  12.277  66.911  1.00  0.00    -0.333 A  
HETATM   15  N   UNL     1     -10.093  11.722  66.861  1.00  0.00    -0.205 NA 
BRANCH  11  16
HETATM   16  C   UNL     1      -7.395  10.547  65.931  1.00  0.00    -0.142 C  
HETATM   17  O   UNL     1      -7.307   9.221  66.470  1.00  0.00    -0.091 OA 
HETATM   18  C   UNL     1      -7.555   9.258  67.885  1.00  0.00    -0.084 C  
HETATM   19  H   UNL     1      -5.437  12.222  67.978  1.00  0.00     0.000 HD 
HETATM   20  O   UNL     1      -5.637  11.648  67.248  1.00  0.00    -0.075 OA 
HETATM   21  C   UNL     1      -7.566  10.717  68.326  1.00  0.00    -0.098 C  
HETATM   22  H   UNL     1      -6.703  11.792  69.730  1.00  0.00     0.000 HD 
HETATM   23  C   UNL     1      -7.070  11.475  67.112  1.00  0.00    -0.140 C  
HETATM   24  O   UNL     1      -6.697  10.883  69.455  1.00  0.00    -0.080 OA 
BRANCH  18  25
HETATM   25  C   UNL     1      -8.861   8.552  68.254  1.00  0.00    -0.142 C  
BRANCH  25  26
HETATM   26  O   UNL     1      -9.809   9.583  68.534  1.00  0.00    -0.152 OA 
BRANCH  26  27
HETATM   27  P   UNL     1     -10.064   9.872  70.092  1.00  0.00    -0.139 P  
HETATM   28  O   UNL     1     -11.625   9.458  70.141  1.00  0.00    -0.199 OA 
HETATM   29  O   UNL     1      -9.218   9.100  71.060  1.00  0.00    -0.244 OA 
BRANCH  27  30
HETATM   30  O   UNL     1      -9.908  11.493  70.226  1.00  0.00     1.749 OA 
HETATM   31  P   UNL     1     -11.365  12.392  70.471  1.00  0.00     1.602 P  
HETATM   32  C   UNL     1     -12.908  13.343  70.730  1.00  0.00    -0.150 C  
HETATM   33  O   UNL     1     -11.646  12.254  68.850  1.00  0.00    -0.269 OA 
HETATM   34  O   UNL     1     -12.052  11.188  71.169  1.00  0.00    -0.301 OA 
HETATM   35 CL   UNL     1     -14.374  12.525  70.005  1.00  0.00     6.265 Cl 
HETATM   36  P   UNL     1     -13.303  13.388  72.517  1.00  0.00    -0.190 P  
HETATM   37 CL   UNL     1     -12.761  14.912  69.871  1.00  0.00    -0.195 Cl 
HETATM   38  O   UNL     1     -12.692  14.926  72.608  1.00  0.00    -0.335 OA 
HETATM   39  O   UNL     1     -11.798  12.803  72.905  1.00  0.00     3.001 OA 
HETATM   40  O   UNL     1     -13.637  13.427  74.028  1.00  0.00     3.250 OA 
ENDBRANCH  27  30
ENDBRANCH  26  27
ENDBRANCH  25  26
ENDBRANCH  18  25
ENDBRANCH  11  16
BRANCH  14  41
HETATM   41  S   UNL     1     -11.787  12.886  68.519  1.00  0.00    -0.268 SA 
BRANCH  41  42
HETATM   42  C   UNL     1     -10.152  12.955  69.324  1.00  0.00     0.508 C  
BRANCH  42  43
HETATM   43  C   UNL     1     -10.306  12.492  70.768  1.00  0.00     4.987 C  
HETATM   44  C   UNL     1     -11.050  13.502  71.613  1.00  0.00     3.639 C  
HETATM   45  F   UNL     1     -12.124  12.927  72.203  1.00  0.00     0.247 F  
HETATM   46  F   UNL     1     -11.493  14.559  70.905  1.00  0.00    -0.318 F  
HETATM   47  F   UNL     1     -10.260  13.974  72.603  1.00  0.00     3.653 F  
ENDBRANCH  42  43
ENDBRANCH  41  42
ENDBRANCH  14  41
ENDBRANCH   5   7
ENDBRANCH   4   5
ENDBRANCH   3   4
ENDBRANCH   2   3
TORSDOF 12
ENDMDL
MODEL      291
REMARK 921   NORMALIZED FREE ENERGY PREDICTED BY IDOCK:   82.43 KCAL/MOL
REMARK 922        TOTAL FREE ENERGY PREDICTED BY IDOCK:  139.24 KCAL/MOL
REMARK 923 INTER-LIGAND FREE ENERGY PREDICTED BY IDOCK:   90.23 KCAL/MOL
REMARK 924 INTRA-LIGAND FREE ENERGY PREDICTED BY IDOCK:   49.01 KCAL/MOL
REMARK 927      BINDING AFFINITY PREDICTED BY RF-SCORE:    0.00 PKD
ROOT
HETATM    1  C   UNL     1     -13.324  19.720  67.738  1.00  0.00     6.811 C  
HETATM    2  S   UNL     1     -12.178  20.711  66.754  1.00  0.00     5.787 SA 
ENDROOT
BRANCH   2   3
HETATM    3  C   UNL     1     -12.257  19.787  65.173  1.00  0.00     5.648 C  
BRANCH   3   4
HETATM    4  C   UNL     1     -13.617  19.082  64.982  1.00  0.00    20.730 C  
BRANCH   4   5
HETATM    5  N   UNL     1     -13.449  17.640  64.941  1.00  0.00    11.332 NA 
HETATM    6  H   UNL     1     -14.266  17.042  64.819  1.00  0.00     0.000 HD 
BRANCH   5   7
HETATM    7  C   UNL     1     -12.196  17.066  65.065  1.00  0.00     3.418 A  
HETATM    8  C   UNL     1     -11.045  17.795  64.725  1.00  0.00     1.456 A  
HETATM    9  N   UNL     1     -10.871  19.093  64.288  1.00  0.00     2.515 NA 
HETATM   10  C   UNL     1      -9.559  19.253  64.212  1.00  0.00     7.274 A  
HETATM   11  N   UNL     1      -8.880  18.102  64.553  1.00  0.00     5.316 NA 
HETATM   12  C   UNL     1      -9.818  17.167  64.884  1.00  0.00     1.968 A  
HETATM   13  N   UNL     1     -12.030  15.786  65.509  1.00  0.00     0.579 NA 
HETATM   14  C   UNL     1     -10.781  15.281  65.575  1.00  0.00    -0.371 A  
HETATM   15  N   UNL     1      -9.617  15.914  65.295  1.00  0.00    -0.307 NA 
BRANCH  11  16
HETATM   16  C   UNL     1      -7.444  18.029  64.720  1.00  0.00     3.337 C  
HETATM   17  O   UNL     1      -7.110  16.667  65.012  1.00  0.00     2.622 OA 
HETATM   18  C   UNL     1      -6.807  16.533  66.410  1.00  0.00     0.160 C  
HETATM   19  H   UNL     1      -4.923  19.637  66.094  1.00  0.00     0.000 HD 
HETATM   20  O   UNL     1      -5.362  19.128  65.423  1.00  0.00    -0.149 OA 
HETATM   21  C   UNL     1      -6.705  17.932  67.008  1.00  0.00    -0.176 C  
HETATM   22  H   UNL     1      -5.418  18.922  68.119  1.00  0.00     0.000 HD 
HETATM   23  C   UNL     1      -6.733  18.853  65.805  1.00  0.00    -0.268 C  
HETATM   24  O   UNL     1      -5.481  18.050  67.746  1.00  0.00    -0.146 OA 
BRANCH  18  25
HETATM   25  C   UNL     1      -7.850  15.687  67.143  1.00  0.00    -0.217 C  
BRANCH  25  26
HETATM   26  O   UNL     1      -8.204  14.627  66.253  1.00  0.00     0.370 OA 
BRANCH  26  27
HETATM   27  P   UNL     1      -8.919  13.367  66.942  1.00  0.00    -0.116 P  
HETATM   28  O   UNL     1     -10.067  13.130  65.829  1.00  0.00    -0.286 OA 
HETATM   29  O   UNL     1      -8.061  12.157  67.171  1.00  0.00    -0.167 OA 
BRANCH  27  30
HETATM   30  O   UNL     1      -9.576  13.979  68.306  1.00  0.00    -0.213 OA 
HETATM   31  P   UNL     1      -8.568  15.018  69.252  1.00  0.00    -0.057 P  
HETATM   32  C   UNL     1      -7.501  16.118  70.252  1.00  0.00     1.217 C  
HETATM   33  O   UNL     1      -7.846  13.661  69.854  1.00  0.00     0.861 OA 
HETATM   34  O   UNL     1      -7.763  15.461  68.001  1.00  0.00    -0.117 OA 
HETATM   35 CL   UNL     1      -5.722  15.733  70.073  1.00  0.00    -0.147 Cl 
HETATM   36  P   UNL     1      -7.618  17.829  69.612  1.00  0.00     1.106 P  
HETATM   37 CL   UNL     1      -7.876  15.853  71.988  1.00  0.00     7.089 Cl 
HETATM   38  O   UNL     1      -8.658  18.213  70.843  1.00  0.00     4.957 OA 
HETATM   39  O   UNL     1      -8.929  17.430  68.674  1.00  0.00    -0.267 OA 
HETATM   40  O   UNL     1      -7.718  19.276  69.071  1.00  0.00    -0.351 OA 
ENDBRANCH  27  30
ENDBRANCH  26  27
ENDBRANCH  25  26
ENDBRANCH  18  25
ENDBRANCH  11  16
BRANCH  14  41
HETATM   41  S   UNL     1     -10.585  13.584  66.073  1.00  0.00    -0.289 SA 
BRANCH  41  42
HETATM   42  C   UNL     1     -10.383  12.784  64.445  1.00  0.00    -0.364 C  
BRANCH  42  43
HETATM   43  C   UNL     1     -11.013  11.399  64.507  1.00  0.00    -0.346 C  
HETATM   44  C   UNL     1     -10.000  10.301  64.270  1.00  0.00    -0.223 C  
HETATM   45  F   UNL     1     -10.004   9.422  65.300  1.00  0.00    -0.363 F  
HETATM   46  F   UNL     1      -8.742  10.763  64.134  1.00  0.00    -0.177 F  
HETATM   47  F   UNL     1     -10.303   9.603  63.152  1.00  0.00     0.799 F  
ENDBRANCH  42  43
ENDBRANCH  41  42
ENDBRANCH  14  41
ENDBRANCH   5   7
ENDBRANCH   4   5
ENDBRANCH   3   4
ENDBRANCH   2   3
TORSDOF 12
ENDMDL
