MODEL        1
REMARK 921   NORMALIZED FREE ENERGY PREDICTED BY IDOCK:   -6.78 KCAL/MOL
REMARK 922        TOTAL FREE ENERGY PREDICTED BY IDOCK:  -10.09 KCAL/MOL
REMARK 923 INTER-LIGAND FREE ENERGY PREDICTED BY IDOCK:   -9.16 KCAL/MOL
REMARK 924 INTRA-LIGAND FREE ENERGY PREDICTED BY IDOCK:   -0.93 KCAL/MOL
REMARK 927      BINDING AFFINITY PREDICTED BY RF-SCORE:    0.00 PKD
ROOT
HETATM    1  C   UNL     1     -11.992  16.450  72.489  1.00  0.00    -0.579 C  
HETATM    2  C   UNL     1     -13.294  15.841  72.979  1.00  0.00    -0.679 C  
ENDROOT
BRANCH   2   3
HETATM    3  C   UNL     1     -13.120  14.361  73.320  1.00  0.00    -0.352 C  
BRANCH   3   4
HETATM    4  C   UNL     1     -13.898  13.484  72.347  1.00  0.00    -0.687 C  
BRANCH   4   5
HETATM    5  C   UNL     1     -13.084  12.261  71.921  1.00  0.00    -0.469 C  
BRANCH   5   6
HETATM    6  C   UNL     1     -12.504  12.458  70.542  1.00  0.00    -0.270 A  
HETATM    7  C   UNL     1     -11.963  11.376  69.847  1.00  0.00    -0.434 A  
HETATM    8  C   UNL     1     -11.364  11.565  68.600  1.00  0.00    -0.269 A  
HETATM    9  C   UNL     1     -11.247  12.840  68.011  1.00  0.00    -0.310 A  
HETATM   10  O   UNL     1     -10.884  10.459  67.953  1.00  0.00    -0.237 OA 
HETATM   11  H   UNL     1     -12.264  15.920  68.732  1.00  0.00     0.000 HD 
HETATM   12  H   UNL     1     -10.477  10.588  67.104  1.00  0.00     0.000 HD 
HETATM   13  C   UNL     1     -11.841  13.907  68.711  1.00  0.00    -0.361 A  
HETATM   14  O   UNL     1     -11.864  15.200  68.260  1.00  0.00    -0.331 OA 
HETATM   15  C   UNL     1     -12.469  13.720  69.947  1.00  0.00    -0.259 A  
BRANCH   9  16
HETATM   16  C   UNL     1     -10.574  13.031  66.642  1.00  0.00    -0.275 C  
HETATM   17  C   UNL     1      -9.457  14.034  66.769  1.00  0.00    -0.292 C  
HETATM   18  C   UNL     1      -9.438  15.231  66.170  1.00  0.00    -0.361 C  
HETATM   19  C   UNL     1     -10.543  15.696  65.274  1.00  0.00    -0.448 C  
HETATM   20  C   UNL     1      -8.333  16.220  66.422  1.00  0.00    -0.365 C  
HETATM   21  C   UNL     1     -11.560  14.656  64.794  1.00  0.00    -0.418 C  
HETATM   22  C   UNL     1     -11.590  13.267  65.473  1.00  0.00    -0.351 C  
BRANCH  22  23
HETATM   23  C   UNL     1     -11.575  12.121  64.446  1.00  0.00    -0.422 C  
HETATM   24  C   UNL     1     -10.628  11.168  64.490  1.00  0.00    -0.397 C  
HETATM   25  C   UNL     1     -12.645  12.062  63.393  1.00  0.00    -0.592 C  
ENDBRANCH  22  23
ENDBRANCH   9  16
ENDBRANCH   5   6
ENDBRANCH   4   5
ENDBRANCH   3   4
ENDBRANCH   2   3
TORSDOF 6
ENDMDL
MODEL        2
REMARK 921   NORMALIZED FREE ENERGY PREDICTED BY IDOCK:   -6.55 KCAL/MOL
REMARK 922        TOTAL FREE ENERGY PREDICTED BY IDOCK:   -9.78 KCAL/MOL
REMARK 923 INTER-LIGAND FREE ENERGY PREDICTED BY IDOCK:   -9.21 KCAL/MOL
REMARK 924 INTRA-LIGAND FREE ENERGY PREDICTED BY IDOCK:   -0.57 KCAL/MOL
REMARK 927      BINDING AFFINITY PREDICTED BY RF-SCORE:    0.00 PKD
ROOT
HETATM    1  C   UNL     1     -12.024  16.292  72.306  1.00  0.00    -0.605 C  
HETATM    2  C   UNL     1     -13.344  15.630  72.664  1.00  0.00    -0.623 C  
ENDROOT
BRANCH   2   3
HETATM    3  C   UNL     1     -13.139  14.170  73.068  1.00  0.00    -0.458 C  
BRANCH   3   4
HETATM    4  C   UNL     1     -13.830  13.232  72.086  1.00  0.00    -0.555 C  
BRANCH   4   5
HETATM    5  C   UNL     1     -12.915  12.077  71.678  1.00  0.00    -0.439 C  
BRANCH   5   6
HETATM    6  C   UNL     1     -12.266  12.353  70.343  1.00  0.00    -0.370 A  
HETATM    7  C   UNL     1     -12.422  13.596  69.730  1.00  0.00    -0.193 A  
HETATM    8  C   UNL     1     -11.880  13.833  68.465  1.00  0.00    -0.370 A  
HETATM    9  C   UNL     1     -11.195  12.835  67.745  1.00  0.00    -0.317 A  
HETATM   10  O   UNL     1     -12.037  15.085  67.933  1.00  0.00    -0.520 OA 
HETATM   11  H   UNL     1     -10.205   9.715  68.315  1.00  0.00     0.000 HD 
HETATM   12  H   UNL     1     -11.668  15.246  67.072  1.00  0.00     0.000 HD 
HETATM   13  C   UNL     1     -11.013  11.604  68.404  1.00  0.00    -0.220 A  
HETATM   14  O   UNL     1     -10.328  10.545  67.870  1.00  0.00    -0.173 OA 
HETATM   15  C   UNL     1     -11.527  11.370  69.683  1.00  0.00    -0.380 A  
BRANCH   9  16
HETATM   16  C   UNL     1     -10.616  13.110  66.348  1.00  0.00    -0.293 C  
HETATM   17  C   UNL     1      -9.587  14.208  66.438  1.00  0.00    -0.310 C  
HETATM   18  C   UNL     1      -9.707  15.412  65.866  1.00  0.00    -0.392 C  
HETATM   19  C   UNL     1     -10.896  15.791  65.039  1.00  0.00    -0.461 C  
HETATM   20  C   UNL     1      -8.683  16.491  66.082  1.00  0.00    -0.335 C  
HETATM   21  C   UNL     1     -11.841  14.672  64.589  1.00  0.00    -0.459 C  
HETATM   22  C   UNL     1     -11.710  13.275  65.238  1.00  0.00    -0.357 C  
BRANCH  22  23
HETATM   23  C   UNL     1     -11.648  12.153  64.186  1.00  0.00    -0.467 C  
HETATM   24  C   UNL     1     -12.720  11.852  63.433  1.00  0.00    -0.496 C  
HETATM   25  C   UNL     1     -10.362  11.400  63.989  1.00  0.00    -0.418 C  
ENDBRANCH  22  23
ENDBRANCH   9  16
ENDBRANCH   5   6
ENDBRANCH   4   5
ENDBRANCH   3   4
ENDBRANCH   2   3
TORSDOF 6
ENDMDL
MODEL        3
REMARK 921   NORMALIZED FREE ENERGY PREDICTED BY IDOCK:   -6.47 KCAL/MOL
REMARK 922        TOTAL FREE ENERGY PREDICTED BY IDOCK:   -9.67 KCAL/MOL
REMARK 923 INTER-LIGAND FREE ENERGY PREDICTED BY IDOCK:   -8.78 KCAL/MOL
REMARK 924 INTRA-LIGAND FREE ENERGY PREDICTED BY IDOCK:   -0.89 KCAL/MOL
REMARK 927      BINDING AFFINITY PREDICTED BY RF-SCORE:    0.00 PKD
ROOT
HETATM    1  C   UNL     1     -12.201   7.209  71.054  1.00  0.00    -0.384 C  
HETATM    2  C   UNL     1     -13.593   7.577  71.539  1.00  0.00    -0.439 C  
ENDROOT
BRANCH   2   3
HETATM    3  C   UNL     1     -13.645   9.026  72.025  1.00  0.00    -0.500 C  
BRANCH   3   4
HETATM    4  C   UNL     1     -12.367   9.769  71.656  1.00  0.00    -0.495 C  
BRANCH   4   5
HETATM    5  C   UNL     1     -12.631  11.259  71.436  1.00  0.00    -0.456 C  
BRANCH   5   6
HETATM    6  C   UNL     1     -12.151  11.692  70.072  1.00  0.00    -0.395 A  
HETATM    7  C   UNL     1     -11.597  10.761  69.193  1.00  0.00    -0.376 A  
HETATM    8  C   UNL     1     -11.091  11.169  67.958  1.00  0.00    -0.276 A  
HETATM    9  C   UNL     1     -11.080  12.521  67.562  1.00  0.00    -0.311 A  
HETATM   10  O   UNL     1     -10.593  10.202  67.126  1.00  0.00    -0.244 OA 
HETATM   11  H   UNL     1     -12.215  15.391  68.794  1.00  0.00     0.000 HD 
HETATM   12  H   UNL     1     -10.249  10.480  66.285  1.00  0.00     0.000 HD 
HETATM   13  C   UNL     1     -11.685  13.434  68.447  1.00  0.00    -0.355 A  
HETATM   14  O   UNL     1     -11.806  14.775  68.197  1.00  0.00    -0.326 OA 
HETATM   15  C   UNL     1     -12.222  13.028  69.673  1.00  0.00    -0.219 A  
BRANCH   9  16
HETATM   16  C   UNL     1     -10.507  12.954  66.203  1.00  0.00    -0.283 C  
HETATM   17  C   UNL     1      -9.439  13.995  66.418  1.00  0.00    -0.278 C  
HETATM   18  C   UNL     1      -9.522  15.266  66.006  1.00  0.00    -0.372 C  
HETATM   19  C   UNL     1     -10.706  15.788  65.253  1.00  0.00    -0.446 C  
HETATM   20  C   UNL     1      -8.458  16.273  66.343  1.00  0.00    -0.365 C  
HETATM   21  C   UNL     1     -11.695  14.769  64.679  1.00  0.00    -0.426 C  
HETATM   22  C   UNL     1     -11.607  13.296  65.141  1.00  0.00    -0.334 C  
BRANCH  22  23
HETATM   23  C   UNL     1     -11.596  12.317  63.953  1.00  0.00    -0.525 C  
HETATM   24  C   UNL     1     -12.743  11.912  63.381  1.00  0.00    -0.496 C  
HETATM   25  C   UNL     1     -10.281  11.826  63.416  1.00  0.00    -0.482 C  
ENDBRANCH  22  23
ENDBRANCH   9  16
ENDBRANCH   5   6
ENDBRANCH   4   5
ENDBRANCH   3   4
ENDBRANCH   2   3
TORSDOF 6
ENDMDL
MODEL        4
REMARK 921   NORMALIZED FREE ENERGY PREDICTED BY IDOCK:   -6.20 KCAL/MOL
REMARK 922        TOTAL FREE ENERGY PREDICTED BY IDOCK:   -9.31 KCAL/MOL
REMARK 923 INTER-LIGAND FREE ENERGY PREDICTED BY IDOCK:   -8.85 KCAL/MOL
REMARK 924 INTRA-LIGAND FREE ENERGY PREDICTED BY IDOCK:   -0.46 KCAL/MOL
REMARK 927      BINDING AFFINITY PREDICTED BY RF-SCORE:    0.00 PKD
ROOT
HETATM    1  C   UNL     1     -12.318   7.015  71.057  1.00  0.00    -0.402 C  
HETATM    2  C   UNL     1     -13.684   7.541  71.464  1.00  0.00    -0.460 C  
ENDROOT
BRANCH   2   3
HETATM    3  C   UNL     1     -13.566   8.870  72.211  1.00  0.00    -0.513 C  
BRANCH   3   4
HETATM    4  C   UNL     1     -12.382   9.680  71.695  1.00  0.00    -0.489 C  
BRANCH   4   5
HETATM    5  C   UNL     1     -12.790  11.114  71.358  1.00  0.00    -0.544 C  
BRANCH   5   6
HETATM    6  C   UNL     1     -12.157  11.561  70.063  1.00  0.00    -0.408 A  
HETATM    7  C   UNL     1     -12.137  12.913  69.720  1.00  0.00    -0.312 A  
HETATM    8  C   UNL     1     -11.613  13.324  68.493  1.00  0.00    -0.333 A  
HETATM    9  C   UNL     1     -11.122  12.406  67.544  1.00  0.00    -0.313 A  
HETATM   10  O   UNL     1     -11.591  14.667  68.230  1.00  0.00    -0.296 OA 
HETATM   11  H   UNL     1     -10.615   9.125  67.416  1.00  0.00     0.000 HD 
HETATM   12  H   UNL     1     -11.234  14.946  67.395  1.00  0.00     0.000 HD 
HETATM   13  C   UNL     1     -11.111  11.053  67.932  1.00  0.00    -0.288 A  
HETATM   14  O   UNL     1     -10.622  10.037  67.154  1.00  0.00    -0.241 OA 
HETATM   15  C   UNL     1     -11.607  10.638  69.172  1.00  0.00    -0.342 A  
BRANCH   9  16
HETATM   16  C   UNL     1     -10.560  12.875  66.192  1.00  0.00    -0.287 C  
HETATM   17  C   UNL     1      -9.448  13.865  66.428  1.00  0.00    -0.268 C  
HETATM   18  C   UNL     1      -9.490  15.155  66.072  1.00  0.00    -0.358 C  
HETATM   19  C   UNL     1     -10.668  15.754  65.368  1.00  0.00    -0.420 C  
HETATM   20  C   UNL     1      -8.382  16.106  66.429  1.00  0.00    -0.357 C  
HETATM   21  C   UNL     1     -11.707  14.799  64.772  1.00  0.00    -0.422 C  
HETATM   22  C   UNL     1     -11.667  13.305  65.169  1.00  0.00    -0.358 C  
BRANCH  22  23
HETATM   23  C   UNL     1     -11.717  12.379  63.941  1.00  0.00    -0.529 C  
HETATM   24  C   UNL     1     -12.887  12.071  63.356  1.00  0.00    -0.427 C  
HETATM   25  C   UNL     1     -10.436  11.829  63.381  1.00  0.00    -0.485 C  
ENDBRANCH  22  23
ENDBRANCH   9  16
ENDBRANCH   5   6
ENDBRANCH   4   5
ENDBRANCH   3   4
ENDBRANCH   2   3
TORSDOF 6
ENDMDL
MODEL        5
REMARK 921   NORMALIZED FREE ENERGY PREDICTED BY IDOCK:   -6.18 KCAL/MOL
REMARK 922        TOTAL FREE ENERGY PREDICTED BY IDOCK:   -9.28 KCAL/MOL
REMARK 923 INTER-LIGAND FREE ENERGY PREDICTED BY IDOCK:   -8.38 KCAL/MOL
REMARK 924 INTRA-LIGAND FREE ENERGY PREDICTED BY IDOCK:   -0.90 KCAL/MOL
REMARK 927      BINDING AFFINITY PREDICTED BY RF-SCORE:    0.00 PKD
ROOT
HETATM    1  C   UNL     1     -11.332   6.291  69.890  1.00  0.00    -0.504 C  
HETATM    2  C   UNL     1     -11.319   7.189  71.115  1.00  0.00    -0.306 C  
ENDROOT
BRANCH   2   3
HETATM    3  C   UNL     1     -12.734   7.626  71.497  1.00  0.00    -0.373 C  
BRANCH   3   4
HETATM    4  C   UNL     1     -12.859   9.144  71.476  1.00  0.00    -0.412 C  
BRANCH   4   5
HETATM    5  C   UNL     1     -11.496   9.815  71.302  1.00  0.00    -0.457 C  
BRANCH   5   6
HETATM    6  C   UNL     1     -11.538  10.834  70.189  1.00  0.00    -0.424 A  
HETATM    7  C   UNL     1     -12.101  12.091  70.408  1.00  0.00    -0.407 A  
HETATM    8  C   UNL     1     -12.203  13.012  69.363  1.00  0.00    -0.113 A  
HETATM    9  C   UNL     1     -11.784  12.707  68.053  1.00  0.00    -0.402 A  
HETATM   10  O   UNL     1     -12.733  14.241  69.650  1.00  0.00    -0.502 OA 
HETATM   11  H   UNL     1     -10.261  10.165  66.550  1.00  0.00     0.000 HD 
HETATM   12  H   UNL     1     -12.802  14.867  68.939  1.00  0.00     0.000 HD 
HETATM   13  C   UNL     1     -11.178  11.450  67.869  1.00  0.00    -0.288 A  
HETATM   14  O   UNL     1     -10.670  11.013  66.675  1.00  0.00    -0.254 OA 
HETATM   15  C   UNL     1     -11.046  10.534  68.918  1.00  0.00    -0.312 A  
BRANCH   9  16
HETATM   16  C   UNL     1     -11.915  13.729  66.913  1.00  0.00    -0.460 C  
HETATM   17  C   UNL     1     -12.660  13.103  65.762  1.00  0.00    -0.351 C  
HETATM   18  C   UNL     1     -12.133  12.862  64.555  1.00  0.00    -0.473 C  
HETATM   19  C   UNL     1     -10.720  13.220  64.212  1.00  0.00    -0.408 C  
HETATM   20  C   UNL     1     -12.910  12.144  63.486  1.00  0.00    -0.453 C  
HETATM   21  C   UNL     1      -9.969  14.156  65.164  1.00  0.00    -0.263 C  
HETATM   22  C   UNL     1     -10.568  14.448  66.558  1.00  0.00    -0.296 C  
BRANCH  22  23
HETATM   23  C   UNL     1     -10.614  15.955  66.864  1.00  0.00    -0.309 C  
HETATM   24  C   UNL     1     -10.734  16.400  68.127  1.00  0.00    -0.336 C  
HETATM   25  C   UNL     1     -10.502  16.939  65.734  1.00  0.00    -0.279 C  
ENDBRANCH  22  23
ENDBRANCH   9  16
ENDBRANCH   5   6
ENDBRANCH   4   5
ENDBRANCH   3   4
ENDBRANCH   2   3
TORSDOF 6
ENDMDL
MODEL        6
REMARK 921   NORMALIZED FREE ENERGY PREDICTED BY IDOCK:   -6.18 KCAL/MOL
REMARK 922        TOTAL FREE ENERGY PREDICTED BY IDOCK:   -9.27 KCAL/MOL
REMARK 923 INTER-LIGAND FREE ENERGY PREDICTED BY IDOCK:   -8.20 KCAL/MOL
REMARK 924 INTRA-LIGAND FREE ENERGY PREDICTED BY IDOCK:   -1.07 KCAL/MOL
REMARK 927      BINDING AFFINITY PREDICTED BY RF-SCORE:    0.00 PKD
ROOT
HETATM    1  C   UNL     1     -11.610   6.479  70.592  1.00  0.00    -0.442 C  
HETATM    2  C   UNL     1     -12.357   6.967  71.822  1.00  0.00    -0.401 C  
ENDROOT
BRANCH   2   3
HETATM    3  C   UNL     1     -13.838   7.192  71.518  1.00  0.00    -0.421 C  
BRANCH   3   4
HETATM    4  C   UNL     1     -14.217   8.655  71.716  1.00  0.00    -0.490 C  
BRANCH   4   5
HETATM    5  C   UNL     1     -13.070   9.450  72.340  1.00  0.00    -0.458 C  
BRANCH   5   6
HETATM    6  C   UNL     1     -12.621  10.557  71.418  1.00  0.00    -0.539 A  
HETATM    7  C   UNL     1     -12.920  11.886  71.717  1.00  0.00    -0.455 A  
HETATM    8  C   UNL     1     -12.566  12.907  70.833  1.00  0.00    -0.270 A  
HETATM    9  C   UNL     1     -11.934  12.645  69.601  1.00  0.00    -0.352 A  
HETATM   10  O   UNL     1     -12.855  14.194  71.201  1.00  0.00    -0.326 OA 
HETATM   11  H   UNL     1     -10.721   9.971  68.047  1.00  0.00     0.000 HD 
HETATM   12  H   UNL     1     -12.614  14.888  70.599  1.00  0.00     0.000 HD 
HETATM   13  C   UNL     1     -11.603  11.301  69.343  1.00  0.00    -0.321 A  
HETATM   14  O   UNL     1     -10.944  10.878  68.220  1.00  0.00    -0.201 OA 
HETATM   15  C   UNL     1     -11.928  10.277  70.239  1.00  0.00    -0.348 A  
BRANCH   9  16
HETATM   16  C   UNL     1     -11.563  13.781  68.634  1.00  0.00    -0.369 C  
HETATM   17  C   UNL     1     -12.285  13.583  67.327  1.00  0.00    -0.305 C  
HETATM   18  C   UNL     1     -11.686  13.326  66.158  1.00  0.00    -0.416 C  
HETATM   19  C   UNL     1     -10.198  13.229  66.025  1.00  0.00    -0.291 C  
HETATM   20  C   UNL     1     -12.479  13.043  64.912  1.00  0.00    -0.512 C  
HETATM   21  C   UNL     1      -9.341  13.739  67.188  1.00  0.00    -0.240 C  
HETATM   22  C   UNL     1     -10.020  14.045  68.542  1.00  0.00    -0.230 C  
BRANCH  22  23
HETATM   23  C   UNL     1      -9.632  15.432  69.083  1.00  0.00    -0.253 C  
HETATM   24  C   UNL     1     -10.574  16.310  69.471  1.00  0.00    -0.314 C  
HETATM   25  C   UNL     1      -8.179  15.798  69.196  1.00  0.00    -0.247 C  
ENDBRANCH  22  23
ENDBRANCH   9  16
ENDBRANCH   5   6
ENDBRANCH   4   5
ENDBRANCH   3   4
ENDBRANCH   2   3
TORSDOF 6
ENDMDL
MODEL        7
REMARK 921   NORMALIZED FREE ENERGY PREDICTED BY IDOCK:   -6.16 KCAL/MOL
REMARK 922        TOTAL FREE ENERGY PREDICTED BY IDOCK:   -9.26 KCAL/MOL
REMARK 923 INTER-LIGAND FREE ENERGY PREDICTED BY IDOCK:   -8.20 KCAL/MOL
REMARK 924 INTRA-LIGAND FREE ENERGY PREDICTED BY IDOCK:   -1.05 KCAL/MOL
REMARK 927      BINDING AFFINITY PREDICTED BY RF-SCORE:    0.00 PKD
ROOT
HETATM    1  C   UNL     1     -10.901  19.348  67.338  1.00  0.00    -0.555 C  
HETATM    2  C   UNL     1      -9.854  20.331  66.844  1.00  0.00    -0.597 C  
ENDROOT
BRANCH   2   3
HETATM    3  C   UNL     1      -8.490  20.051  67.476  1.00  0.00    -0.393 C  
BRANCH   3   4
HETATM    4  C   UNL     1      -8.429  18.634  68.032  1.00  0.00    -0.314 C  
BRANCH   4   5
HETATM    5  C   UNL     1      -7.598  17.716  67.135  1.00  0.00    -0.227 C  
BRANCH   5   6
HETATM    6  C   UNL     1      -8.354  16.450  66.816  1.00  0.00    -0.285 A  
HETATM    7  C   UNL     1      -9.342  16.451  65.831  1.00  0.00    -0.262 A  
HETATM    8  C   UNL     1     -10.091  15.299  65.579  1.00  0.00    -0.375 A  
HETATM    9  C   UNL     1      -9.913  14.114  66.320  1.00  0.00    -0.315 A  
HETATM   10  O   UNL     1     -11.021  15.354  64.577  1.00  0.00    -0.651 OA 
HETATM   11  H   UNL     1      -7.841  13.053  68.691  1.00  0.00     0.000 HD 
HETATM   12  H   UNL     1     -11.530  14.570  64.406  1.00  0.00     0.000 HD 
HETATM   13  C   UNL     1      -8.880  14.125  67.276  1.00  0.00    -0.218 A  
HETATM   14  O   UNL     1      -8.538  13.045  68.046  1.00  0.00    -0.168 OA 
HETATM   15  C   UNL     1      -8.106  15.266  67.512  1.00  0.00    -0.192 A  
BRANCH   9  16
HETATM   16  C   UNL     1     -10.755  12.859  66.037  1.00  0.00    -0.296 C  
HETATM   17  C   UNL     1     -11.530  12.487  67.274  1.00  0.00    -0.416 C  
HETATM   18  C   UNL     1     -11.349  11.361  67.976  1.00  0.00    -0.372 C  
HETATM   19  C   UNL     1     -10.346  10.323  67.578  1.00  0.00    -0.276 C  
HETATM   20  C   UNL     1     -12.093  11.103  69.257  1.00  0.00    -0.377 C  
HETATM   21  C   UNL     1      -9.740  10.413  66.174  1.00  0.00    -0.262 C  
HETATM   22  C   UNL     1      -9.946  11.705  65.351  1.00  0.00    -0.287 C  
BRANCH  22  23
HETATM   23  C   UNL     1     -10.449  11.409  63.926  1.00  0.00    -0.444 C  
HETATM   24  C   UNL     1     -11.571  11.980  63.457  1.00  0.00    -0.553 C  
HETATM   25  C   UNL     1      -9.659  10.482  63.046  1.00  0.00    -0.369 C  
ENDBRANCH  22  23
ENDBRANCH   9  16
ENDBRANCH   5   6
ENDBRANCH   4   5
ENDBRANCH   3   4
ENDBRANCH   2   3
TORSDOF 6
ENDMDL
MODEL        8
REMARK 921   NORMALIZED FREE ENERGY PREDICTED BY IDOCK:   -6.07 KCAL/MOL
REMARK 922        TOTAL FREE ENERGY PREDICTED BY IDOCK:   -9.13 KCAL/MOL
REMARK 923 INTER-LIGAND FREE ENERGY PREDICTED BY IDOCK:   -8.07 KCAL/MOL
REMARK 924 INTRA-LIGAND FREE ENERGY PREDICTED BY IDOCK:   -1.07 KCAL/MOL
REMARK 927      BINDING AFFINITY PREDICTED BY RF-SCORE:    0.00 PKD
ROOT
HETATM    1  C   UNL     1     -11.437   6.224  70.612  1.00  0.00    -0.397 C  
HETATM    2  C   UNL     1     -11.974   7.012  71.794  1.00  0.00    -0.361 C  
ENDROOT
BRANCH   2   3
HETATM    3  C   UNL     1     -13.360   7.585  71.494  1.00  0.00    -0.409 C  
BRANCH   3   4
HETATM    4  C   UNL     1     -13.337   9.108  71.525  1.00  0.00    -0.416 C  
BRANCH   4   5
HETATM    5  C   UNL     1     -11.906   9.646  71.516  1.00  0.00    -0.483 C  
BRANCH   5   6
HETATM    6  C   UNL     1     -11.601  10.336  70.209  1.00  0.00    -0.396 A  
HETATM    7  C   UNL     1     -10.913   9.660  69.201  1.00  0.00    -0.177 A  
HETATM    8  C   UNL     1     -10.570  10.316  68.017  1.00  0.00    -0.231 A  
HETATM    9  C   UNL     1     -10.863  11.677  67.802  1.00  0.00    -0.264 A  
HETATM   10  O   UNL     1      -9.927   9.588  67.052  1.00  0.00    -0.186 OA 
HETATM   11  H   UNL     1     -12.505  14.064  69.430  1.00  0.00     0.000 HD 
HETATM   12  H   UNL     1      -9.694  10.035  66.247  1.00  0.00     0.000 HD 
HETATM   13  C   UNL     1     -11.597  12.324  68.815  1.00  0.00    -0.330 A  
HETATM   14  O   UNL     1     -12.010  13.628  68.747  1.00  0.00    -0.345 OA 
HETATM   15  C   UNL     1     -11.971  11.664  69.991  1.00  0.00    -0.429 A  
BRANCH   9  16
HETATM   16  C   UNL     1     -10.467  12.386  66.497  1.00  0.00    -0.254 C  
HETATM   17  C   UNL     1      -9.491  13.492  66.804  1.00  0.00    -0.272 C  
HETATM   18  C   UNL     1      -9.738  14.796  66.624  1.00  0.00    -0.281 C  
HETATM   19  C   UNL     1     -11.034  15.296  66.065  1.00  0.00    -0.317 C  
HETATM   20  C   UNL     1      -8.751  15.849  67.045  1.00  0.00    -0.248 C  
HETATM   21  C   UNL     1     -11.967  14.278  65.402  1.00  0.00    -0.383 C  
HETATM   22  C   UNL     1     -11.691  12.769  65.597  1.00  0.00    -0.443 C  
BRANCH  22  23
HETATM   23  C   UNL     1     -11.697  12.004  64.262  1.00  0.00    -0.425 C  
HETATM   24  C   UNL     1     -12.781  12.009  63.468  1.00  0.00    -0.567 C  
HETATM   25  C   UNL     1     -10.463  11.258  63.837  1.00  0.00    -0.452 C  
ENDBRANCH  22  23
ENDBRANCH   9  16
ENDBRANCH   5   6
ENDBRANCH   4   5
ENDBRANCH   3   4
ENDBRANCH   2   3
TORSDOF 6
ENDMDL
MODEL        9
REMARK 921   NORMALIZED FREE ENERGY PREDICTED BY IDOCK:   -6.07 KCAL/MOL
REMARK 922        TOTAL FREE ENERGY PREDICTED BY IDOCK:   -9.12 KCAL/MOL
REMARK 923 INTER-LIGAND FREE ENERGY PREDICTED BY IDOCK:   -8.05 KCAL/MOL
REMARK 924 INTRA-LIGAND FREE ENERGY PREDICTED BY IDOCK:   -1.08 KCAL/MOL
REMARK 927      BINDING AFFINITY PREDICTED BY RF-SCORE:    0.00 PKD
ROOT
HETATM    1  C   UNL     1      -8.780  10.740  65.126  1.00  0.00    -0.174 C  
HETATM    2  C   UNL     1     -10.274  10.656  64.863  1.00  0.00    -0.395 C  
ENDROOT
BRANCH   2   3
HETATM    3  C   UNL     1     -10.644  11.347  63.550  1.00  0.00    -0.468 C  
BRANCH   3   4
HETATM    4  C   UNL     1     -12.027  11.980  63.641  1.00  0.00    -0.612 C  
BRANCH   4   5
HETATM    5  C   UNL     1     -12.355  12.406  65.072  1.00  0.00    -0.441 C  
BRANCH   5   6
HETATM    6  C   UNL     1     -11.647  13.693  65.424  1.00  0.00    -0.334 A  
HETATM    7  C   UNL     1     -11.731  14.796  64.574  1.00  0.00    -0.398 A  
HETATM    8  C   UNL     1     -11.024  15.965  64.861  1.00  0.00    -0.411 A  
HETATM    9  C   UNL     1     -10.178  16.072  65.982  1.00  0.00    -0.360 A  
HETATM   10  O   UNL     1     -11.176  17.024  64.007  1.00  0.00    -1.118 OA 
HETATM   11  H   UNL     1      -9.397  14.167  68.590  1.00  0.00     0.000 HD 
HETATM   12  H   UNL     1     -10.695  17.819  64.203  1.00  0.00     0.000 HD 
HETATM   13  C   UNL     1     -10.146  14.961  66.848  1.00  0.00    -0.242 A  
HETATM   14  O   UNL     1      -9.418  14.916  68.007  1.00  0.00    -0.193 OA 
HETATM   15  C   UNL     1     -10.876  13.798  66.582  1.00  0.00    -0.288 A  
BRANCH   9  16
HETATM   16  C   UNL     1      -9.397  17.362  66.276  1.00  0.00    -0.240 C  
HETATM   17  C   UNL     1      -7.922  17.106  66.105  1.00  0.00    -0.297 C  
HETATM   18  C   UNL     1      -7.021  17.158  67.094  1.00  0.00    -0.211 C  
HETATM   19  C   UNL     1      -7.396  17.507  68.501  1.00  0.00    -0.243 C  
HETATM   20  C   UNL     1      -5.580  16.794  66.866  1.00  0.00    -0.152 C  
HETATM   21  C   UNL     1      -8.781  18.114  68.743  1.00  0.00    -0.227 C  
HETATM   22  C   UNL     1      -9.830  18.066  67.608  1.00  0.00    -0.305 C  
BRANCH  22  23
HETATM   23  C   UNL     1     -10.476  19.441  67.359  1.00  0.00    -0.581 C  
HETATM   24  C   UNL     1     -10.762  20.264  68.382  1.00  0.00     0.086 C  
HETATM   25  C   UNL     1     -10.769  19.871  65.949  1.00  0.00    -0.445 C  
ENDBRANCH  22  23
ENDBRANCH   9  16
ENDBRANCH   5   6
ENDBRANCH   4   5
ENDBRANCH   3   4
ENDBRANCH   2   3
TORSDOF 6
ENDMDL
MODEL       10
REMARK 921   NORMALIZED FREE ENERGY PREDICTED BY IDOCK:   -6.05 KCAL/MOL
REMARK 922        TOTAL FREE ENERGY PREDICTED BY IDOCK:   -9.11 KCAL/MOL
REMARK 923 INTER-LIGAND FREE ENERGY PREDICTED BY IDOCK:   -8.40 KCAL/MOL
REMARK 924 INTRA-LIGAND FREE ENERGY PREDICTED BY IDOCK:   -0.70 KCAL/MOL
REMARK 927      BINDING AFFINITY PREDICTED BY RF-SCORE:    0.00 PKD
ROOT
HETATM    1  C   UNL     1     -11.461   6.561  70.619  1.00  0.00    -0.433 C  
HETATM    2  C   UNL     1     -11.102   7.190  71.954  1.00  0.00    -0.268 C  
ENDROOT
BRANCH   2   3
HETATM    3  C   UNL     1     -12.117   8.262  72.351  1.00  0.00    -0.430 C  
BRANCH   3   4
HETATM    4  C   UNL     1     -12.373   9.223  71.196  1.00  0.00    -0.363 C  
BRANCH   4   5
HETATM    5  C   UNL     1     -12.634  10.644  71.698  1.00  0.00    -0.482 C  
BRANCH   5   6
HETATM    6  C   UNL     1     -12.361  11.655  70.610  1.00  0.00    -0.437 A  
HETATM    7  C   UNL     1     -12.700  12.995  70.796  1.00  0.00    -0.243 A  
HETATM    8  C   UNL     1     -12.511  13.921  69.768  1.00  0.00    -0.188 A  
HETATM    9  C   UNL     1     -12.014  13.546  68.505  1.00  0.00    -0.379 A  
HETATM   10  O   UNL     1     -12.831  15.227  70.024  1.00  0.00    -0.616 OA 
HETATM   11  H   UNL     1     -10.835  10.765  67.118  1.00  0.00     0.000 HD 
HETATM   12  H   UNL     1     -12.702  15.856  69.324  1.00  0.00     0.000 HD 
HETATM   13  C   UNL     1     -11.637  12.197  68.358  1.00  0.00    -0.327 A  
HETATM   14  O   UNL     1     -11.089  11.675  67.216  1.00  0.00    -0.256 OA 
HETATM   15  C   UNL     1     -11.795  11.270  69.394  1.00  0.00    -0.424 A  
BRANCH   9  16
HETATM   16  C   UNL     1     -11.824  14.576  67.380  1.00  0.00    -0.416 C  
HETATM   17  C   UNL     1     -12.469  14.065  66.118  1.00  0.00    -0.467 C  
HETATM   18  C   UNL     1     -11.806  13.752  64.998  1.00  0.00    -0.381 C  
HETATM   19  C   UNL     1     -10.321  13.901  64.878  1.00  0.00    -0.430 C  
HETATM   20  C   UNL     1     -12.507  13.154  63.809  1.00  0.00    -0.368 C  
HETATM   21  C   UNL     1      -9.595  14.718  65.951  1.00  0.00    -0.320 C  
HETATM   22  C   UNL     1     -10.350  15.093  67.247  1.00  0.00    -0.261 C  
BRANCH  22  23
HETATM   23  C   UNL     1     -10.225  16.591  67.577  1.00  0.00    -0.283 C  
HETATM   24  C   UNL     1      -9.949  17.002  68.826  1.00  0.00    -0.293 C  
HETATM   25  C   UNL     1     -10.395  17.603  66.479  1.00  0.00    -0.337 C  
ENDBRANCH  22  23
ENDBRANCH   9  16
ENDBRANCH   5   6
ENDBRANCH   4   5
ENDBRANCH   3   4
ENDBRANCH   2   3
TORSDOF 6
ENDMDL
MODEL       11
REMARK 921   NORMALIZED FREE ENERGY PREDICTED BY IDOCK:   -5.89 KCAL/MOL
REMARK 922        TOTAL FREE ENERGY PREDICTED BY IDOCK:   -8.89 KCAL/MOL
REMARK 923 INTER-LIGAND FREE ENERGY PREDICTED BY IDOCK:   -7.85 KCAL/MOL
REMARK 924 INTRA-LIGAND FREE ENERGY PREDICTED BY IDOCK:   -1.04 KCAL/MOL
REMARK 927      BINDING AFFINITY PREDICTED BY RF-SCORE:    0.00 PKD
ROOT
HETATM    1  C   UNL     1     -14.214   8.526  71.832  1.00  0.00    -0.536 C  
HETATM    2  C   UNL     1     -13.666   7.159  71.460  1.00  0.00    -0.413 C  
ENDROOT
BRANCH   2   3
HETATM    3  C   UNL     1     -12.155   7.087  71.688  1.00  0.00    -0.384 C  
BRANCH   3   4
HETATM    4  C   UNL     1     -11.632   8.391  72.278  1.00  0.00    -0.453 C  
BRANCH   4   5
HETATM    5  C   UNL     1     -10.191   8.663  71.844  1.00  0.00    -0.404 C  
BRANCH   5   6
HETATM    6  C   UNL     1     -10.159   9.497  70.586  1.00  0.00    -0.353 A  
HETATM    7  C   UNL     1      -8.965   9.661  69.883  1.00  0.00    -0.243 A  
HETATM    8  C   UNL     1      -8.916  10.486  68.757  1.00  0.00    -0.166 A  
HETATM    9  C   UNL     1     -10.039  11.208  68.308  1.00  0.00    -0.196 A  
HETATM   10  O   UNL     1      -7.724  10.578  68.091  1.00  0.00    -0.093 OA 
HETATM   11  H   UNL     1     -13.247  11.422  69.147  1.00  0.00     0.000 HD 
HETATM   12  H   UNL     1      -7.691  11.139  67.325  1.00  0.00     0.000 HD 
HETATM   13  C   UNL     1     -11.241  10.989  69.008  1.00  0.00    -0.258 A  
HETATM   14  O   UNL     1     -12.436  11.569  68.675  1.00  0.00    -0.335 OA 
HETATM   15  C   UNL     1     -11.305  10.141  70.118  1.00  0.00    -0.372 A  
BRANCH   9  16
HETATM   16  C   UNL     1      -9.963  12.121  67.074  1.00  0.00    -0.213 C  
HETATM   17  C   UNL     1      -9.964  13.562  67.516  1.00  0.00    -0.230 C  
HETATM   18  C   UNL     1     -10.937  14.440  67.246  1.00  0.00    -0.301 C  
HETATM   19  C   UNL     1     -12.144  14.075  66.438  1.00  0.00    -0.483 C  
HETATM   20  C   UNL     1     -10.915  15.836  67.804  1.00  0.00    -0.314 C  
HETATM   21  C   UNL     1     -12.108  12.761  65.652  1.00  0.00    -0.514 C  
HETATM   22  C   UNL     1     -10.986  11.739  65.950  1.00  0.00    -0.354 C  
BRANCH  22  23
HETATM   23  C   UNL     1     -10.288  11.257  64.665  1.00  0.00    -0.373 C  
HETATM   24  C   UNL     1     -10.346  11.981  63.534  1.00  0.00    -0.492 C  
HETATM   25  C   UNL     1      -9.515   9.968  64.687  1.00  0.00    -0.367 C  
ENDBRANCH  22  23
ENDBRANCH   9  16
ENDBRANCH   5   6
ENDBRANCH   4   5
ENDBRANCH   3   4
ENDBRANCH   2   3
TORSDOF 6
ENDMDL
MODEL       12
REMARK 921   NORMALIZED FREE ENERGY PREDICTED BY IDOCK:   -5.86 KCAL/MOL
REMARK 922        TOTAL FREE ENERGY PREDICTED BY IDOCK:   -8.84 KCAL/MOL
REMARK 923 INTER-LIGAND FREE ENERGY PREDICTED BY IDOCK:   -7.88 KCAL/MOL
REMARK 924 INTRA-LIGAND FREE ENERGY PREDICTED BY IDOCK:   -0.97 KCAL/MOL
REMARK 927      BINDING AFFINITY PREDICTED BY RF-SCORE:    0.00 PKD
ROOT
HETATM    1  C   UNL     1      -7.190  20.644  67.535  1.00  0.00    -0.382 C  
HETATM    2  C   UNL     1      -8.426  20.269  66.736  1.00  0.00    -0.326 C  
ENDROOT
BRANCH   2   3
HETATM    3  C   UNL     1      -9.692  20.389  67.586  1.00  0.00    -0.540 C  
BRANCH   3   4
HETATM    4  C   UNL     1     -10.699  19.306  67.217  1.00  0.00    -0.594 C  
BRANCH   4   5
HETATM    5  C   UNL     1     -10.414  18.726  65.832  1.00  0.00    -0.424 C  
BRANCH   5   6
HETATM    6  C   UNL     1     -10.518  17.220  65.850  1.00  0.00    -0.267 A  
HETATM    7  C   UNL     1     -11.236  16.553  64.857  1.00  0.00    -0.138 A  
HETATM    8  C   UNL     1     -11.391  15.166  64.907  1.00  0.00    -0.399 A  
HETATM    9  C   UNL     1     -10.871  14.393  65.963  1.00  0.00    -0.309 A  
HETATM   10  O   UNL     1     -12.076  14.568  63.885  1.00  0.00    -0.786 OA 
HETATM   11  H   UNL     1      -8.982  14.946  68.641  1.00  0.00     0.000 HD 
HETATM   12  H   UNL     1     -12.181  13.624  63.919  1.00  0.00     0.000 HD 
HETATM   13  C   UNL     1     -10.112  15.083  66.928  1.00  0.00    -0.249 A  
HETATM   14  O   UNL     1      -9.494  14.480  67.990  1.00  0.00    -0.199 OA 
HETATM   15  C   UNL     1      -9.927  16.468  66.867  1.00  0.00    -0.273 A  
BRANCH   9  16
HETATM   16  C   UNL     1     -11.062  12.868  66.009  1.00  0.00    -0.308 C  
HETATM   17  C   UNL     1     -11.841  12.497  67.244  1.00  0.00    -0.381 C  
HETATM   18  C   UNL     1     -11.357  11.770  68.259  1.00  0.00    -0.343 C  
HETATM   19  C   UNL     1      -9.964  11.221  68.257  1.00  0.00    -0.201 C  
HETATM   20  C   UNL     1     -12.162  11.523  69.504  1.00  0.00    -0.287 C  
HETATM   21  C   UNL     1      -9.191  11.234  66.935  1.00  0.00    -0.184 C  
HETATM   22  C   UNL     1      -9.741  12.064  65.753  1.00  0.00    -0.254 C  
BRANCH  22  23
HETATM   23  C   UNL     1      -9.799  11.247  64.449  1.00  0.00    -0.316 C  
HETATM   24  C   UNL     1     -10.142  11.826  63.286  1.00  0.00    -0.448 C  
HETATM   25  C   UNL     1      -9.446   9.787  64.480  1.00  0.00    -0.269 C  
ENDBRANCH  22  23
ENDBRANCH   9  16
ENDBRANCH   5   6
ENDBRANCH   4   5
ENDBRANCH   3   4
ENDBRANCH   2   3
TORSDOF 6
ENDMDL
MODEL       13
REMARK 921   NORMALIZED FREE ENERGY PREDICTED BY IDOCK:   -5.84 KCAL/MOL
REMARK 922        TOTAL FREE ENERGY PREDICTED BY IDOCK:   -8.81 KCAL/MOL
REMARK 923 INTER-LIGAND FREE ENERGY PREDICTED BY IDOCK:   -7.76 KCAL/MOL
REMARK 924 INTRA-LIGAND FREE ENERGY PREDICTED BY IDOCK:   -1.05 KCAL/MOL
REMARK 927      BINDING AFFINITY PREDICTED BY RF-SCORE:    0.00 PKD
ROOT
HETATM    1  C   UNL     1     -12.478  12.712  65.024  1.00  0.00    -0.556 C  
HETATM    2  C   UNL     1     -12.363  12.345  63.554  1.00  0.00    -0.648 C  
ENDROOT
BRANCH   2   3
HETATM    3  C   UNL     1     -11.113  11.506  63.290  1.00  0.00    -0.273 C  
BRANCH   3   4
HETATM    4  C   UNL     1     -10.135  11.605  64.455  1.00  0.00    -0.322 C  
BRANCH   4   5
HETATM    5  C   UNL     1      -9.716  10.221  64.952  1.00  0.00    -0.385 C  
BRANCH   5   6
HETATM    6  C   UNL     1     -10.038  10.058  66.418  1.00  0.00    -0.307 A  
HETATM    7  C   UNL     1     -10.163  11.179  67.239  1.00  0.00    -0.227 A  
HETATM    8  C   UNL     1     -10.394  11.031  68.608  1.00  0.00    -0.193 A  
HETATM    9  C   UNL     1     -10.473   9.765  69.221  1.00  0.00    -0.236 A  
HETATM   10  O   UNL     1     -10.542  12.170  69.353  1.00  0.00    -0.441 OA 
HETATM   11  H   UNL     1     -10.441   6.601  68.207  1.00  0.00     0.000 HD 
HETATM   12  H   UNL     1     -10.699  12.068  70.284  1.00  0.00     0.000 HD 
HETATM   13  C   UNL     1     -10.389   8.651  68.364  1.00  0.00    -0.201 A  
HETATM   14  O   UNL     1     -10.498   7.352  68.785  1.00  0.00    -0.203 OA 
HETATM   15  C   UNL     1     -10.188   8.793  66.987  1.00  0.00    -0.351 A  
BRANCH   9  16
HETATM   16  C   UNL     1     -10.716   9.621  70.732  1.00  0.00    -0.401 C  
HETATM   17  C   UNL     1      -9.436   9.202  71.407  1.00  0.00    -0.279 C  
HETATM   18  C   UNL     1      -9.251   8.030  72.028  1.00  0.00    -0.229 C  
HETATM   19  C   UNL     1     -10.333   7.001  72.134  1.00  0.00    -0.214 C  
HETATM   20  C   UNL     1      -7.914   7.642  72.594  1.00  0.00    -0.132 C  
HETATM   21  C   UNL     1     -11.764   7.429  71.794  1.00  0.00    -0.319 C  
HETATM   22  C   UNL     1     -11.993   8.783  71.083  1.00  0.00    -0.331 C  
BRANCH  22  23
HETATM   23  C   UNL     1     -13.072   9.629  71.783  1.00  0.00    -0.514 C  
HETATM   24  C   UNL     1     -14.011   9.051  72.551  1.00  0.00    -0.472 C  
HETATM   25  C   UNL     1     -13.058  11.122  71.618  1.00  0.00    -0.529 C  
ENDBRANCH  22  23
ENDBRANCH   9  16
ENDBRANCH   5   6
ENDBRANCH   4   5
ENDBRANCH   3   4
ENDBRANCH   2   3
TORSDOF 6
ENDMDL
MODEL       14
REMARK 921   NORMALIZED FREE ENERGY PREDICTED BY IDOCK:   -5.83 KCAL/MOL
REMARK 922        TOTAL FREE ENERGY PREDICTED BY IDOCK:   -8.81 KCAL/MOL
REMARK 923 INTER-LIGAND FREE ENERGY PREDICTED BY IDOCK:   -7.35 KCAL/MOL
REMARK 924 INTRA-LIGAND FREE ENERGY PREDICTED BY IDOCK:   -1.46 KCAL/MOL
REMARK 927      BINDING AFFINITY PREDICTED BY RF-SCORE:    0.00 PKD
ROOT
HETATM    1  C   UNL     1     -11.090   6.205  69.314  1.00  0.00    -0.463 C  
HETATM    2  C   UNL     1     -10.282   5.345  70.270  1.00  0.00    -0.338 C  
ENDROOT
BRANCH   2   3
HETATM    3  C   UNL     1     -10.745   5.538  71.715  1.00  0.00    -0.289 C  
BRANCH   3   4
HETATM    4  C   UNL     1      -9.681   6.256  72.536  1.00  0.00    -0.163 C  
BRANCH   4   5
HETATM    5  C   UNL     1     -10.209   7.570  73.111  1.00  0.00    -0.382 C  
BRANCH   5   6
HETATM    6  C   UNL     1     -10.460   8.574  72.011  1.00  0.00    -0.407 A  
HETATM    7  C   UNL     1     -11.742   9.081  71.802  1.00  0.00    -0.440 A  
HETATM    8  C   UNL     1     -11.992   9.957  70.744  1.00  0.00    -0.323 A  
HETATM    9  C   UNL     1     -10.987  10.336  69.832  1.00  0.00    -0.358 A  
HETATM   10  O   UNL     1     -13.263  10.447  70.613  1.00  0.00    -0.448 OA 
HETATM   11  H   UNL     1      -7.719   9.825  69.513  1.00  0.00     0.000 HD 
HETATM   12  H   UNL     1     -13.433  11.044  69.893  1.00  0.00     0.000 HD 
HETATM   13  C   UNL     1      -9.693   9.846  70.092  1.00  0.00    -0.202 A  
HETATM   14  O   UNL     1      -8.593  10.155  69.337  1.00  0.00    -0.154 OA 
HETATM   15  C   UNL     1      -9.430   8.992  71.168  1.00  0.00    -0.348 A  
BRANCH   9  16
HETATM   16  C   UNL     1     -11.283  11.292  68.666  1.00  0.00    -0.310 C  
HETATM   17  C   UNL     1     -11.059  10.575  67.360  1.00  0.00    -0.322 C  
HETATM   18  C   UNL     1     -10.111  10.893  66.470  1.00  0.00    -0.269 C  
HETATM   19  C   UNL     1      -9.167  12.037  66.679  1.00  0.00    -0.211 C  
HETATM   20  C   UNL     1      -9.884  10.069  65.233  1.00  0.00    -0.388 C  
HETATM   21  C   UNL     1      -9.499  13.044  67.784  1.00  0.00    -0.209 C  
HETATM   22  C   UNL     1     -10.596  12.693  68.816  1.00  0.00    -0.214 C  
BRANCH  22  23
HETATM   23  C   UNL     1     -11.619  13.830  68.982  1.00  0.00    -0.356 C  
HETATM   24  C   UNL     1     -11.835  14.715  67.993  1.00  0.00    -0.343 C  
HETATM   25  C   UNL     1     -12.400  13.937  70.261  1.00  0.00    -0.413 C  
ENDBRANCH  22  23
ENDBRANCH   9  16
ENDBRANCH   5   6
ENDBRANCH   4   5
ENDBRANCH   3   4
ENDBRANCH   2   3
TORSDOF 6
ENDMDL
MODEL       15
REMARK 921   NORMALIZED FREE ENERGY PREDICTED BY IDOCK:   -5.81 KCAL/MOL
REMARK 922        TOTAL FREE ENERGY PREDICTED BY IDOCK:   -8.78 KCAL/MOL
REMARK 923 INTER-LIGAND FREE ENERGY PREDICTED BY IDOCK:   -7.85 KCAL/MOL
REMARK 924 INTRA-LIGAND FREE ENERGY PREDICTED BY IDOCK:   -0.93 KCAL/MOL
REMARK 927      BINDING AFFINITY PREDICTED BY RF-SCORE:    0.00 PKD
ROOT
HETATM    1  C   UNL     1     -12.373  15.573  74.535  1.00  0.00    -0.756 C  
HETATM    2  C   UNL     1     -12.618  16.099  73.131  1.00  0.00    -0.599 C  
ENDROOT
BRANCH   2   3
HETATM    3  C   UNL     1     -13.991  15.672  72.612  1.00  0.00    -0.608 C  
BRANCH   3   4
HETATM    4  C   UNL     1     -13.859  14.852  71.334  1.00  0.00    -0.537 C  
BRANCH   4   5
HETATM    5  C   UNL     1     -13.028  13.589  71.563  1.00  0.00    -0.440 C  
BRANCH   5   6
HETATM    6  C   UNL     1     -12.133  13.314  70.379  1.00  0.00    -0.401 A  
HETATM    7  C   UNL     1     -11.280  14.307  69.898  1.00  0.00    -0.194 A  
HETATM    8  C   UNL     1     -10.500  14.079  68.762  1.00  0.00    -0.233 A  
HETATM    9  C   UNL     1     -10.564  12.872  68.040  1.00  0.00    -0.238 A  
HETATM   10  O   UNL     1      -9.657  15.080  68.361  1.00  0.00    -0.200 OA 
HETATM   11  H   UNL     1     -12.102   9.946  68.386  1.00  0.00     0.000 HD 
HETATM   12  H   UNL     1      -9.126  14.925  67.588  1.00  0.00     0.000 HD 
HETATM   13  C   UNL     1     -11.398  11.870  68.572  1.00  0.00    -0.276 A  
HETATM   14  O   UNL     1     -11.539  10.622  68.026  1.00  0.00    -0.464 OA 
HETATM   15  C   UNL     1     -12.160  12.081  69.727  1.00  0.00    -0.317 A  
BRANCH   9  16
HETATM   16  C   UNL     1      -9.707  12.643  66.785  1.00  0.00    -0.240 C  
HETATM   17  C   UNL     1     -10.557  12.835  65.555  1.00  0.00    -0.303 C  
HETATM   18  C   UNL     1     -10.859  11.869  64.680  1.00  0.00    -0.363 C  
HETATM   19  C   UNL     1     -10.351  10.468  64.827  1.00  0.00    -0.300 C  
HETATM   20  C   UNL     1     -11.795  12.114  63.528  1.00  0.00    -0.597 C  
HETATM   21  C   UNL     1      -9.218  10.219  65.827  1.00  0.00    -0.215 C  
HETATM   22  C   UNL     1      -8.854  11.329  66.840  1.00  0.00    -0.165 C  
BRANCH  22  23
HETATM   23  C   UNL     1      -7.342  11.616  66.866  1.00  0.00    -0.125 C  
HETATM   24  C   UNL     1      -6.477  10.818  66.216  1.00  0.00    -0.134 C  
HETATM   25  C   UNL     1      -6.834  12.816  67.614  1.00  0.00    -0.147 C  
ENDBRANCH  22  23
ENDBRANCH   9  16
ENDBRANCH   5   6
ENDBRANCH   4   5
ENDBRANCH   3   4
ENDBRANCH   2   3
TORSDOF 6
ENDMDL
MODEL       16
REMARK 921   NORMALIZED FREE ENERGY PREDICTED BY IDOCK:   -5.81 KCAL/MOL
REMARK 922        TOTAL FREE ENERGY PREDICTED BY IDOCK:   -8.78 KCAL/MOL
REMARK 923 INTER-LIGAND FREE ENERGY PREDICTED BY IDOCK:   -7.78 KCAL/MOL
REMARK 924 INTRA-LIGAND FREE ENERGY PREDICTED BY IDOCK:   -1.00 KCAL/MOL
REMARK 927      BINDING AFFINITY PREDICTED BY RF-SCORE:    0.00 PKD
ROOT
HETATM    1  C   UNL     1     -14.113   8.469  71.867  1.00  0.00    -0.519 C  
HETATM    2  C   UNL     1     -12.863   7.658  71.576  1.00  0.00    -0.376 C  
ENDROOT
BRANCH   2   3
HETATM    3  C   UNL     1     -11.740   8.000  72.556  1.00  0.00    -0.446 C  
BRANCH   3   4
HETATM    4  C   UNL     1     -10.665   8.842  71.879  1.00  0.00    -0.429 C  
BRANCH   4   5
HETATM    5  C   UNL     1     -10.818   8.826  70.358  1.00  0.00    -0.256 C  
BRANCH   5   6
HETATM    6  C   UNL     1     -10.953  10.230  69.818  1.00  0.00    -0.338 A  
HETATM    7  C   UNL     1     -11.801  11.144  70.444  1.00  0.00    -0.462 A  
HETATM    8  C   UNL     1     -11.981  12.421  69.909  1.00  0.00    -0.299 A  
HETATM    9  C   UNL     1     -11.356  12.828  68.714  1.00  0.00    -0.332 A  
HETATM   10  O   UNL     1     -12.798  13.284  70.589  1.00  0.00    -0.183 OA 
HETATM   11  H   UNL     1      -9.146  11.529  66.599  1.00  0.00     0.000 HD 
HETATM   12  H   UNL     1     -12.920  14.153  70.225  1.00  0.00     0.000 HD 
HETATM   13  C   UNL     1     -10.471  11.903  68.128  1.00  0.00    -0.207 A  
HETATM   14  O   UNL     1      -9.743  12.153  66.994  1.00  0.00    -0.197 OA 
HETATM   15  C   UNL     1     -10.263  10.632  68.674  1.00  0.00    -0.196 A  
BRANCH   9  16
HETATM   16  C   UNL     1     -11.575  14.234  68.134  1.00  0.00    -0.365 C  
HETATM   17  C   UNL     1     -12.161  14.120  66.750  1.00  0.00    -0.429 C  
HETATM   18  C   UNL     1     -11.544  14.507  65.628  1.00  0.00    -0.344 C  
HETATM   19  C   UNL     1     -10.182  15.129  65.636  1.00  0.00    -0.387 C  
HETATM   20  C   UNL     1     -12.153  14.271  64.273  1.00  0.00    -0.467 C  
HETATM   21  C   UNL     1      -9.624  15.609  66.979  1.00  0.00    -0.233 C  
HETATM   22  C   UNL     1     -10.330  15.174  68.284  1.00  0.00    -0.231 C  
BRANCH  22  23
HETATM   23  C   UNL     1     -10.608  16.367  69.216  1.00  0.00    -0.311 C  
HETATM   24  C   UNL     1     -11.247  16.194  70.386  1.00  0.00    -0.394 C  
HETATM   25  C   UNL     1     -10.140  17.738  68.817  1.00  0.00    -0.381 C  
ENDBRANCH  22  23
ENDBRANCH   9  16
ENDBRANCH   5   6
ENDBRANCH   4   5
ENDBRANCH   3   4
ENDBRANCH   2   3
TORSDOF 6
ENDMDL
MODEL       17
REMARK 921   NORMALIZED FREE ENERGY PREDICTED BY IDOCK:   -5.80 KCAL/MOL
REMARK 922        TOTAL FREE ENERGY PREDICTED BY IDOCK:   -8.76 KCAL/MOL
REMARK 923 INTER-LIGAND FREE ENERGY PREDICTED BY IDOCK:   -7.73 KCAL/MOL
REMARK 924 INTRA-LIGAND FREE ENERGY PREDICTED BY IDOCK:   -1.03 KCAL/MOL
REMARK 927      BINDING AFFINITY PREDICTED BY RF-SCORE:    0.00 PKD
ROOT
HETATM    1  C   UNL     1      -9.804  10.890  63.117  1.00  0.00    -0.392 C  
HETATM    2  C   UNL     1     -10.167  12.215  63.765  1.00  0.00    -0.449 C  
ENDROOT
BRANCH   2   3
HETATM    3  C   UNL     1     -11.650  12.536  63.577  1.00  0.00    -0.584 C  
BRANCH   3   4
HETATM    4  C   UNL     1     -12.356  12.652  64.922  1.00  0.00    -0.563 C  
BRANCH   4   5
HETATM    5  C   UNL     1     -11.406  13.152  66.011  1.00  0.00    -0.337 C  
BRANCH   5   6
HETATM    6  C   UNL     1     -11.424  12.227  67.204  1.00  0.00    -0.419 A  
HETATM    7  C   UNL     1     -11.749  12.718  68.469  1.00  0.00    -0.371 A  
HETATM    8  C   UNL     1     -11.702  11.881  69.585  1.00  0.00    -0.343 A  
HETATM    9  C   UNL     1     -11.294  10.536  69.496  1.00  0.00    -0.341 A  
HETATM   10  O   UNL     1     -12.066  12.413  70.793  1.00  0.00    -0.456 OA 
HETATM   11  H   UNL     1     -10.467   8.435  67.058  1.00  0.00     0.000 HD 
HETATM   12  H   UNL     1     -12.034  11.844  71.552  1.00  0.00     0.000 HD 
HETATM   13  C   UNL     1     -11.015  10.053  68.203  1.00  0.00    -0.235 A  
HETATM   14  O   UNL     1     -10.655   8.760  67.930  1.00  0.00    -0.229 OA 
HETATM   15  C   UNL     1     -11.090  10.878  67.076  1.00  0.00    -0.271 A  
BRANCH   9  16
HETATM   16  C   UNL     1     -11.236   9.632  70.738  1.00  0.00    -0.403 C  
HETATM   17  C   UNL     1      -9.799   9.427  71.142  1.00  0.00    -0.287 C  
HETATM   18  C   UNL     1      -9.160   8.251  71.111  1.00  0.00    -0.198 C  
HETATM   19  C   UNL     1      -9.834   6.985  70.682  1.00  0.00    -0.187 C  
HETATM   20  C   UNL     1      -7.696   8.141  71.436  1.00  0.00    -0.098 C  
HETATM   21  C   UNL     1     -11.362   6.989  70.573  1.00  0.00    -0.355 C  
HETATM   22  C   UNL     1     -12.113   8.340  70.613  1.00  0.00     0.039 C  
BRANCH  22  23
HETATM   23  C   UNL     1     -13.277   8.325  71.621  1.00  0.00    -0.349 C  
HETATM   24  C   UNL     1     -14.020   7.219  71.801  1.00  0.00    -0.446 C  
HETATM   25  C   UNL     1     -13.569   9.559  72.426  1.00  0.00    -0.459 C  
ENDBRANCH  22  23
ENDBRANCH   9  16
ENDBRANCH   5   6
ENDBRANCH   4   5
ENDBRANCH   3   4
ENDBRANCH   2   3
TORSDOF 6
ENDMDL
MODEL       18
REMARK 921   NORMALIZED FREE ENERGY PREDICTED BY IDOCK:   -5.76 KCAL/MOL
REMARK 922        TOTAL FREE ENERGY PREDICTED BY IDOCK:   -8.71 KCAL/MOL
REMARK 923 INTER-LIGAND FREE ENERGY PREDICTED BY IDOCK:   -8.19 KCAL/MOL
REMARK 924 INTRA-LIGAND FREE ENERGY PREDICTED BY IDOCK:   -0.53 KCAL/MOL
REMARK 927      BINDING AFFINITY PREDICTED BY RF-SCORE:    0.00 PKD
ROOT
HETATM    1  C   UNL     1      -9.588  20.122  66.501  1.00  0.00    -0.529 C  
HETATM    2  C   UNL     1     -10.240  19.688  67.803  1.00  0.00    -0.565 C  
ENDROOT
BRANCH   2   3
HETATM    3  C   UNL     1     -10.646  18.215  67.754  1.00  0.00    -0.407 C  
BRANCH   3   4
HETATM    4  C   UNL     1      -9.638  17.399  66.954  1.00  0.00    -0.279 C  
BRANCH   4   5
HETATM    5  C   UNL     1     -10.324  16.581  65.859  1.00  0.00    -0.365 C  
BRANCH   5   6
HETATM    6  C   UNL     1     -10.612  15.179  66.338  1.00  0.00    -0.305 A  
HETATM    7  C   UNL     1      -9.930  14.658  67.438  1.00  0.00    -0.231 A  
HETATM    8  C   UNL     1     -10.145  13.339  67.843  1.00  0.00    -0.235 A  
HETATM    9  C   UNL     1     -11.017  12.476  67.151  1.00  0.00    -0.302 A  
HETATM   10  O   UNL     1      -9.472  12.899  68.950  1.00  0.00    -0.402 OA 
HETATM   11  H   UNL     1     -13.128  12.738  64.598  1.00  0.00     0.000 HD 
HETATM   12  H   UNL     1      -9.618  12.001  69.226  1.00  0.00     0.000 HD 
HETATM   13  C   UNL     1     -11.726  13.039  66.073  1.00  0.00    -0.393 A  
HETATM   14  O   UNL     1     -12.649  12.358  65.325  1.00  0.00    -0.636 OA 
HETATM   15  C   UNL     1     -11.539  14.369  65.680  1.00  0.00    -0.347 A  
BRANCH   9  16
HETATM   16  C   UNL     1     -11.232  11.023  67.603  1.00  0.00    -0.373 C  
HETATM   17  C   UNL     1     -12.089  11.006  68.843  1.00  0.00    -0.239 C  
HETATM   18  C   UNL     1     -11.677  10.589  70.046  1.00  0.00    -0.394 C  
HETATM   19  C   UNL     1     -10.295  10.065  70.283  1.00  0.00    -0.301 C  
HETATM   20  C   UNL     1     -12.560  10.693  71.259  1.00  0.00    -0.533 C  
HETATM   21  C   UNL     1      -9.444   9.714  69.059  1.00  0.00    -0.168 C  
HETATM   22  C   UNL     1      -9.909  10.184  67.662  1.00  0.00    -0.201 C  
BRANCH  22  23
HETATM   23  C   UNL     1      -9.900   9.038  66.634  1.00  0.00    -0.316 C  
HETATM   24  C   UNL     1     -10.404   7.831  66.941  1.00  0.00    -0.396 C  
HETATM   25  C   UNL     1      -9.334   9.284  65.264  1.00  0.00    -0.269 C  
ENDBRANCH  22  23
ENDBRANCH   9  16
ENDBRANCH   5   6
ENDBRANCH   4   5
ENDBRANCH   3   4
ENDBRANCH   2   3
TORSDOF 6
ENDMDL
MODEL       19
REMARK 921   NORMALIZED FREE ENERGY PREDICTED BY IDOCK:   -5.75 KCAL/MOL
REMARK 922        TOTAL FREE ENERGY PREDICTED BY IDOCK:   -8.70 KCAL/MOL
REMARK 923 INTER-LIGAND FREE ENERGY PREDICTED BY IDOCK:   -7.54 KCAL/MOL
REMARK 924 INTRA-LIGAND FREE ENERGY PREDICTED BY IDOCK:   -1.16 KCAL/MOL
REMARK 927      BINDING AFFINITY PREDICTED BY RF-SCORE:    0.00 PKD
ROOT
HETATM    1  C   UNL     1      -7.627  19.642  68.495  1.00  0.00    -0.372 C  
HETATM    2  C   UNL     1      -8.178  20.115  67.160  1.00  0.00    -0.378 C  
ENDROOT
BRANCH   2   3
HETATM    3  C   UNL     1      -9.629  20.577  67.292  1.00  0.00    -0.580 C  
BRANCH   3   4
HETATM    4  C   UNL     1     -10.570  19.384  67.419  1.00  0.00    -0.603 C  
BRANCH   4   5
HETATM    5  C   UNL     1     -10.368  18.388  66.277  1.00  0.00    -0.440 C  
BRANCH   5   6
HETATM    6  C   UNL     1     -10.302  16.975  66.803  1.00  0.00    -0.302 A  
HETATM    7  C   UNL     1      -9.985  16.737  68.141  1.00  0.00    -0.270 A  
HETATM    8  C   UNL     1      -9.857  15.431  68.615  1.00  0.00    -0.208 A  
HETATM    9  C   UNL     1     -10.003  14.311  67.773  1.00  0.00    -0.227 A  
HETATM   10  O   UNL     1      -9.580  15.263  69.945  1.00  0.00    -0.439 OA 
HETATM   11  H   UNL     1     -10.844  13.785  64.602  1.00  0.00     0.000 HD 
HETATM   12  H   UNL     1      -9.493  14.374  70.268  1.00  0.00     0.000 HD 
HETATM   13  C   UNL     1     -10.367  14.576  66.439  1.00  0.00    -0.293 A  
HETATM   14  O   UNL     1     -10.598  13.605  65.502  1.00  0.00    -0.280 OA 
HETATM   15  C   UNL     1     -10.526  15.882  65.965  1.00  0.00    -0.357 A  
BRANCH   9  16
HETATM   16  C   UNL     1      -9.847  12.879  68.311  1.00  0.00    -0.228 C  
HETATM   17  C   UNL     1      -8.676  12.214  67.634  1.00  0.00    -0.172 C  
HETATM   18  C   UNL     1      -8.768  11.157  66.819  1.00  0.00    -0.157 C  
HETATM   19  C   UNL     1     -10.076  10.498  66.506  1.00  0.00    -0.280 C  
HETATM   20  C   UNL     1      -7.566  10.609  66.101  1.00  0.00    -0.138 C  
HETATM   21  C   UNL     1     -11.282  10.853  67.381  1.00  0.00    -0.345 C  
HETATM   22  C   UNL     1     -11.188  12.069  68.332  1.00  0.00    -0.313 C  
BRANCH  22  23
HETATM   23  C   UNL     1     -11.637  11.720  69.762  1.00  0.00    -0.372 C  
HETATM   24  C   UNL     1     -11.462  10.483  70.258  1.00  0.00    -0.416 C  
HETATM   25  C   UNL     1     -12.260  12.786  70.618  1.00  0.00    -0.374 C  
ENDBRANCH  22  23
ENDBRANCH   9  16
ENDBRANCH   5   6
ENDBRANCH   4   5
ENDBRANCH   3   4
ENDBRANCH   2   3
TORSDOF 6
ENDMDL
MODEL       20
REMARK 921   NORMALIZED FREE ENERGY PREDICTED BY IDOCK:   -5.75 KCAL/MOL
REMARK 922        TOTAL FREE ENERGY PREDICTED BY IDOCK:   -8.69 KCAL/MOL
REMARK 923 INTER-LIGAND FREE ENERGY PREDICTED BY IDOCK:   -8.47 KCAL/MOL
REMARK 924 INTRA-LIGAND FREE ENERGY PREDICTED BY IDOCK:   -0.22 KCAL/MOL
REMARK 927      BINDING AFFINITY PREDICTED BY RF-SCORE:    0.00 PKD
ROOT
HETATM    1  C   UNL     1     -11.505   6.577  70.254  1.00  0.00    -0.474 C  
HETATM    2  C   UNL     1     -11.853   7.380  71.496  1.00  0.00    -0.327 C  
ENDROOT
BRANCH   2   3
HETATM    3  C   UNL     1     -13.317   7.819  71.479  1.00  0.00    -0.365 C  
BRANCH   3   4
HETATM    4  C   UNL     1     -13.429   9.339  71.491  1.00  0.00    -0.437 C  
BRANCH   4   5
HETATM    5  C   UNL     1     -12.054  10.002  71.412  1.00  0.00    -0.498 C  
BRANCH   5   6
HETATM    6  C   UNL     1     -12.050  11.108  70.385  1.00  0.00    -0.475 A  
HETATM    7  C   UNL     1     -11.681  10.842  69.067  1.00  0.00    -0.357 A  
HETATM    8  C   UNL     1     -11.611  11.874  68.129  1.00  0.00    -0.334 A  
HETATM    9  C   UNL     1     -11.869  13.216  68.473  1.00  0.00    -0.377 A  
HETATM   10  O   UNL     1     -11.277  11.543  66.844  1.00  0.00    -0.299 OA 
HETATM   11  H   UNL     1     -12.901  14.845  71.179  1.00  0.00     0.000 HD 
HETATM   12  H   UNL     1     -11.230  12.246  66.207  1.00  0.00     0.000 HD 
HETATM   13  C   UNL     1     -12.283  13.452  69.798  1.00  0.00    -0.245 A  
HETATM   14  O   UNL     1     -12.622  14.686  70.285  1.00  0.00    -0.342 OA 
HETATM   15  C   UNL     1     -12.384  12.417  70.734  1.00  0.00    -0.377 A  
BRANCH   9  16
HETATM   16  C   UNL     1     -11.776  14.342  67.431  1.00  0.00    -0.422 C  
HETATM   17  C   UNL     1     -12.436  13.897  66.152  1.00  0.00    -0.478 C  
HETATM   18  C   UNL     1     -11.798  13.712  64.990  1.00  0.00    -0.379 C  
HETATM   19  C   UNL     1     -10.328  13.955  64.836  1.00  0.00    -0.430 C  
HETATM   20  C   UNL     1     -12.507  13.173  63.779  1.00  0.00    -0.368 C  
HETATM   21  C   UNL     1      -9.610  14.724  65.949  1.00  0.00    -0.320 C  
HETATM   22  C   UNL     1     -10.338  14.950  67.295  1.00  0.00    -0.251 C  
BRANCH  22  23
HETATM   23  C   UNL     1     -10.282  16.422  67.741  1.00  0.00    -0.274 C  
HETATM   24  C   UNL     1     -10.254  16.747  69.045  1.00  0.00    -0.310 C  
HETATM   25  C   UNL     1     -10.239  17.506  66.701  1.00  0.00    -0.332 C  
ENDBRANCH  22  23
ENDBRANCH   9  16
ENDBRANCH   5   6
ENDBRANCH   4   5
ENDBRANCH   3   4
ENDBRANCH   2   3
TORSDOF 6
ENDMDL
MODEL       21
REMARK 921   NORMALIZED FREE ENERGY PREDICTED BY IDOCK:   -5.68 KCAL/MOL
REMARK 922        TOTAL FREE ENERGY PREDICTED BY IDOCK:   -8.60 KCAL/MOL
REMARK 923 INTER-LIGAND FREE ENERGY PREDICTED BY IDOCK:   -7.52 KCAL/MOL
REMARK 924 INTRA-LIGAND FREE ENERGY PREDICTED BY IDOCK:   -1.08 KCAL/MOL
REMARK 927      BINDING AFFINITY PREDICTED BY RF-SCORE:    0.00 PKD
ROOT
HETATM    1  C   UNL     1     -10.329  19.844  66.040  1.00  0.00    -0.591 C  
HETATM    2  C   UNL     1      -9.598  20.205  67.322  1.00  0.00    -0.555 C  
ENDROOT
BRANCH   2   3
HETATM    3  C   UNL     1      -8.093  20.333  67.083  1.00  0.00    -0.379 C  
BRANCH   3   4
HETATM    4  C   UNL     1      -7.320  19.345  67.947  1.00  0.00    -0.295 C  
BRANCH   4   5
HETATM    5  C   UNL     1      -6.720  18.216  67.108  1.00  0.00    -0.205 C  
BRANCH   5   6
HETATM    6  C   UNL     1      -7.599  16.989  67.154  1.00  0.00    -0.205 A  
HETATM    7  C   UNL     1      -7.402  16.021  68.138  1.00  0.00    -0.133 A  
HETATM    8  C   UNL     1      -8.167  14.853  68.143  1.00  0.00    -0.139 A  
HETATM    9  C   UNL     1      -9.131  14.584  67.152  1.00  0.00    -0.237 A  
HETATM   10  O   UNL     1      -7.951  13.958  69.156  1.00  0.00    -0.333 OA 
HETATM   11  H   UNL     1     -10.414  16.206  64.550  1.00  0.00     0.000 HD 
HETATM   12  H   UNL     1      -8.472  13.163  69.160  1.00  0.00     0.000 HD 
HETATM   13  C   UNL     1      -9.341  15.597  66.196  1.00  0.00    -0.347 A  
HETATM   14  O   UNL     1     -10.272  15.522  65.194  1.00  0.00    -0.359 OA 
HETATM   15  C   UNL     1      -8.599  16.783  66.203  1.00  0.00    -0.299 A  
BRANCH   9  16
HETATM   16  C   UNL     1      -9.955  13.287  67.166  1.00  0.00    -0.238 C  
HETATM   17  C   UNL     1      -9.682  12.505  65.908  1.00  0.00    -0.226 C  
HETATM   18  C   UNL     1     -10.589  12.253  64.956  1.00  0.00    -0.322 C  
HETATM   19  C   UNL     1     -12.009  12.716  65.061  1.00  0.00    -0.467 C  
HETATM   20  C   UNL     1     -10.217  11.549  63.681  1.00  0.00    -0.450 C  
HETATM   21  C   UNL     1     -12.499  13.219  66.422  1.00  0.00    -0.231 C  
HETATM   22  C   UNL     1     -11.463  13.509  67.532  1.00  0.00    -0.361 C  
BRANCH  22  23
HETATM   23  C   UNL     1     -11.844  12.843  68.866  1.00  0.00    -0.352 C  
HETATM   24  C   UNL     1     -11.954  11.507  68.964  1.00  0.00    -0.377 C  
HETATM   25  C   UNL     1     -12.074  13.701  70.078  1.00  0.00    -0.417 C  
ENDBRANCH  22  23
ENDBRANCH   9  16
ENDBRANCH   5   6
ENDBRANCH   4   5
ENDBRANCH   3   4
ENDBRANCH   2   3
TORSDOF 6
ENDMDL
MODEL       22
REMARK 921   NORMALIZED FREE ENERGY PREDICTED BY IDOCK:   -5.67 KCAL/MOL
REMARK 922        TOTAL FREE ENERGY PREDICTED BY IDOCK:   -8.59 KCAL/MOL
REMARK 923 INTER-LIGAND FREE ENERGY PREDICTED BY IDOCK:   -7.77 KCAL/MOL
REMARK 924 INTRA-LIGAND FREE ENERGY PREDICTED BY IDOCK:   -0.81 KCAL/MOL
REMARK 927      BINDING AFFINITY PREDICTED BY RF-SCORE:    0.00 PKD
ROOT
HETATM    1  C   UNL     1      -8.583  19.213  68.405  1.00  0.00    -0.387 C  
HETATM    2  C   UNL     1      -9.388  20.024  67.404  1.00  0.00    -0.492 C  
ENDROOT
BRANCH   2   3
HETATM    3  C   UNL     1     -10.617  19.250  66.925  1.00  0.00    -0.557 C  
BRANCH   3   4
HETATM    4  C   UNL     1     -10.483  17.766  67.247  1.00  0.00    -0.356 C  
BRANCH   4   5
HETATM    5  C   UNL     1     -10.514  16.914  65.978  1.00  0.00    -0.297 C  
BRANCH   5   6
HETATM    6  C   UNL     1     -10.651  15.450  66.319  1.00  0.00    -0.311 A  
HETATM    7  C   UNL     1     -11.596  14.661  65.664  1.00  0.00    -0.328 A  
HETATM    8  C   UNL     1     -11.773  13.323  66.024  1.00  0.00    -0.368 A  
HETATM    9  C   UNL     1     -11.043  12.727  67.071  1.00  0.00    -0.316 A  
HETATM   10  O   UNL     1     -12.691  12.593  65.319  1.00  0.00    -0.652 OA 
HETATM   11  H   UNL     1      -8.573  13.639  69.098  1.00  0.00     0.000 HD 
HETATM   12  H   UNL     1     -12.811  11.682  65.564  1.00  0.00     0.000 HD 
HETATM   13  C   UNL     1     -10.064  13.531  67.686  1.00  0.00    -0.229 A  
HETATM   14  O   UNL     1      -9.234  13.097  68.684  1.00  0.00    -0.109 OA 
HETATM   15  C   UNL     1      -9.862  14.863  67.310  1.00  0.00    -0.229 A  
BRANCH   9  16
HETATM   16  C   UNL     1     -11.259  11.256  67.462  1.00  0.00    -0.357 C  
HETATM   17  C   UNL     1     -12.084  11.187  68.721  1.00  0.00    -0.232 C  
HETATM   18  C   UNL     1     -11.645  10.713  69.893  1.00  0.00    -0.396 C  
HETATM   19  C   UNL     1     -10.262  10.168  70.069  1.00  0.00    -0.271 C  
HETATM   20  C   UNL     1     -12.496  10.767  71.132  1.00  0.00    -0.519 C  
HETATM   21  C   UNL     1      -9.445   9.868  68.808  1.00  0.00    -0.157 C  
HETATM   22  C   UNL     1      -9.943  10.406  67.447  1.00  0.00    -0.226 C  
BRANCH  22  23
HETATM   23  C   UNL     1      -9.969   9.309  66.367  1.00  0.00    -0.356 C  
HETATM   24  C   UNL     1      -9.614   9.580  65.099  1.00  0.00    -0.270 C  
HETATM   25  C   UNL     1     -10.379   7.914  66.745  1.00  0.00    -0.357 C  
ENDBRANCH  22  23
ENDBRANCH   9  16
ENDBRANCH   5   6
ENDBRANCH   4   5
ENDBRANCH   3   4
ENDBRANCH   2   3
TORSDOF 6
ENDMDL
MODEL       23
REMARK 921   NORMALIZED FREE ENERGY PREDICTED BY IDOCK:   -5.66 KCAL/MOL
REMARK 922        TOTAL FREE ENERGY PREDICTED BY IDOCK:   -8.58 KCAL/MOL
REMARK 923 INTER-LIGAND FREE ENERGY PREDICTED BY IDOCK:   -7.49 KCAL/MOL
REMARK 924 INTRA-LIGAND FREE ENERGY PREDICTED BY IDOCK:   -1.09 KCAL/MOL
REMARK 927      BINDING AFFINITY PREDICTED BY RF-SCORE:    0.00 PKD
ROOT
HETATM    1  C   UNL     1     -10.244   5.298  70.974  1.00  0.00    -0.299 C  
HETATM    2  C   UNL     1     -11.178   5.800  72.061  1.00  0.00    -0.307 C  
ENDROOT
BRANCH   2   3
HETATM    3  C   UNL     1     -12.145   6.852  71.518  1.00  0.00    -0.401 C  
BRANCH   3   4
HETATM    4  C   UNL     1     -12.007   8.163  72.283  1.00  0.00    -0.434 C  
BRANCH   4   5
HETATM    5  C   UNL     1     -10.600   8.745  72.147  1.00  0.00    -0.386 C  
BRANCH   5   6
HETATM    6  C   UNL     1     -10.465   9.524  70.861  1.00  0.00    -0.382 A  
HETATM    7  C   UNL     1      -9.243   9.563  70.189  1.00  0.00    -0.281 A  
HETATM    8  C   UNL     1      -9.095  10.337  69.036  1.00  0.00    -0.183 A  
HETATM    9  C   UNL     1     -10.142  11.130  68.527  1.00  0.00    -0.208 A  
HETATM   10  O   UNL     1      -7.882  10.306  68.403  1.00  0.00    -0.097 OA 
HETATM   11  H   UNL     1     -13.343  11.637  69.259  1.00  0.00     0.000 HD 
HETATM   12  H   UNL     1      -7.781  10.832  67.619  1.00  0.00     0.000 HD 
HETATM   13  C   UNL     1     -11.377  11.037  69.197  1.00  0.00    -0.280 A  
HETATM   14  O   UNL     1     -12.510  11.700  68.807  1.00  0.00    -0.272 OA 
HETATM   15  C   UNL     1     -11.540  10.241  70.335  1.00  0.00    -0.411 A  
BRANCH   9  16
HETATM   16  C   UNL     1      -9.957  11.985  67.263  1.00  0.00    -0.205 C  
HETATM   17  C   UNL     1      -9.924  13.442  67.645  1.00  0.00    -0.229 C  
HETATM   18  C   UNL     1     -10.843  14.345  67.281  1.00  0.00    -0.290 C  
HETATM   19  C   UNL     1     -12.015  13.992  66.419  1.00  0.00    -0.462 C  
HETATM   20  C   UNL     1     -10.795  15.762  67.782  1.00  0.00    -0.316 C  
HETATM   21  C   UNL     1     -11.988  12.645  65.691  1.00  0.00    -0.507 C  
HETATM   22  C   UNL     1     -10.928  11.595  66.096  1.00  0.00    -0.339 C  
BRANCH  22  23
HETATM   23  C   UNL     1     -10.177  11.030  64.877  1.00  0.00    -0.373 C  
HETATM   24  C   UNL     1      -9.467   9.893  64.969  1.00  0.00    -0.343 C  
HETATM   25  C   UNL     1     -10.258  11.755  63.563  1.00  0.00    -0.483 C  
ENDBRANCH  22  23
ENDBRANCH   9  16
ENDBRANCH   5   6
ENDBRANCH   4   5
ENDBRANCH   3   4
ENDBRANCH   2   3
TORSDOF 6
ENDMDL
MODEL       24
REMARK 921   NORMALIZED FREE ENERGY PREDICTED BY IDOCK:   -5.66 KCAL/MOL
REMARK 922        TOTAL FREE ENERGY PREDICTED BY IDOCK:   -8.57 KCAL/MOL
REMARK 923 INTER-LIGAND FREE ENERGY PREDICTED BY IDOCK:   -7.66 KCAL/MOL
REMARK 924 INTRA-LIGAND FREE ENERGY PREDICTED BY IDOCK:   -0.91 KCAL/MOL
REMARK 927      BINDING AFFINITY PREDICTED BY RF-SCORE:    0.00 PKD
ROOT
HETATM    1  C   UNL     1     -13.834  15.486  72.552  1.00  0.00    -0.669 C  
HETATM    2  C   UNL     1     -12.350  15.723  72.774  1.00  0.00    -0.564 C  
ENDROOT
BRANCH   2   3
HETATM    3  C   UNL     1     -11.641  16.067  71.464  1.00  0.00    -0.529 C  
BRANCH   3   4
HETATM    4  C   UNL     1     -12.403  15.502  70.270  1.00  0.00    -0.431 C  
BRANCH   4   5
HETATM    5  C   UNL     1     -11.694  15.820  68.953  1.00  0.00    -0.404 C  
BRANCH   5   6
HETATM    6  C   UNL     1     -11.338  14.552  68.216  1.00  0.00    -0.319 A  
HETATM    7  C   UNL     1     -12.123  14.115  67.149  1.00  0.00    -0.432 A  
HETATM    8  C   UNL     1     -11.836  12.909  66.508  1.00  0.00    -0.407 A  
HETATM    9  C   UNL     1     -10.782  12.072  66.925  1.00  0.00    -0.282 A  
HETATM   10  O   UNL     1     -12.622  12.553  65.446  1.00  0.00    -0.656 OA 
HETATM   11  H   UNL     1      -8.342  12.223  69.175  1.00  0.00     0.000 HD 
HETATM   12  H   UNL     1     -12.426  11.731  65.009  1.00  0.00     0.000 HD 
HETATM   13  C   UNL     1      -9.978  12.556  67.974  1.00  0.00    -0.219 A  
HETATM   14  O   UNL     1      -8.885  11.896  68.468  1.00  0.00    -0.169 OA 
HETATM   15  C   UNL     1     -10.241  13.779  68.601  1.00  0.00    -0.209 A  
BRANCH   9  16
HETATM   16  C   UNL     1     -10.489  10.740  66.215  1.00  0.00    -0.287 C  
HETATM   17  C   UNL     1     -10.754   9.598  67.161  1.00  0.00    -0.258 C  
HETATM   18  C   UNL     1      -9.819   8.760  67.625  1.00  0.00    -0.228 C  
HETATM   19  C   UNL     1      -8.381   8.864  67.221  1.00  0.00    -0.104 C  
HETATM   20  C   UNL     1     -10.144   7.704  68.644  1.00  0.00    -0.201 C  
HETATM   21  C   UNL     1      -8.037   9.750  66.020  1.00  0.00    -0.114 C  
HETATM   22  C   UNL     1      -9.109  10.719  65.471  1.00  0.00    -0.220 C  
BRANCH  22  23
HETATM   23  C   UNL     1      -9.271  10.597  63.945  1.00  0.00    -0.271 C  
HETATM   24  C   UNL     1      -8.710   9.579  63.271  1.00  0.00    -0.238 C  
HETATM   25  C   UNL     1     -10.085  11.622  63.208  1.00  0.00    -0.454 C  
ENDBRANCH  22  23
ENDBRANCH   9  16
ENDBRANCH   5   6
ENDBRANCH   4   5
ENDBRANCH   3   4
ENDBRANCH   2   3
TORSDOF 6
ENDMDL
MODEL       25
REMARK 921   NORMALIZED FREE ENERGY PREDICTED BY IDOCK:   -5.64 KCAL/MOL
REMARK 922        TOTAL FREE ENERGY PREDICTED BY IDOCK:   -8.55 KCAL/MOL
REMARK 923 INTER-LIGAND FREE ENERGY PREDICTED BY IDOCK:   -7.70 KCAL/MOL
REMARK 924 INTRA-LIGAND FREE ENERGY PREDICTED BY IDOCK:   -0.85 KCAL/MOL
REMARK 927      BINDING AFFINITY PREDICTED BY RF-SCORE:    0.00 PKD
ROOT
HETATM    1  C   UNL     1      -9.563  10.168  64.547  1.00  0.00    -0.376 C  
HETATM    2  C   UNL     1     -10.256  10.839  63.373  1.00  0.00    -0.287 C  
ENDROOT
BRANCH   2   3
HETATM    3  C   UNL     1     -10.401  12.344  63.603  1.00  0.00    -0.434 C  
BRANCH   3   4
HETATM    4  C   UNL     1     -11.866  12.761  63.560  1.00  0.00    -0.618 C  
BRANCH   4   5
HETATM    5  C   UNL     1     -12.453  12.889  64.966  1.00  0.00    -0.553 C  
BRANCH   5   6
HETATM    6  C   UNL     1     -11.585  13.769  65.831  1.00  0.00    -0.346 A  
HETATM    7  C   UNL     1     -11.222  13.356  67.113  1.00  0.00    -0.325 A  
HETATM    8  C   UNL     1     -10.476  14.196  67.942  1.00  0.00    -0.237 A  
HETATM    9  C   UNL     1     -10.092  15.492  67.545  1.00  0.00    -0.241 A  
HETATM   10  O   UNL     1     -10.122  13.720  69.175  1.00  0.00    -0.426 OA 
HETATM   11  H   UNL     1     -10.322  17.322  64.780  1.00  0.00     0.000 HD 
HETATM   12  H   UNL     1      -9.614  14.291  69.739  1.00  0.00     0.000 HD 
HETATM   13  C   UNL     1     -10.432  15.868  66.231  1.00  0.00    -0.318 A  
HETATM   14  O   UNL     1     -10.093  17.069  65.667  1.00  0.00    -0.554 OA 
HETATM   15  C   UNL     1     -11.153  15.019  65.384  1.00  0.00    -0.377 A  
BRANCH   9  16
HETATM   16  C   UNL     1      -9.281  16.408  68.475  1.00  0.00    -0.226 C  
HETATM   17  C   UNL     1     -10.017  17.710  68.664  1.00  0.00    -0.367 C  
HETATM   18  C   UNL     1      -9.575  18.902  68.245  1.00  0.00    -0.401 C  
HETATM   19  C   UNL     1      -8.260  19.069  67.549  1.00  0.00    -0.301 C  
HETATM   20  C   UNL     1     -10.411  20.144  68.383  1.00  0.00    -0.401 C  
HETATM   21  C   UNL     1      -7.272  17.899  67.595  1.00  0.00    -0.206 C  
HETATM   22  C   UNL     1      -7.768  16.518  68.082  1.00  0.00    -0.167 C  
BRANCH  22  23
HETATM   23  C   UNL     1      -6.842  15.916  69.154  1.00  0.00    -0.170 C  
HETATM   24  C   UNL     1      -6.808  14.590  69.372  1.00  0.00    -0.149 C  
HETATM   25  C   UNL     1      -5.951  16.826  69.951  1.00  0.00    -0.217 C  
ENDBRANCH  22  23
ENDBRANCH   9  16
ENDBRANCH   5   6
ENDBRANCH   4   5
ENDBRANCH   3   4
ENDBRANCH   2   3
TORSDOF 6
ENDMDL
MODEL       26
REMARK 921   NORMALIZED FREE ENERGY PREDICTED BY IDOCK:   -5.62 KCAL/MOL
REMARK 922        TOTAL FREE ENERGY PREDICTED BY IDOCK:   -8.52 KCAL/MOL
REMARK 923 INTER-LIGAND FREE ENERGY PREDICTED BY IDOCK:   -8.21 KCAL/MOL
REMARK 924 INTRA-LIGAND FREE ENERGY PREDICTED BY IDOCK:   -0.31 KCAL/MOL
REMARK 927      BINDING AFFINITY PREDICTED BY RF-SCORE:    0.00 PKD
ROOT
HETATM    1  C   UNL     1     -10.593  19.437  66.205  1.00  0.00    -0.571 C  
HETATM    2  C   UNL     1      -9.673  20.381  66.959  1.00  0.00    -0.588 C  
ENDROOT
BRANCH   2   3
HETATM    3  C   UNL     1      -8.317  19.731  67.236  1.00  0.00    -0.351 C  
BRANCH   3   4
HETATM    4  C   UNL     1      -8.258  19.181  68.656  1.00  0.00    -0.404 C  
BRANCH   4   5
HETATM    5  C   UNL     1      -7.585  17.809  68.697  1.00  0.00    -0.276 C  
BRANCH   5   6
HETATM    6  C   UNL     1      -8.566  16.719  68.338  1.00  0.00    -0.235 A  
HETATM    7  C   UNL     1      -8.169  15.654  67.530  1.00  0.00    -0.185 A  
HETATM    8  C   UNL     1      -9.090  14.680  67.140  1.00  0.00    -0.223 A  
HETATM    9  C   UNL     1     -10.449  14.745  67.507  1.00  0.00    -0.245 A  
HETATM   10  O   UNL     1      -8.631  13.641  66.376  1.00  0.00    -0.423 OA 
HETATM   11  H   UNL     1     -12.325  16.703  69.428  1.00  0.00     0.000 HD 
HETATM   12  H   UNL     1      -9.258  12.979  66.112  1.00  0.00     0.000 HD 
HETATM   13  C   UNL     1     -10.814  15.805  68.360  1.00  0.00    -0.297 A  
HETATM   14  O   UNL     1     -12.079  15.989  68.853  1.00  0.00    -0.283 OA 
HETATM   15  C   UNL     1      -9.889  16.767  68.779  1.00  0.00    -0.264 A  
BRANCH   9  16
HETATM   16  C   UNL     1     -11.452  13.671  67.059  1.00  0.00    -0.368 C  
HETATM   17  C   UNL     1     -11.831  12.815  68.240  1.00  0.00    -0.357 C  
HETATM   18  C   UNL     1     -11.547  11.512  68.358  1.00  0.00    -0.375 C  
HETATM   19  C   UNL     1     -10.824  10.750  67.291  1.00  0.00    -0.344 C  
HETATM   20  C   UNL     1     -11.871  10.746  69.611  1.00  0.00    -0.392 C  
HETATM   21  C   UNL     1     -10.684  11.406  65.914  1.00  0.00    -0.311 C  
HETATM   22  C   UNL     1     -11.015  12.908  65.762  1.00  0.00    -0.303 C  
BRANCH  22  23
HETATM   23  C   UNL     1     -11.966  13.174  64.581  1.00  0.00    -0.439 C  
HETATM   24  C   UNL     1     -12.477  12.159  63.864  1.00  0.00    -0.581 C  
HETATM   25  C   UNL     1     -12.339  14.590  64.241  1.00  0.00    -0.396 C  
ENDBRANCH  22  23
ENDBRANCH   9  16
ENDBRANCH   5   6
ENDBRANCH   4   5
ENDBRANCH   3   4
ENDBRANCH   2   3
TORSDOF 6
ENDMDL
MODEL       27
REMARK 921   NORMALIZED FREE ENERGY PREDICTED BY IDOCK:   -5.60 KCAL/MOL
REMARK 922        TOTAL FREE ENERGY PREDICTED BY IDOCK:   -8.50 KCAL/MOL
REMARK 923 INTER-LIGAND FREE ENERGY PREDICTED BY IDOCK:   -7.75 KCAL/MOL
REMARK 924 INTRA-LIGAND FREE ENERGY PREDICTED BY IDOCK:   -0.75 KCAL/MOL
REMARK 927      BINDING AFFINITY PREDICTED BY RF-SCORE:    0.00 PKD
ROOT
HETATM    1  C   UNL     1      -6.392  20.216  65.736  1.00  0.00    -0.244 C  
HETATM    2  C   UNL     1      -6.300  21.316  66.780  1.00  0.00    -0.373 C  
ENDROOT
BRANCH   2   3
HETATM    3  C   UNL     1      -5.519  20.849  68.009  1.00  0.00    -0.335 C  
BRANCH   3   4
HETATM    4  C   UNL     1      -6.434  20.132  68.994  1.00  0.00    -0.343 C  
BRANCH   4   5
HETATM    5  C   UNL     1      -6.206  18.620  68.971  1.00  0.00    -0.251 C  
BRANCH   5   6
HETATM    6  C   UNL     1      -7.512  17.883  68.791  1.00  0.00    -0.271 A  
HETATM    7  C   UNL     1      -7.615  16.539  69.148  1.00  0.00    -0.210 A  
HETATM    8  C   UNL     1      -8.799  15.836  68.921  1.00  0.00    -0.220 A  
HETATM    9  C   UNL     1      -9.915  16.430  68.298  1.00  0.00    -0.243 A  
HETATM   10  O   UNL     1      -8.849  14.529  69.325  1.00  0.00    -0.382 OA 
HETATM   11  H   UNL     1     -10.728  19.467  67.222  1.00  0.00     0.000 HD 
HETATM   12  H   UNL     1      -9.655  14.051  69.170  1.00  0.00     0.000 HD 
HETATM   13  C   UNL     1      -9.801  17.799  67.990  1.00  0.00    -0.317 A  
HETATM   14  O   UNL     1     -10.805  18.543  67.430  1.00  0.00    -0.421 OA 
HETATM   15  C   UNL     1      -8.627  18.517  68.242  1.00  0.00    -0.341 A  
BRANCH   9  16
HETATM   16  C   UNL     1     -11.207  15.638  68.045  1.00  0.00    -0.339 C  
HETATM   17  C   UNL     1     -11.975  15.505  69.334  1.00  0.00    -0.358 C  
HETATM   18  C   UNL     1     -12.210  14.348  69.964  1.00  0.00    -0.408 C  
HETATM   19  C   UNL     1     -11.740  13.032  69.426  1.00  0.00    -0.386 C  
HETATM   20  C   UNL     1     -12.901  14.305  71.300  1.00  0.00    -0.422 C  
HETATM   21  C   UNL     1     -11.252  12.987  67.974  1.00  0.00    -0.310 C  
HETATM   22  C   UNL     1     -10.982  14.316  67.232  1.00  0.00    -0.302 C  
BRANCH  22  23
HETATM   23  C   UNL     1     -11.662  14.357  65.852  1.00  0.00    -0.371 C  
HETATM   24  C   UNL     1     -12.711  13.563  65.576  1.00  0.00    -0.493 C  
HETATM   25  C   UNL     1     -11.156  15.314  64.810  1.00  0.00    -0.407 C  
ENDBRANCH  22  23
ENDBRANCH   9  16
ENDBRANCH   5   6
ENDBRANCH   4   5
ENDBRANCH   3   4
ENDBRANCH   2   3
TORSDOF 6
ENDMDL
MODEL       28
REMARK 921   NORMALIZED FREE ENERGY PREDICTED BY IDOCK:   -5.60 KCAL/MOL
REMARK 922        TOTAL FREE ENERGY PREDICTED BY IDOCK:   -8.49 KCAL/MOL
REMARK 923 INTER-LIGAND FREE ENERGY PREDICTED BY IDOCK:   -7.29 KCAL/MOL
REMARK 924 INTRA-LIGAND FREE ENERGY PREDICTED BY IDOCK:   -1.20 KCAL/MOL
REMARK 927      BINDING AFFINITY PREDICTED BY RF-SCORE:    0.00 PKD
ROOT
HETATM    1  C   UNL     1      -9.945  19.609  67.957  1.00  0.00    -0.541 C  
HETATM    2  C   UNL     1      -8.939  20.491  67.239  1.00  0.00    -0.431 C  
ENDROOT
BRANCH   2   3
HETATM    3  C   UNL     1      -7.507  20.012  67.484  1.00  0.00    -0.322 C  
BRANCH   3   4
HETATM    4  C   UNL     1      -6.954  19.303  66.254  1.00  0.00    -0.242 C  
BRANCH   4   5
HETATM    5  C   UNL     1      -6.471  17.892  66.592  1.00  0.00    -0.227 C  
BRANCH   5   6
HETATM    6  C   UNL     1      -7.630  16.925  66.637  1.00  0.00    -0.301 A  
HETATM    7  C   UNL     1      -8.711  17.083  65.770  1.00  0.00     0.169 A  
HETATM    8  C   UNL     1      -9.815  16.232  65.854  1.00  0.00    -0.334 A  
HETATM    9  C   UNL     1      -9.905  15.216  66.825  1.00  0.00    -0.251 A  
HETATM   10  O   UNL     1     -10.828  16.417  64.952  1.00  0.00    -0.655 OA 
HETATM   11  H   UNL     1      -7.923  13.965  69.181  1.00  0.00     0.000 HD 
HETATM   12  H   UNL     1     -11.579  15.837  65.009  1.00  0.00     0.000 HD 
HETATM   13  C   UNL     1      -8.782  15.048  67.658  1.00  0.00    -0.176 A  
HETATM   14  O   UNL     1      -8.680  14.078  68.619  1.00  0.00    -0.170 OA 
HETATM   15  C   UNL     1      -7.660  15.878  67.559  1.00  0.00    -0.186 A  
BRANCH   9  16
HETATM   16  C   UNL     1     -11.133  14.296  66.911  1.00  0.00    -0.315 C  
HETATM   17  C   UNL     1     -11.853  14.541  68.211  1.00  0.00    -0.347 C  
HETATM   18  C   UNL     1     -11.975  13.642  69.195  1.00  0.00    -0.394 C  
HETATM   19  C   UNL     1     -11.412  12.258  69.090  1.00  0.00    -0.352 C  
HETATM   20  C   UNL     1     -12.624  13.991  70.506  1.00  0.00    -0.399 C  
HETATM   21  C   UNL     1     -10.960  11.773  67.709  1.00  0.00    -0.277 C  
HETATM   22  C   UNL     1     -10.821  12.801  66.562  1.00  0.00    -0.280 C  
BRANCH  22  23
HETATM   23  C   UNL     1     -11.538  12.338  65.281  1.00  0.00    -0.405 C  
HETATM   24  C   UNL     1     -12.746  12.827  64.952  1.00  0.00    -0.479 C  
HETATM   25  C   UNL     1     -10.866  11.341  64.380  1.00  0.00    -0.373 C  
ENDBRANCH  22  23
ENDBRANCH   9  16
ENDBRANCH   5   6
ENDBRANCH   4   5
ENDBRANCH   3   4
ENDBRANCH   2   3
TORSDOF 6
ENDMDL
MODEL       29
REMARK 921   NORMALIZED FREE ENERGY PREDICTED BY IDOCK:   -5.59 KCAL/MOL
REMARK 922        TOTAL FREE ENERGY PREDICTED BY IDOCK:   -8.48 KCAL/MOL
REMARK 923 INTER-LIGAND FREE ENERGY PREDICTED BY IDOCK:   -8.02 KCAL/MOL
REMARK 924 INTRA-LIGAND FREE ENERGY PREDICTED BY IDOCK:   -0.46 KCAL/MOL
REMARK 927      BINDING AFFINITY PREDICTED BY RF-SCORE:    0.00 PKD
ROOT
HETATM    1  C   UNL     1     -14.330   7.555  71.543  1.00  0.00    -0.603 C  
HETATM    2  C   UNL     1     -12.850   7.259  71.374  1.00  0.00    -0.425 C  
ENDROOT
BRANCH   2   3
HETATM    3  C   UNL     1     -12.016   7.979  72.434  1.00  0.00    -0.405 C  
BRANCH   3   4
HETATM    4  C   UNL     1     -10.947   8.850  71.786  1.00  0.00    -0.431 C  
BRANCH   4   5
HETATM    5  C   UNL     1     -10.921   8.668  70.268  1.00  0.00    -0.251 C  
BRANCH   5   6
HETATM    6  C   UNL     1     -11.173   9.980  69.566  1.00  0.00    -0.254 A  
HETATM    7  C   UNL     1     -10.731  10.173  68.257  1.00  0.00    -0.277 A  
HETATM    8  C   UNL     1     -10.901  11.408  67.628  1.00  0.00    -0.237 A  
HETATM    9  C   UNL     1     -11.484  12.509  68.285  1.00  0.00    -0.355 A  
HETATM   10  O   UNL     1     -10.478  11.522  66.331  1.00  0.00    -0.233 OA 
HETATM   11  H   UNL     1     -12.921  13.061  71.230  1.00  0.00     0.000 HD 
HETATM   12  H   UNL     1     -10.595  12.363  65.903  1.00  0.00     0.000 HD 
HETATM   13  C   UNL     1     -11.962  12.276  69.589  1.00  0.00    -0.279 A  
HETATM   14  O   UNL     1     -12.598  13.219  70.351  1.00  0.00    -0.242 OA 
HETATM   15  C   UNL     1     -11.821  11.032  70.215  1.00  0.00    -0.456 A  
BRANCH   9  16
HETATM   16  C   UNL     1     -11.653  13.865  67.581  1.00  0.00    -0.381 C  
HETATM   17  C   UNL     1     -12.297  13.654  66.236  1.00  0.00    -0.464 C  
HETATM   18  C   UNL     1     -11.705  13.901  65.061  1.00  0.00    -0.365 C  
HETATM   19  C   UNL     1     -10.313  14.445  64.965  1.00  0.00    -0.449 C  
HETATM   20  C   UNL     1     -12.376  13.573  63.756  1.00  0.00    -0.392 C  
HETATM   21  C   UNL     1      -9.679  15.017  66.236  1.00  0.00    -0.316 C  
HETATM   22  C   UNL     1     -10.356  14.745  67.600  1.00  0.00    -0.237 C  
BRANCH  22  23
HETATM   23  C   UNL     1     -10.537  16.033  68.423  1.00  0.00    -0.270 C  
HETATM   24  C   UNL     1     -10.607  15.991  69.764  1.00  0.00    -0.323 C  
HETATM   25  C   UNL     1     -10.617  17.355  67.713  1.00  0.00    -0.371 C  
ENDBRANCH  22  23
ENDBRANCH   9  16
ENDBRANCH   5   6
ENDBRANCH   4   5
ENDBRANCH   3   4
ENDBRANCH   2   3
TORSDOF 6
ENDMDL
MODEL       30
REMARK 921   NORMALIZED FREE ENERGY PREDICTED BY IDOCK:   -5.59 KCAL/MOL
REMARK 922        TOTAL FREE ENERGY PREDICTED BY IDOCK:   -8.48 KCAL/MOL
REMARK 923 INTER-LIGAND FREE ENERGY PREDICTED BY IDOCK:   -7.30 KCAL/MOL
REMARK 924 INTRA-LIGAND FREE ENERGY PREDICTED BY IDOCK:   -1.18 KCAL/MOL
REMARK 927      BINDING AFFINITY PREDICTED BY RF-SCORE:    0.00 PKD
ROOT
HETATM    1  C   UNL     1      -9.826  16.418  66.729  1.00  0.00    -0.265 C  
HETATM    2  C   UNL     1     -10.649  16.016  65.517  1.00  0.00    -0.415 C  
ENDROOT
BRANCH   2   3
HETATM    3  C   UNL     1     -10.207  14.656  64.975  1.00  0.00    -0.395 C  
BRANCH   3   4
HETATM    4  C   UNL     1     -11.413  13.777  64.665  1.00  0.00    -0.385 C  
BRANCH   4   5
HETATM    5  C   UNL     1     -12.409  13.764  65.824  1.00  0.00    -0.523 C  
BRANCH   5   6
HETATM    6  C   UNL     1     -11.968  12.800  66.899  1.00  0.00    -0.380 A  
HETATM    7  C   UNL     1     -12.026  13.170  68.242  1.00  0.00    -0.328 A  
HETATM    8  C   UNL     1     -11.556  12.308  69.235  1.00  0.00    -0.324 A  
HETATM    9  C   UNL     1     -10.976  11.061  68.930  1.00  0.00    -0.277 A  
HETATM   10  O   UNL     1     -11.674  12.714  70.536  1.00  0.00    -0.529 OA 
HETATM   11  H   UNL     1     -10.488   9.247  66.189  1.00  0.00     0.000 HD 
HETATM   12  H   UNL     1     -11.354  12.127  71.211  1.00  0.00     0.000 HD 
HETATM   13  C   UNL     1     -10.970  10.692  67.571  1.00  0.00    -0.310 A  
HETATM   14  O   UNL     1     -10.492   9.496  67.105  1.00  0.00    -0.254 OA 
HETATM   15  C   UNL     1     -11.467  11.538  66.574  1.00  0.00    -0.178 A  
BRANCH   9  16
HETATM   16  C   UNL     1     -10.452  10.129  70.034  1.00  0.00    -0.325 C  
HETATM   17  C   UNL     1      -8.982   9.875  69.821  1.00  0.00    -0.242 C  
HETATM   18  C   UNL     1      -8.452   8.683  69.525  1.00  0.00    -0.129 C  
HETATM   19  C   UNL     1      -9.285   7.445  69.393  1.00  0.00    -0.145 C  
HETATM   20  C   UNL     1      -6.986   8.525  69.229  1.00  0.00    -0.054 C  
HETATM   21  C   UNL     1     -10.725   7.495  69.912  1.00  0.00    -0.254 C  
HETATM   22  C   UNL     1     -11.349   8.865  70.264  1.00  0.00    -0.179 C  
BRANCH  22  23
HETATM   23  C   UNL     1     -12.007   8.860  71.655  1.00  0.00    -0.415 C  
HETATM   24  C   UNL     1     -11.518   8.095  72.647  1.00  0.00    -0.454 C  
HETATM   25  C   UNL     1     -13.199   9.740  71.909  1.00  0.00    -0.545 C  
ENDBRANCH  22  23
ENDBRANCH   9  16
ENDBRANCH   5   6
ENDBRANCH   4   5
ENDBRANCH   3   4
ENDBRANCH   2   3
TORSDOF 6
ENDMDL
MODEL       31
REMARK 921   NORMALIZED FREE ENERGY PREDICTED BY IDOCK:   -5.56 KCAL/MOL
REMARK 922        TOTAL FREE ENERGY PREDICTED BY IDOCK:   -8.44 KCAL/MOL
REMARK 923 INTER-LIGAND FREE ENERGY PREDICTED BY IDOCK:   -7.51 KCAL/MOL
REMARK 924 INTRA-LIGAND FREE ENERGY PREDICTED BY IDOCK:   -0.93 KCAL/MOL
REMARK 927      BINDING AFFINITY PREDICTED BY RF-SCORE:    0.00 PKD
ROOT
HETATM    1  C   UNL     1     -11.908   6.451  71.711  1.00  0.00    -0.374 C  
HETATM    2  C   UNL     1     -13.188   7.127  71.248  1.00  0.00    -0.340 C  
ENDROOT
BRANCH   2   3
HETATM    3  C   UNL     1     -13.593   8.255  72.197  1.00  0.00    -0.313 C  
BRANCH   3   4
HETATM    4  C   UNL     1     -12.543   9.360  72.208  1.00  0.00    -0.378 C  
BRANCH   4   5
HETATM    5  C   UNL     1     -13.166  10.727  71.927  1.00  0.00    -0.524 C  
BRANCH   5   6
HETATM    6  C   UNL     1     -12.591  11.330  70.669  1.00  0.00    -0.377 A  
HETATM    7  C   UNL     1     -12.275  10.517  69.580  1.00  0.00    -0.208 A  
HETATM    8  C   UNL     1     -11.680  11.061  68.440  1.00  0.00    -0.259 A  
HETATM    9  C   UNL     1     -11.343  12.426  68.351  1.00  0.00    -0.330 A  
HETATM   10  O   UNL     1     -11.427  10.217  67.393  1.00  0.00    -0.469 OA 
HETATM   11  H   UNL     1     -11.757  15.130  70.237  1.00  0.00     0.000 HD 
HETATM   12  H   UNL     1     -11.023  10.588  66.617  1.00  0.00     0.000 HD 
HETATM   13  C   UNL     1     -11.713  13.233  69.444  1.00  0.00    -0.325 A  
HETATM   14  O   UNL     1     -11.507  14.586  69.500  1.00  0.00    -0.260 OA 
HETATM   15  C   UNL     1     -12.337  12.700  70.576  1.00  0.00    -0.350 A  
BRANCH   9  16
HETATM   16  C   UNL     1     -10.677  13.006  67.092  1.00  0.00    -0.266 C  
HETATM   17  C   UNL     1      -9.209  13.217  67.354  1.00  0.00    -0.216 C  
HETATM   18  C   UNL     1      -8.605  14.411  67.380  1.00  0.00    -0.213 C  
HETATM   19  C   UNL     1      -9.343  15.688  67.124  1.00  0.00    -0.229 C  
HETATM   20  C   UNL     1      -7.153  14.551  67.746  1.00  0.00    -0.190 C  
HETATM   21  C   UNL     1     -10.747  15.593  66.518  1.00  0.00    -0.293 C  
HETATM   22  C   UNL     1     -11.454  14.219  66.476  1.00  0.00    -0.368 C  
BRANCH  22  23
HETATM   23  C   UNL     1     -12.019  13.902  65.080  1.00  0.00    -0.403 C  
HETATM   24  C   UNL     1     -12.146  14.866  64.152  1.00  0.00    -0.289 C  
HETATM   25  C   UNL     1     -12.414  12.491  64.749  1.00  0.00    -0.532 C  
ENDBRANCH  22  23
ENDBRANCH   9  16
ENDBRANCH   5   6
ENDBRANCH   4   5
ENDBRANCH   3   4
ENDBRANCH   2   3
TORSDOF 6
ENDMDL
MODEL       32
REMARK 921   NORMALIZED FREE ENERGY PREDICTED BY IDOCK:   -5.54 KCAL/MOL
REMARK 922        TOTAL FREE ENERGY PREDICTED BY IDOCK:   -8.42 KCAL/MOL
REMARK 923 INTER-LIGAND FREE ENERGY PREDICTED BY IDOCK:   -7.75 KCAL/MOL
REMARK 924 INTRA-LIGAND FREE ENERGY PREDICTED BY IDOCK:   -0.66 KCAL/MOL
REMARK 927      BINDING AFFINITY PREDICTED BY RF-SCORE:    0.00 PKD
ROOT
HETATM    1  C   UNL     1     -10.976   5.853  69.892  1.00  0.00    -0.444 C  
HETATM    2  C   UNL     1     -10.837   5.759  71.402  1.00  0.00    -0.316 C  
ENDROOT
BRANCH   2   3
HETATM    3  C   UNL     1     -11.971   6.499  72.110  1.00  0.00    -0.334 C  
BRANCH   3   4
HETATM    4  C   UNL     1     -11.533   7.899  72.522  1.00  0.00    -0.455 C  
BRANCH   4   5
HETATM    5  C   UNL     1     -12.548   8.955  72.083  1.00  0.00    -0.467 C  
BRANCH   5   6
HETATM    6  C   UNL     1     -11.964   9.850  71.018  1.00  0.00    -0.456 A  
HETATM    7  C   UNL     1     -12.420  11.160  70.873  1.00  0.00    -0.509 A  
HETATM    8  C   UNL     1     -11.930  11.970  69.847  1.00  0.00    -0.318 A  
HETATM    9  C   UNL     1     -10.997  11.500  68.902  1.00  0.00    -0.279 A  
HETATM   10  O   UNL     1     -12.391  13.257  69.780  1.00  0.00    -0.240 OA 
HETATM   11  H   UNL     1      -9.252   8.710  68.436  1.00  0.00     0.000 HD 
HETATM   12  H   UNL     1     -12.058  13.808  69.081  1.00  0.00     0.000 HD 
HETATM   13  C   UNL     1     -10.519  10.189  69.097  1.00  0.00    -0.222 A  
HETATM   14  O   UNL     1      -9.575   9.594  68.304  1.00  0.00    -0.139 OA 
HETATM   15  C   UNL     1     -10.983   9.383  70.141  1.00  0.00    -0.282 A  
BRANCH   9  16
HETATM   16  C   UNL     1     -10.478  12.401  67.771  1.00  0.00    -0.231 C  
HETATM   17  C   UNL     1      -9.656  13.520  68.358  1.00  0.00    -0.196 C  
HETATM   18  C   UNL     1      -9.985  14.816  68.302  1.00  0.00    -0.222 C  
HETATM   19  C   UNL     1     -11.224  15.299  67.614  1.00  0.00    -0.320 C  
HETATM   20  C   UNL     1      -9.164  15.867  68.997  1.00  0.00    -0.242 C  
HETATM   21  C   UNL     1     -11.960  14.319  66.696  1.00  0.00    -0.454 C  
HETATM   22  C   UNL     1     -11.587  12.820  66.745  1.00  0.00    -0.431 C  
BRANCH  22  23
HETATM   23  C   UNL     1     -11.333  12.240  65.342  1.00  0.00    -0.389 C  
HETATM   24  C   UNL     1     -10.597  11.127  65.178  1.00  0.00    -0.319 C  
HETATM   25  C   UNL     1     -11.933  12.921  64.145  1.00  0.00    -0.491 C  
ENDBRANCH  22  23
ENDBRANCH   9  16
ENDBRANCH   5   6
ENDBRANCH   4   5
ENDBRANCH   3   4
ENDBRANCH   2   3
TORSDOF 6
ENDMDL
MODEL       33
REMARK 921   NORMALIZED FREE ENERGY PREDICTED BY IDOCK:   -5.54 KCAL/MOL
REMARK 922        TOTAL FREE ENERGY PREDICTED BY IDOCK:   -8.41 KCAL/MOL
REMARK 923 INTER-LIGAND FREE ENERGY PREDICTED BY IDOCK:   -7.52 KCAL/MOL
REMARK 924 INTRA-LIGAND FREE ENERGY PREDICTED BY IDOCK:   -0.89 KCAL/MOL
REMARK 927      BINDING AFFINITY PREDICTED BY RF-SCORE:    0.00 PKD
ROOT
HETATM    1  C   UNL     1      -6.026  21.189  63.488  1.00  0.00    -0.344 C  
HETATM    2  C   UNL     1      -6.228  20.299  64.702  1.00  0.00    -0.338 C  
ENDROOT
BRANCH   2   3
HETATM    3  C   UNL     1      -5.940  21.057  65.998  1.00  0.00    -0.301 C  
BRANCH   3   4
HETATM    4  C   UNL     1      -6.944  20.682  67.082  1.00  0.00    -0.377 C  
BRANCH   4   5
HETATM    5  C   UNL     1      -6.562  19.371  67.769  1.00  0.00    -0.247 C  
BRANCH   5   6
HETATM    6  C   UNL     1      -7.695  18.376  67.693  1.00  0.00    -0.236 A  
HETATM    7  C   UNL     1      -8.654  18.479  66.686  1.00  0.00    -0.295 A  
HETATM    8  C   UNL     1      -9.741  17.603  66.652  1.00  0.00    -0.301 A  
HETATM    9  C   UNL     1      -9.937  16.615  67.636  1.00  0.00    -0.264 A  
HETATM   10  O   UNL     1     -10.628  17.733  65.618  1.00  0.00    -0.577 OA 
HETATM   11  H   UNL     1      -8.261  15.490  70.276  1.00  0.00     0.000 HD 
HETATM   12  H   UNL     1     -11.368  17.137  65.595  1.00  0.00     0.000 HD 
HETATM   13  C   UNL     1      -8.932  16.503  68.616  1.00  0.00    -0.236 A  
HETATM   14  O   UNL     1      -8.939  15.566  69.615  1.00  0.00    -0.266 OA 
HETATM   15  C   UNL     1      -7.825  17.358  68.638  1.00  0.00    -0.274 A  
BRANCH   9  16
HETATM   16  C   UNL     1     -11.146  15.667  67.590  1.00  0.00    -0.305 C  
HETATM   17  C   UNL     1     -11.965  15.837  68.843  1.00  0.00    -0.268 C  
HETATM   18  C   UNL     1     -12.137  14.891  69.774  1.00  0.00    -0.357 C  
HETATM   19  C   UNL     1     -11.534  13.526  69.650  1.00  0.00    -0.283 C  
HETATM   20  C   UNL     1     -12.888  15.167  71.047  1.00  0.00    -0.477 C  
HETATM   21  C   UNL     1     -10.971  13.115  68.287  1.00  0.00    -0.278 C  
HETATM   22  C   UNL     1     -10.773  14.196  67.199  1.00  0.00    -0.280 C  
BRANCH  22  23
HETATM   23  C   UNL     1     -11.383  13.778  65.850  1.00  0.00    -0.311 C  
HETATM   24  C   UNL     1     -12.710  13.605  65.716  1.00  0.00    -0.470 C  
HETATM   25  C   UNL     1     -10.482  13.580  64.664  1.00  0.00    -0.439 C  
ENDBRANCH  22  23
ENDBRANCH   9  16
ENDBRANCH   5   6
ENDBRANCH   4   5
ENDBRANCH   3   4
ENDBRANCH   2   3
TORSDOF 6
ENDMDL
MODEL       34
REMARK 921   NORMALIZED FREE ENERGY PREDICTED BY IDOCK:   -5.54 KCAL/MOL
REMARK 922        TOTAL FREE ENERGY PREDICTED BY IDOCK:   -8.41 KCAL/MOL
REMARK 923 INTER-LIGAND FREE ENERGY PREDICTED BY IDOCK:   -7.61 KCAL/MOL
REMARK 924 INTRA-LIGAND FREE ENERGY PREDICTED BY IDOCK:   -0.80 KCAL/MOL
REMARK 927      BINDING AFFINITY PREDICTED BY RF-SCORE:    0.00 PKD
ROOT
HETATM    1  C   UNL     1     -11.791  10.634  70.418  1.00  0.00    -0.441 C  
HETATM    2  C   UNL     1     -11.996  11.139  69.000  1.00  0.00    -0.389 C  
ENDROOT
BRANCH   2   3
HETATM    3  C   UNL     1     -11.088  10.402  68.014  1.00  0.00    -0.359 C  
BRANCH   3   4
HETATM    4  C   UNL     1     -10.993  11.158  66.694  1.00  0.00    -0.289 C  
BRANCH   4   5
HETATM    5  C   UNL     1     -11.970  12.334  66.651  1.00  0.00    -0.257 C  
BRANCH   5   6
HETATM    6  C   UNL     1     -11.227  13.648  66.657  1.00  0.00    -0.324 A  
HETATM    7  C   UNL     1     -11.301  14.502  65.557  1.00  0.00    -0.335 A  
HETATM    8  C   UNL     1     -10.563  15.687  65.531  1.00  0.00    -0.404 A  
HETATM    9  C   UNL     1      -9.694  16.051  66.578  1.00  0.00    -0.284 A  
HETATM   10  O   UNL     1     -10.706  16.499  64.439  1.00  0.00    -0.892 OA 
HETATM   11  H   UNL     1      -8.908  14.847  69.574  1.00  0.00     0.000 HD 
HETATM   12  H   UNL     1     -10.204  17.305  64.421  1.00  0.00     0.000 HD 
HETATM   13  C   UNL     1      -9.671  15.195  67.696  1.00  0.00    -0.211 A  
HETATM   14  O   UNL     1      -8.923  15.424  68.820  1.00  0.00    -0.173 OA 
HETATM   15  C   UNL     1     -10.432  14.022  67.742  1.00  0.00    -0.236 A  
BRANCH   9  16
HETATM   16  C   UNL     1      -8.879  17.353  66.526  1.00  0.00    -0.290 C  
HETATM   17  C   UNL     1      -7.408  17.026  66.569  1.00  0.00    -0.320 C  
HETATM   18  C   UNL     1      -6.583  17.364  67.567  1.00  0.00    -0.162 C  
HETATM   19  C   UNL     1      -7.045  18.140  68.761  1.00  0.00    -0.287 C  
HETATM   20  C   UNL     1      -5.147  16.918  67.586  1.00  0.00    -0.138 C  
HETATM   21  C   UNL     1      -8.415  18.820  68.686  1.00  0.00    -0.364 C  
HETATM   22  C   UNL     1      -9.377  18.444  67.535  1.00  0.00    -0.270 C  
BRANCH  22  23
HETATM   23  C   UNL     1      -9.939  19.686  66.821  1.00  0.00    -0.521 C  
HETATM   24  C   UNL     1     -10.616  19.571  65.666  1.00  0.00    -0.434 C  
HETATM   25  C   UNL     1      -9.742  21.042  67.439  1.00  0.00    -0.229 C  
ENDBRANCH  22  23
ENDBRANCH   9  16
ENDBRANCH   5   6
ENDBRANCH   4   5
ENDBRANCH   3   4
ENDBRANCH   2   3
TORSDOF 6
ENDMDL
MODEL       35
REMARK 921   NORMALIZED FREE ENERGY PREDICTED BY IDOCK:   -5.54 KCAL/MOL
REMARK 922        TOTAL FREE ENERGY PREDICTED BY IDOCK:   -8.41 KCAL/MOL
REMARK 923 INTER-LIGAND FREE ENERGY PREDICTED BY IDOCK:   -7.37 KCAL/MOL
REMARK 924 INTRA-LIGAND FREE ENERGY PREDICTED BY IDOCK:   -1.04 KCAL/MOL
REMARK 927      BINDING AFFINITY PREDICTED BY RF-SCORE:    0.00 PKD
ROOT
HETATM    1  C   UNL     1      -9.078   6.494  71.737  1.00  0.00    -0.142 C  
HETATM    2  C   UNL     1     -10.325   6.738  72.571  1.00  0.00    -0.222 C  
ENDROOT
BRANCH   2   3
HETATM    3  C   UNL     1     -11.576   6.221  71.860  1.00  0.00    -0.369 C  
BRANCH   3   4
HETATM    4  C   UNL     1     -12.539   7.362  71.557  1.00  0.00    -0.401 C  
BRANCH   4   5
HETATM    5  C   UNL     1     -12.005   8.698  72.076  1.00  0.00    -0.442 C  
BRANCH   5   6
HETATM    6  C   UNL     1     -11.694   9.632  70.931  1.00  0.00    -0.412 A  
HETATM    7  C   UNL     1     -10.902   9.200  69.867  1.00  0.00    -0.242 A  
HETATM    8  C   UNL     1     -10.555  10.080  68.841  1.00  0.00    -0.218 A  
HETATM    9  C   UNL     1     -10.951  11.432  68.849  1.00  0.00    -0.276 A  
HETATM   10  O   UNL     1      -9.806   9.587  67.808  1.00  0.00    -0.150 OA 
HETATM   11  H   UNL     1     -12.866  13.362  70.759  1.00  0.00     0.000 HD 
HETATM   12  H   UNL     1      -9.570  10.186  67.109  1.00  0.00     0.000 HD 
HETATM   13  C   UNL     1     -11.786  11.831  69.910  1.00  0.00    -0.348 A  
HETATM   14  O   UNL     1     -12.302  13.093  70.044  1.00  0.00    -0.262 OA 
HETATM   15  C   UNL     1     -12.162  10.946  70.926  1.00  0.00    -0.485 A  
BRANCH   9  16
HETATM   16  C   UNL     1     -10.550  12.391  67.716  1.00  0.00    -0.236 C  
HETATM   17  C   UNL     1      -9.703  13.504  68.277  1.00  0.00    -0.224 C  
HETATM   18  C   UNL     1     -10.062  14.793  68.304  1.00  0.00    -0.221 C  
HETATM   19  C   UNL     1     -11.365  15.274  67.745  1.00  0.00    -0.331 C  
HETATM   20  C   UNL     1      -9.206  15.835  68.970  1.00  0.00    -0.243 C  
HETATM   21  C   UNL     1     -12.158  14.314  66.853  1.00  0.00    -0.440 C  
HETATM   22  C   UNL     1     -11.751  12.823  66.808  1.00  0.00    -0.459 C  
BRANCH  22  23
HETATM   23  C   UNL     1     -11.607  12.307  65.365  1.00  0.00    -0.412 C  
HETATM   24  C   UNL     1     -12.574  12.519  64.456  1.00  0.00    -0.503 C  
HETATM   25  C   UNL     1     -10.357  11.574  64.967  1.00  0.00    -0.333 C  
ENDBRANCH  22  23
ENDBRANCH   9  16
ENDBRANCH   5   6
ENDBRANCH   4   5
ENDBRANCH   3   4
ENDBRANCH   2   3
TORSDOF 6
ENDMDL
MODEL       36
REMARK 921   NORMALIZED FREE ENERGY PREDICTED BY IDOCK:   -5.49 KCAL/MOL
REMARK 922        TOTAL FREE ENERGY PREDICTED BY IDOCK:   -8.35 KCAL/MOL
REMARK 923 INTER-LIGAND FREE ENERGY PREDICTED BY IDOCK:   -7.77 KCAL/MOL
REMARK 924 INTRA-LIGAND FREE ENERGY PREDICTED BY IDOCK:   -0.58 KCAL/MOL
REMARK 927      BINDING AFFINITY PREDICTED BY RF-SCORE:    0.00 PKD
ROOT
HETATM    1  C   UNL     1     -10.615  19.610  67.040  1.00  0.00    -0.602 C  
HETATM    2  C   UNL     1      -9.411  20.144  67.798  1.00  0.00    -0.455 C  
ENDROOT
BRANCH   2   3
HETATM    3  C   UNL     1      -8.103  19.729  67.123  1.00  0.00    -0.327 C  
BRANCH   3   4
HETATM    4  C   UNL     1      -7.443  18.580  67.875  1.00  0.00    -0.249 C  
BRANCH   4   5
HETATM    5  C   UNL     1      -6.921  17.510  66.916  1.00  0.00    -0.219 C  
BRANCH   5   6
HETATM    6  C   UNL     1      -7.927  16.395  66.758  1.00  0.00    -0.295 A  
HETATM    7  C   UNL     1      -7.700  15.154  67.354  1.00  0.00    -0.225 A  
HETATM    8  C   UNL     1      -8.594  14.100  67.155  1.00  0.00    -0.214 A  
HETATM    9  C   UNL     1      -9.727  14.226  66.328  1.00  0.00    -0.321 A  
HETATM   10  O   UNL     1      -8.334  12.919  67.796  1.00  0.00    -0.152 OA 
HETATM   11  H   UNL     1     -11.192  16.669  64.617  1.00  0.00     0.000 HD 
HETATM   12  H   UNL     1      -8.943  12.202  67.660  1.00  0.00     0.000 HD 
HETATM   13  C   UNL     1      -9.958  15.500  65.775  1.00  0.00    -0.359 A  
HETATM   14  O   UNL     1     -11.036  15.810  64.990  1.00  0.00    -0.393 OA 
HETATM   15  C   UNL     1      -9.082  16.569  65.995  1.00  0.00    -0.290 A  
BRANCH   9  16
HETATM   16  C   UNL     1     -10.694  13.051  66.110  1.00  0.00    -0.288 C  
HETATM   17  C   UNL     1     -11.416  12.750  67.398  1.00  0.00    -0.396 C  
HETATM   18  C   UNL     1     -11.289  11.613  68.093  1.00  0.00    -0.358 C  
HETATM   19  C   UNL     1     -10.411  10.489  67.638  1.00  0.00    -0.276 C  
HETATM   20  C   UNL     1     -11.967  11.424  69.422  1.00  0.00    -0.407 C  
HETATM   21  C   UNL     1      -9.894  10.524  66.196  1.00  0.00    -0.271 C  
HETATM   22  C   UNL     1     -10.039  11.829  65.379  1.00  0.00    -0.291 C  
BRANCH  22  23
HETATM   23  C   UNL     1     -10.659  11.577  63.993  1.00  0.00    -0.437 C  
HETATM   24  C   UNL     1     -11.870  12.068  63.679  1.00  0.00    -0.602 C  
HETATM   25  C   UNL     1      -9.887  10.787  62.974  1.00  0.00    -0.344 C  
ENDBRANCH  22  23
ENDBRANCH   9  16
ENDBRANCH   5   6
ENDBRANCH   4   5
ENDBRANCH   3   4
ENDBRANCH   2   3
TORSDOF 6
ENDMDL
MODEL       37
REMARK 921   NORMALIZED FREE ENERGY PREDICTED BY IDOCK:   -5.46 KCAL/MOL
REMARK 922        TOTAL FREE ENERGY PREDICTED BY IDOCK:   -8.31 KCAL/MOL
REMARK 923 INTER-LIGAND FREE ENERGY PREDICTED BY IDOCK:   -7.57 KCAL/MOL
REMARK 924 INTRA-LIGAND FREE ENERGY PREDICTED BY IDOCK:   -0.74 KCAL/MOL
REMARK 927      BINDING AFFINITY PREDICTED BY RF-SCORE:    0.00 PKD
ROOT
HETATM    1  C   UNL     1     -12.305  15.528  74.202  1.00  0.00    -0.806 C  
HETATM    2  C   UNL     1     -13.410  16.040  73.294  1.00  0.00    -0.625 C  
ENDROOT
BRANCH   2   3
HETATM    3  C   UNL     1     -14.156  14.885  72.625  1.00  0.00    -0.358 C  
BRANCH   3   4
HETATM    4  C   UNL     1     -13.203  13.745  72.288  1.00  0.00    -0.563 C  
BRANCH   4   5
HETATM    5  C   UNL     1     -13.936  12.405  72.219  1.00  0.00     0.038 C  
BRANCH   5   6
HETATM    6  C   UNL     1     -13.015  11.314  71.727  1.00  0.00    -0.519 A  
HETATM    7  C   UNL     1     -13.047  10.050  72.315  1.00  0.00    -0.385 A  
HETATM    8  C   UNL     1     -12.151   9.059  71.910  1.00  0.00    -0.378 A  
HETATM    9  C   UNL     1     -11.165   9.296  70.932  1.00  0.00    -0.372 A  
HETATM   10  O   UNL     1     -12.256   7.828  72.500  1.00  0.00    -0.516 OA 
HETATM   11  H   UNL     1     -10.342  11.801  68.910  1.00  0.00     0.000 HD 
HETATM   12  H   UNL     1     -11.647   7.154  72.224  1.00  0.00     0.000 HD 
HETATM   13  C   UNL     1     -11.183  10.565  70.323  1.00  0.00    -0.313 A  
HETATM   14  O   UNL     1     -10.330  10.945  69.321  1.00  0.00    -0.220 OA 
HETATM   15  C   UNL     1     -12.098  11.553  70.703  1.00  0.00    -0.450 A  
BRANCH   9  16
HETATM   16  C   UNL     1     -10.178   8.197  70.507  1.00  0.00    -0.207 C  
HETATM   17  C   UNL     1      -8.852   8.424  71.184  1.00  0.00    -0.201 C  
HETATM   18  C   UNL     1      -7.714   8.726  70.548  1.00  0.00    -0.089 C  
HETATM   19  C   UNL     1      -7.639   8.850  69.057  1.00  0.00    -0.085 C  
HETATM   20  C   UNL     1      -6.449   9.035  71.300  1.00  0.00    -0.085 C  
HETATM   21  C   UNL     1      -8.816   8.318  68.235  1.00  0.00    -0.140 C  
HETATM   22  C   UNL     1     -10.135   7.960  68.958  1.00  0.00    -0.204 C  
BRANCH  22  23
HETATM   23  C   UNL     1     -10.647   6.562  68.567  1.00  0.00    -0.291 C  
HETATM   24  C   UNL     1     -10.840   5.612  69.498  1.00  0.00    -0.345 C  
HETATM   25  C   UNL     1     -10.954   6.267  67.126  1.00  0.00    -0.453 C  
ENDBRANCH  22  23
ENDBRANCH   9  16
ENDBRANCH   5   6
ENDBRANCH   4   5
ENDBRANCH   3   4
ENDBRANCH   2   3
TORSDOF 6
ENDMDL
MODEL       38
REMARK 921   NORMALIZED FREE ENERGY PREDICTED BY IDOCK:   -5.46 KCAL/MOL
REMARK 922        TOTAL FREE ENERGY PREDICTED BY IDOCK:   -8.30 KCAL/MOL
REMARK 923 INTER-LIGAND FREE ENERGY PREDICTED BY IDOCK:   -7.46 KCAL/MOL
REMARK 924 INTRA-LIGAND FREE ENERGY PREDICTED BY IDOCK:   -0.85 KCAL/MOL
REMARK 927      BINDING AFFINITY PREDICTED BY RF-SCORE:    0.00 PKD
ROOT
HETATM    1  C   UNL     1     -13.061  15.654  73.406  1.00  0.00    -0.670 C  
HETATM    2  C   UNL     1     -13.969  15.399  72.215  1.00  0.00    -0.661 C  
ENDROOT
BRANCH   2   3
HETATM    3  C   UNL     1     -14.320  13.916  72.094  1.00  0.00    -0.530 C  
BRANCH   3   4
HETATM    4  C   UNL     1     -13.074  13.050  72.229  1.00  0.00    -0.445 C  
BRANCH   4   5
HETATM    5  C   UNL     1     -13.393  11.571  72.008  1.00  0.00    -0.397 C  
BRANCH   5   6
HETATM    6  C   UNL     1     -12.442  10.960  71.008  1.00  0.00    -0.514 A  
HETATM    7  C   UNL     1     -11.779   9.769  71.305  1.00  0.00    -0.472 A  
HETATM    8  C   UNL     1     -10.848   9.236  70.412  1.00  0.00    -0.254 A  
HETATM    9  C   UNL     1     -10.511   9.883  69.207  1.00  0.00    -0.240 A  
HETATM   10  O   UNL     1     -10.258   8.047  70.746  1.00  0.00    -0.193 OA 
HETATM   11  H   UNL     1     -11.544  12.577  67.559  1.00  0.00     0.000 HD 
HETATM   12  H   UNL     1      -9.624   7.684  70.137  1.00  0.00     0.000 HD 
HETATM   13  C   UNL     1     -11.226  11.059  68.910  1.00  0.00    -0.265 A  
HETATM   14  O   UNL     1     -11.061  11.784  67.760  1.00  0.00    -0.213 OA 
HETATM   15  C   UNL     1     -12.183  11.582  69.786  1.00  0.00    -0.310 A  
BRANCH   9  16
HETATM   16  C   UNL     1      -9.474   9.288  68.241  1.00  0.00    -0.148 C  
HETATM   17  C   UNL     1      -8.315  10.241  68.100  1.00  0.00    -0.118 C  
HETATM   18  C   UNL     1      -7.984  10.873  66.968  1.00  0.00    -0.132 C  
HETATM   19  C   UNL     1      -8.737  10.675  65.690  1.00  0.00    -0.198 C  
HETATM   20  C   UNL     1      -6.872  11.885  66.929  1.00  0.00    -0.075 C  
HETATM   21  C   UNL     1      -9.710   9.494  65.608  1.00  0.00    -0.361 C  
HETATM   22  C   UNL     1     -10.098   8.751  66.907  1.00  0.00    -0.348 C  
BRANCH  22  23
HETATM   23  C   UNL     1      -9.950   7.225  66.766  1.00  0.00    -0.287 C  
HETATM   24  C   UNL     1     -10.953   6.400  67.112  1.00  0.00    -0.476 C  
HETATM   25  C   UNL     1      -8.672   6.658  66.216  1.00  0.00    -0.150 C  
ENDBRANCH  22  23
ENDBRANCH   9  16
ENDBRANCH   5   6
ENDBRANCH   4   5
ENDBRANCH   3   4
ENDBRANCH   2   3
TORSDOF 6
ENDMDL
MODEL       39
REMARK 921   NORMALIZED FREE ENERGY PREDICTED BY IDOCK:   -5.44 KCAL/MOL
REMARK 922        TOTAL FREE ENERGY PREDICTED BY IDOCK:   -8.27 KCAL/MOL
REMARK 923 INTER-LIGAND FREE ENERGY PREDICTED BY IDOCK:   -7.25 KCAL/MOL
REMARK 924 INTRA-LIGAND FREE ENERGY PREDICTED BY IDOCK:   -1.02 KCAL/MOL
REMARK 927      BINDING AFFINITY PREDICTED BY RF-SCORE:    0.00 PKD
ROOT
HETATM    1  C   UNL     1     -10.504  19.272  66.132  1.00  0.00    -0.577 C  
HETATM    2  C   UNL     1      -9.566  20.310  66.726  1.00  0.00    -0.548 C  
ENDROOT
BRANCH   2   3
HETATM    3  C   UNL     1      -8.281  19.663  67.243  1.00  0.00    -0.331 C  
BRANCH   3   4
HETATM    4  C   UNL     1      -8.501  19.037  68.615  1.00  0.00    -0.394 C  
BRANCH   4   5
HETATM    5  C   UNL     1      -7.795  17.686  68.733  1.00  0.00    -0.242 C  
BRANCH   5   6
HETATM    6  C   UNL     1      -8.706  16.564  68.296  1.00  0.00    -0.209 A  
HETATM    7  C   UNL     1     -10.080  16.647  68.521  1.00  0.00    -0.266 A  
HETATM    8  C   UNL     1     -10.917  15.583  68.180  1.00  0.00    -0.312 A  
HETATM    9  C   UNL     1     -10.420  14.383  67.636  1.00  0.00    -0.245 A  
HETATM   10  O   UNL     1     -12.260  15.740  68.394  1.00  0.00    -0.436 OA 
HETATM   11  H   UNL     1      -7.463  13.248  66.629  1.00  0.00     0.000 HD 
HETATM   12  H   UNL     1     -12.830  15.016  68.161  1.00  0.00     0.000 HD 
HETATM   13  C   UNL     1      -9.036  14.343  67.376  1.00  0.00    -0.198 A  
HETATM   14  O   UNL     1      -8.396  13.276  66.804  1.00  0.00    -0.069 OA 
HETATM   15  C   UNL     1      -8.196  15.416  67.688  1.00  0.00    -0.171 A  
BRANCH   9  16
HETATM   16  C   UNL     1     -11.355  13.218  67.277  1.00  0.00    -0.347 C  
HETATM   17  C   UNL     1     -11.364  12.217  68.403  1.00  0.00    -0.336 C  
HETATM   18  C   UNL     1     -10.902  10.964  68.311  1.00  0.00    -0.272 C  
HETATM   19  C   UNL     1     -10.336  10.410  67.040  1.00  0.00    -0.295 C  
HETATM   20  C   UNL     1     -10.854  10.053  69.506  1.00  0.00    -0.283 C  
HETATM   21  C   UNL     1     -10.577  11.196  65.748  1.00  0.00    -0.289 C  
HETATM   22  C   UNL     1     -11.115  12.643  65.839  1.00  0.00    -0.323 C  
BRANCH  22  23
HETATM   23  C   UNL     1     -12.322  12.870  64.911  1.00  0.00    -0.532 C  
HETATM   24  C   UNL     1     -13.214  13.843  65.164  1.00  0.00     0.060 C  
HETATM   25  C   UNL     1     -12.489  12.002  63.696  1.00  0.00    -0.637 C  
ENDBRANCH  22  23
ENDBRANCH   9  16
ENDBRANCH   5   6
ENDBRANCH   4   5
ENDBRANCH   3   4
ENDBRANCH   2   3
TORSDOF 6
ENDMDL
MODEL       40
REMARK 921   NORMALIZED FREE ENERGY PREDICTED BY IDOCK:   -5.43 KCAL/MOL
REMARK 922        TOTAL FREE ENERGY PREDICTED BY IDOCK:   -8.26 KCAL/MOL
REMARK 923 INTER-LIGAND FREE ENERGY PREDICTED BY IDOCK:   -7.07 KCAL/MOL
REMARK 924 INTRA-LIGAND FREE ENERGY PREDICTED BY IDOCK:   -1.20 KCAL/MOL
REMARK 927      BINDING AFFINITY PREDICTED BY RF-SCORE:    0.00 PKD
ROOT
HETATM    1  C   UNL     1     -11.038   6.542  68.213  1.00  0.00    -0.332 C  
HETATM    2  C   UNL     1     -10.619   5.519  69.255  1.00  0.00    -0.325 C  
ENDROOT
BRANCH   2   3
HETATM    3  C   UNL     1     -10.948   6.001  70.668  1.00  0.00    -0.376 C  
BRANCH   3   4
HETATM    4  C   UNL     1      -9.697   6.506  71.376  1.00  0.00    -0.184 C  
BRANCH   4   5
HETATM    5  C   UNL     1      -9.988   7.760  72.200  1.00  0.00    -0.249 C  
BRANCH   5   6
HETATM    6  C   UNL     1     -10.326   8.926  71.303  1.00  0.00    -0.355 A  
HETATM    7  C   UNL     1     -11.567   9.554  71.405  1.00  0.00    -0.466 A  
HETATM    8  C   UNL     1     -11.910  10.588  70.531  1.00  0.00    -0.347 A  
HETATM    9  C   UNL     1     -11.050  11.013  69.500  1.00  0.00    -0.322 A  
HETATM   10  O   UNL     1     -13.128  11.188  70.705  1.00  0.00    -0.199 OA 
HETATM   11  H   UNL     1      -7.959  10.304  68.507  1.00  0.00     0.000 HD 
HETATM   12  H   UNL     1     -13.361  11.892  70.111  1.00  0.00     0.000 HD 
HETATM   13  C   UNL     1      -9.786  10.394  69.447  1.00  0.00    -0.200 A  
HETATM   14  O   UNL     1      -8.811  10.721  68.542  1.00  0.00    -0.135 OA 
HETATM   15  C   UNL     1      -9.424   9.378  70.338  1.00  0.00    -0.319 A  
BRANCH   9  16
HETATM   16  C   UNL     1     -11.448  12.145  68.540  1.00  0.00    -0.349 C  
HETATM   17  C   UNL     1     -11.455  11.625  67.126  1.00  0.00    -0.344 C  
HETATM   18  C   UNL     1     -10.624  12.036  66.160  1.00  0.00    -0.298 C  
HETATM   19  C   UNL     1      -9.593  13.097  66.388  1.00  0.00    -0.259 C  
HETATM   20  C   UNL     1     -10.624  11.399  64.798  1.00  0.00    -0.377 C  
HETATM   21  C   UNL     1      -9.704  13.939  67.663  1.00  0.00    -0.226 C  
HETATM   22  C   UNL     1     -10.663  13.479  68.785  1.00  0.00    -0.261 C  
BRANCH  22  23
HETATM   23  C   UNL     1     -11.583  14.618  69.262  1.00  0.00    -0.335 C  
HETATM   24  C   UNL     1     -11.643  15.783  68.594  1.00  0.00    -0.392 C  
HETATM   25  C   UNL     1     -12.437  14.412  70.481  1.00  0.00    -0.416 C  
ENDBRANCH  22  23
ENDBRANCH   9  16
ENDBRANCH   5   6
ENDBRANCH   4   5
ENDBRANCH   3   4
ENDBRANCH   2   3
TORSDOF 6
ENDMDL
MODEL       41
REMARK 921   NORMALIZED FREE ENERGY PREDICTED BY IDOCK:   -5.42 KCAL/MOL
REMARK 922        TOTAL FREE ENERGY PREDICTED BY IDOCK:   -8.25 KCAL/MOL
REMARK 923 INTER-LIGAND FREE ENERGY PREDICTED BY IDOCK:   -7.65 KCAL/MOL
REMARK 924 INTRA-LIGAND FREE ENERGY PREDICTED BY IDOCK:   -0.60 KCAL/MOL
REMARK 927      BINDING AFFINITY PREDICTED BY RF-SCORE:    0.00 PKD
ROOT
HETATM    1  C   UNL     1     -12.531  15.770  74.414  1.00  0.00    -0.790 C  
HETATM    2  C   UNL     1     -12.318  14.725  73.333  1.00  0.00    -0.454 C  
ENDROOT
BRANCH   2   3
HETATM    3  C   UNL     1     -13.634  14.365  72.643  1.00  0.00    -0.589 C  
BRANCH   3   4
HETATM    4  C   UNL     1     -13.717  15.004  71.263  1.00  0.00    -0.523 C  
BRANCH   4   5
HETATM    5  C   UNL     1     -12.428  15.747  70.912  1.00  0.00    -0.451 C  
BRANCH   5   6
HETATM    6  C   UNL     1     -11.739  15.101  69.735  1.00  0.00    -0.347 A  
HETATM    7  C   UNL     1     -12.158  13.852  69.275  1.00  0.00    -0.383 A  
HETATM    8  C   UNL     1     -11.481  13.220  68.230  1.00  0.00    -0.316 A  
HETATM    9  C   UNL     1     -10.341  13.786  67.626  1.00  0.00    -0.239 A  
HETATM   10  O   UNL     1     -11.962  12.013  67.801  1.00  0.00    -0.538 OA 
HETATM   11  H   UNL     1      -8.662  16.643  67.871  1.00  0.00     0.000 HD 
HETATM   12  H   UNL     1     -11.502  11.583  67.089  1.00  0.00     0.000 HD 
HETATM   13  C   UNL     1      -9.966  15.065  68.078  1.00  0.00    -0.219 A  
HETATM   14  O   UNL     1      -8.915  15.780  67.567  1.00  0.00    -0.190 OA 
HETATM   15  C   UNL     1     -10.658  15.718  69.104  1.00  0.00    -0.242 A  
BRANCH   9  16
HETATM   16  C   UNL     1      -9.600  13.070  66.485  1.00  0.00    -0.260 C  
HETATM   17  C   UNL     1     -10.473  13.047  65.257  1.00  0.00    -0.318 C  
HETATM   18  C   UNL     1     -10.972  11.938  64.699  1.00  0.00    -0.370 C  
HETATM   19  C   UNL     1     -10.688  10.571  65.240  1.00  0.00    -0.019 C  
HETATM   20  C   UNL     1     -11.917  12.001  63.531  1.00  0.00    -0.605 C  
HETATM   21  C   UNL     1      -9.556  10.428  66.263  1.00  0.00    -0.230 C  
HETATM   22  C   UNL     1      -8.967  11.701  66.912  1.00  0.00    -0.191 C  
BRANCH  22  23
HETATM   23  C   UNL     1      -7.429  11.725  66.846  1.00  0.00    -0.106 C  
HETATM   24  C   UNL     1      -6.728  12.718  67.419  1.00  0.00    -0.138 C  
HETATM   25  C   UNL     1      -6.705  10.609  66.146  1.00  0.00    -0.132 C  
ENDBRANCH  22  23
ENDBRANCH   9  16
ENDBRANCH   5   6
ENDBRANCH   4   5
ENDBRANCH   3   4
ENDBRANCH   2   3
TORSDOF 6
ENDMDL
MODEL       42
REMARK 921   NORMALIZED FREE ENERGY PREDICTED BY IDOCK:   -5.35 KCAL/MOL
REMARK 922        TOTAL FREE ENERGY PREDICTED BY IDOCK:   -8.16 KCAL/MOL
REMARK 923 INTER-LIGAND FREE ENERGY PREDICTED BY IDOCK:   -7.19 KCAL/MOL
REMARK 924 INTRA-LIGAND FREE ENERGY PREDICTED BY IDOCK:   -0.97 KCAL/MOL
REMARK 927      BINDING AFFINITY PREDICTED BY RF-SCORE:    0.00 PKD
ROOT
HETATM    1  C   UNL     1      -7.944   7.229  72.913  1.00  0.00    -0.118 C  
HETATM    2  C   UNL     1      -9.118   8.120  73.283  1.00  0.00    -0.327 C  
ENDROOT
BRANCH   2   3
HETATM    3  C   UNL     1     -10.436   7.346  73.235  1.00  0.00    -0.424 C  
BRANCH   3   4
HETATM    4  C   UNL     1     -11.474   8.093  72.406  1.00  0.00    -0.462 C  
BRANCH   4   5
HETATM    5  C   UNL     1     -11.112   8.090  70.921  1.00  0.00    -0.271 C  
BRANCH   5   6
HETATM    6  C   UNL     1     -11.183   9.485  70.349  1.00  0.00    -0.323 A  
HETATM    7  C   UNL     1     -11.987  10.451  70.953  1.00  0.00    -0.478 A  
HETATM    8  C   UNL     1     -12.109  11.723  70.388  1.00  0.00    -0.352 A  
HETATM    9  C   UNL     1     -11.467  12.072  69.184  1.00  0.00    -0.357 A  
HETATM   10  O   UNL     1     -12.885  12.637  71.048  1.00  0.00    -0.275 OA 
HETATM   11  H   UNL     1      -9.322  10.624  67.100  1.00  0.00     0.000 HD 
HETATM   12  H   UNL     1     -12.967  13.503  70.664  1.00  0.00     0.000 HD 
HETATM   13  C   UNL     1     -10.626  11.094  68.619  1.00  0.00    -0.193 A  
HETATM   14  O   UNL     1      -9.889  11.284  67.481  1.00  0.00    -0.175 OA 
HETATM   15  C   UNL     1     -10.476   9.828  69.196  1.00  0.00    -0.232 A  
BRANCH   9  16
HETATM   16  C   UNL     1     -11.622  13.473  68.571  1.00  0.00    -0.368 C  
HETATM   17  C   UNL     1     -12.210  13.353  67.188  1.00  0.00    -0.306 C  
HETATM   18  C   UNL     1     -11.573  13.686  66.059  1.00  0.00    -0.358 C  
HETATM   19  C   UNL     1     -10.185  14.248  66.059  1.00  0.00    -0.327 C  
HETATM   20  C   UNL     1     -12.188  13.446  64.708  1.00  0.00    -0.454 C  
HETATM   21  C   UNL     1      -9.609  14.733  67.392  1.00  0.00    -0.210 C  
HETATM   22  C   UNL     1     -10.337  14.360  68.704  1.00  0.00    -0.245 C  
BRANCH  22  23
HETATM   23  C   UNL     1     -10.565  15.585  69.608  1.00  0.00    -0.285 C  
HETATM   24  C   UNL     1     -10.454  16.833  69.120  1.00  0.00    -0.343 C  
HETATM   25  C   UNL     1     -10.935  15.378  71.049  1.00  0.00    -0.309 C  
ENDBRANCH  22  23
ENDBRANCH   9  16
ENDBRANCH   5   6
ENDBRANCH   4   5
ENDBRANCH   3   4
ENDBRANCH   2   3
TORSDOF 6
ENDMDL
MODEL       43
REMARK 921   NORMALIZED FREE ENERGY PREDICTED BY IDOCK:   -5.35 KCAL/MOL
REMARK 922        TOTAL FREE ENERGY PREDICTED BY IDOCK:   -8.16 KCAL/MOL
REMARK 923 INTER-LIGAND FREE ENERGY PREDICTED BY IDOCK:   -7.15 KCAL/MOL
REMARK 924 INTRA-LIGAND FREE ENERGY PREDICTED BY IDOCK:   -1.01 KCAL/MOL
REMARK 927      BINDING AFFINITY PREDICTED BY RF-SCORE:    0.00 PKD
ROOT
HETATM    1  C   UNL     1     -12.251  12.092  63.493  1.00  0.00    -0.653 C  
HETATM    2  C   UNL     1     -12.326  12.483  64.959  1.00  0.00    -0.522 C  
ENDROOT
BRANCH   2   3
HETATM    3  C   UNL     1     -11.063  12.059  65.710  1.00  0.00    -0.371 C  
BRANCH   3   4
HETATM    4  C   UNL     1     -10.269  11.037  64.906  1.00  0.00    -0.373 C  
BRANCH   4   5
HETATM    5  C   UNL     1      -9.071  10.512  65.697  1.00  0.00    -0.209 C  
BRANCH   5   6
HETATM    6  C   UNL     1      -9.521   9.583  66.798  1.00  0.00    -0.217 A  
HETATM    7  C   UNL     1     -10.268   8.445  66.496  1.00  0.00    -0.277 A  
HETATM    8  C   UNL     1     -10.744   7.620  67.517  1.00  0.00    -0.209 A  
HETATM    9  C   UNL     1     -10.527   7.912  68.878  1.00  0.00    -0.205 A  
HETATM   10  O   UNL     1     -11.440   6.499  67.154  1.00  0.00    -0.768 OA 
HETATM   11  H   UNL     1      -8.847  10.201  70.604  1.00  0.00     0.000 HD 
HETATM   12  H   UNL     1     -11.763   5.937  67.849  1.00  0.00     0.000 HD 
HETATM   13  C   UNL     1      -9.733   9.041  69.155  1.00  0.00    -0.167 A  
HETATM   14  O   UNL     1      -9.383   9.440  70.417  1.00  0.00    -0.232 OA 
HETATM   15  C   UNL     1      -9.228   9.855  68.135  1.00  0.00    -0.131 A  
BRANCH   9  16
HETATM   16  C   UNL     1     -11.069   6.999  69.989  1.00  0.00    -0.316 C  
HETATM   17  C   UNL     1     -12.211   7.687  70.692  1.00  0.00    -0.014 C  
HETATM   18  C   UNL     1     -12.194   8.074  71.973  1.00  0.00    -0.374 C  
HETATM   19  C   UNL     1     -11.015   7.836  72.866  1.00  0.00    -0.467 C  
HETATM   20  C   UNL     1     -13.335   8.843  72.578  1.00  0.00    -0.451 C  
HETATM   21  C   UNL     1      -9.938   6.859  72.384  1.00  0.00    -0.181 C  
HETATM   22  C   UNL     1      -9.949   6.399  70.907  1.00  0.00    -0.211 C  
BRANCH  22  23
HETATM   23  C   UNL     1      -9.846   4.869  70.778  1.00  0.00    -0.285 C  
HETATM   24  C   UNL     1      -9.703   4.286  69.575  1.00  0.00    -0.272 C  
HETATM   25  C   UNL     1      -9.886   4.021  72.018  1.00  0.00    -0.242 C  
ENDBRANCH  22  23
ENDBRANCH   9  16
ENDBRANCH   5   6
ENDBRANCH   4   5
ENDBRANCH   3   4
ENDBRANCH   2   3
TORSDOF 6
ENDMDL
MODEL       44
REMARK 921   NORMALIZED FREE ENERGY PREDICTED BY IDOCK:   -5.30 KCAL/MOL
REMARK 922        TOTAL FREE ENERGY PREDICTED BY IDOCK:   -8.09 KCAL/MOL
REMARK 923 INTER-LIGAND FREE ENERGY PREDICTED BY IDOCK:   -7.12 KCAL/MOL
REMARK 924 INTRA-LIGAND FREE ENERGY PREDICTED BY IDOCK:   -0.97 KCAL/MOL
REMARK 927      BINDING AFFINITY PREDICTED BY RF-SCORE:    0.00 PKD
ROOT
HETATM    1  C   UNL     1     -12.754  11.799  63.519  1.00  0.00    -0.428 C  
HETATM    2  C   UNL     1     -11.706  12.886  63.355  1.00  0.00    -0.526 C  
ENDROOT
BRANCH   2   3
HETATM    3  C   UNL     1     -12.068  14.131  64.166  1.00  0.00    -0.437 C  
BRANCH   3   4
HETATM    4  C   UNL     1     -12.844  13.754  65.422  1.00  0.00    -0.455 C  
BRANCH   4   5
HETATM    5  C   UNL     1     -12.139  14.249  66.685  1.00  0.00    -0.448 C  
BRANCH   5   6
HETATM    6  C   UNL     1     -11.786  13.094  67.590  1.00  0.00    -0.405 A  
HETATM    7  C   UNL     1     -12.031  13.174  68.961  1.00  0.00    -0.329 A  
HETATM    8  C   UNL     1     -11.645  12.136  69.811  1.00  0.00    -0.262 A  
HETATM    9  C   UNL     1     -10.968  10.995  69.338  1.00  0.00    -0.301 A  
HETATM   10  O   UNL     1     -11.945  12.260  71.140  1.00  0.00    -0.262 OA 
HETATM   11  H   UNL     1     -10.049   9.804  66.375  1.00  0.00     0.000 HD 
HETATM   12  H   UNL     1     -11.682  11.553  71.718  1.00  0.00     0.000 HD 
HETATM   13  C   UNL     1     -10.774  10.917  67.946  1.00  0.00    -0.231 A  
HETATM   14  O   UNL     1     -10.180   9.856  67.314  1.00  0.00    -0.195 OA 
HETATM   15  C   UNL     1     -11.185  11.940  67.085  1.00  0.00    -0.377 A  
BRANCH   9  16
HETATM   16  C   UNL     1     -10.539   9.866  70.290  1.00  0.00    -0.359 C  
HETATM   17  C   UNL     1      -9.065   9.603  70.123  1.00  0.00    -0.280 C  
HETATM   18  C   UNL     1      -8.544   8.463  69.652  1.00  0.00    -0.132 C  
HETATM   19  C   UNL     1      -9.396   7.297  69.255  1.00  0.00    -0.154 C  
HETATM   20  C   UNL     1      -7.067   8.309  69.422  1.00  0.00    -0.055 C  
HETATM   21  C   UNL     1     -10.866   7.305  69.687  1.00  0.00    -0.238 C  
HETATM   22  C   UNL     1     -11.479   8.613  70.237  1.00  0.00    -0.084 C  
BRANCH  22  23
HETATM   23  C   UNL     1     -12.225   8.387  71.565  1.00  0.00    -0.340 C  
HETATM   24  C   UNL     1     -13.552   8.584  71.652  1.00  0.00    -0.393 C  
HETATM   25  C   UNL     1     -11.459   7.922  72.770  1.00  0.00    -0.428 C  
ENDBRANCH  22  23
ENDBRANCH   9  16
ENDBRANCH   5   6
ENDBRANCH   4   5
ENDBRANCH   3   4
ENDBRANCH   2   3
TORSDOF 6
ENDMDL
MODEL       45
REMARK 921   NORMALIZED FREE ENERGY PREDICTED BY IDOCK:   -5.28 KCAL/MOL
REMARK 922        TOTAL FREE ENERGY PREDICTED BY IDOCK:   -8.06 KCAL/MOL
REMARK 923 INTER-LIGAND FREE ENERGY PREDICTED BY IDOCK:   -7.08 KCAL/MOL
REMARK 924 INTRA-LIGAND FREE ENERGY PREDICTED BY IDOCK:   -0.99 KCAL/MOL
REMARK 927      BINDING AFFINITY PREDICTED BY RF-SCORE:    0.00 PKD
ROOT
HETATM    1  C   UNL     1      -6.735  20.227  66.477  1.00  0.00    -0.268 C  
HETATM    2  C   UNL     1      -7.877  20.583  67.413  1.00  0.00    -0.355 C  
ENDROOT
BRANCH   2   3
HETATM    3  C   UNL     1      -9.233  20.385  66.733  1.00  0.00    -0.404 C  
BRANCH   3   4
HETATM    4  C   UNL     1     -10.285  19.935  67.740  1.00  0.00    -0.567 C  
BRANCH   4   5
HETATM    5  C   UNL     1      -9.702  18.955  68.759  1.00  0.00    -0.454 C  
BRANCH   5   6
HETATM    6  C   UNL     1      -9.676  17.553  68.200  1.00  0.00    -0.302 A  
HETATM    7  C   UNL     1      -8.500  17.036  67.655  1.00  0.00    -0.210 A  
HETATM    8  C   UNL     1      -8.489  15.765  67.076  1.00  0.00    -0.220 A  
HETATM    9  C   UNL     1      -9.651  14.975  66.983  1.00  0.00    -0.233 A  
HETATM   10  O   UNL     1      -7.297  15.300  66.591  1.00  0.00    -0.264 OA 
HETATM   11  H   UNL     1     -12.797  15.199  68.028  1.00  0.00     0.000 HD 
HETATM   12  H   UNL     1      -7.289  14.435  66.197  1.00  0.00     0.000 HD 
HETATM   13  C   UNL     1     -10.813  15.500  67.580  1.00  0.00    -0.306 A  
HETATM   14  O   UNL     1     -12.014  14.844  67.625  1.00  0.00    -0.317 OA 
HETATM   15  C   UNL     1     -10.824  16.760  68.188  1.00  0.00    -0.353 A  
BRANCH   9  16
HETATM   16  C   UNL     1      -9.623  13.583  66.331  1.00  0.00    -0.268 C  
HETATM   17  C   UNL     1     -10.295  13.646  64.984  1.00  0.00    -0.393 C  
HETATM   18  C   UNL     1     -11.429  13.008  64.669  1.00  0.00    -0.374 C  
HETATM   19  C   UNL     1     -12.149  12.127  65.642  1.00  0.00    -0.180 C  
HETATM   20  C   UNL     1     -12.093  13.197  63.333  1.00  0.00    -0.558 C  
HETATM   21  C   UNL     1     -11.406  11.710  66.915  1.00  0.00    -0.364 C  
HETATM   22  C   UNL     1     -10.093  12.434  67.288  1.00  0.00    -0.214 C  
BRANCH  22  23
HETATM   23  C   UNL     1      -8.959  11.445  67.613  1.00  0.00    -0.140 C  
HETATM   24  C   UNL     1      -7.912  11.298  66.783  1.00  0.00    -0.159 C  
HETATM   25  C   UNL     1      -9.019  10.650  68.887  1.00  0.00    -0.172 C  
ENDBRANCH  22  23
ENDBRANCH   9  16
ENDBRANCH   5   6
ENDBRANCH   4   5
ENDBRANCH   3   4
ENDBRANCH   2   3
TORSDOF 6
ENDMDL
MODEL       46
REMARK 921   NORMALIZED FREE ENERGY PREDICTED BY IDOCK:   -5.27 KCAL/MOL
REMARK 922        TOTAL FREE ENERGY PREDICTED BY IDOCK:   -8.05 KCAL/MOL
REMARK 923 INTER-LIGAND FREE ENERGY PREDICTED BY IDOCK:   -7.20 KCAL/MOL
REMARK 924 INTRA-LIGAND FREE ENERGY PREDICTED BY IDOCK:   -0.85 KCAL/MOL
REMARK 927      BINDING AFFINITY PREDICTED BY RF-SCORE:    0.00 PKD
ROOT
HETATM    1  C   UNL     1     -10.307   5.316  73.327  1.00  0.00    -0.239 C  
HETATM    2  C   UNL     1     -10.930   6.424  72.495  1.00  0.00    -0.283 C  
ENDROOT
BRANCH   2   3
HETATM    3  C   UNL     1     -10.556   7.802  73.039  1.00  0.00    -0.441 C  
BRANCH   3   4
HETATM    4  C   UNL     1     -10.520   8.837  71.921  1.00  0.00    -0.423 C  
BRANCH   4   5
HETATM    5  C   UNL     1     -11.337   8.383  70.712  1.00  0.00    -0.290 C  
BRANCH   5   6
HETATM    6  C   UNL     1     -11.154   9.333  69.553  1.00  0.00    -0.099 A  
HETATM    7  C   UNL     1     -10.405   8.949  68.441  1.00  0.00    -0.237 A  
HETATM    8  C   UNL     1     -10.176   9.848  67.398  1.00  0.00    -0.222 A  
HETATM    9  C   UNL     1     -10.651  11.173  67.434  1.00  0.00    -0.272 A  
HETATM   10  O   UNL     1      -9.463   9.399  66.319  1.00  0.00    -0.178 OA 
HETATM   11  H   UNL     1     -12.557  12.985  69.465  1.00  0.00     0.000 HD 
HETATM   12  H   UNL     1      -9.308  10.011  65.609  1.00  0.00     0.000 HD 
HETATM   13  C   UNL     1     -11.442  11.522  68.546  1.00  0.00    -0.292 A  
HETATM   14  O   UNL     1     -12.023  12.750  68.715  1.00  0.00    -0.305 OA 
HETATM   15  C   UNL     1     -11.700  10.617  69.580  1.00  0.00    -0.368 A  
BRANCH   9  16
HETATM   16  C   UNL     1     -10.379  12.153  66.282  1.00  0.00    -0.250 C  
HETATM   17  C   UNL     1      -9.480  13.261  66.767  1.00  0.00    -0.257 C  
HETATM   18  C   UNL     1      -9.837  14.547  66.856  1.00  0.00    -0.265 C  
HETATM   19  C   UNL     1     -11.195  15.031  66.451  1.00  0.00    -0.310 C  
HETATM   20  C   UNL     1      -8.916  15.582  67.442  1.00  0.00    -0.203 C  
HETATM   21  C   UNL     1     -12.078  14.083  65.634  1.00  0.00    -0.432 C  
HETATM   22  C   UNL     1     -11.674  12.595  65.518  1.00  0.00    -0.446 C  
BRANCH  22  23
HETATM   23  C   UNL     1     -11.687  12.105  64.059  1.00  0.00    -0.515 C  
HETATM   24  C   UNL     1     -12.846  11.860  63.423  1.00  0.00    -0.393 C  
HETATM   25  C   UNL     1     -10.385  11.917  63.334  1.00  0.00    -0.481 C  
ENDBRANCH  22  23
ENDBRANCH   9  16
ENDBRANCH   5   6
ENDBRANCH   4   5
ENDBRANCH   3   4
ENDBRANCH   2   3
TORSDOF 6
ENDMDL
MODEL       47
REMARK 921   NORMALIZED FREE ENERGY PREDICTED BY IDOCK:   -5.25 KCAL/MOL
REMARK 922        TOTAL FREE ENERGY PREDICTED BY IDOCK:   -8.03 KCAL/MOL
REMARK 923 INTER-LIGAND FREE ENERGY PREDICTED BY IDOCK:   -7.13 KCAL/MOL
REMARK 924 INTRA-LIGAND FREE ENERGY PREDICTED BY IDOCK:   -0.89 KCAL/MOL
REMARK 927      BINDING AFFINITY PREDICTED BY RF-SCORE:    0.00 PKD
ROOT
HETATM    1  C   UNL     1     -10.889   8.214  72.477  1.00  0.00    -0.431 C  
HETATM    2  C   UNL     1     -10.524   6.769  72.772  1.00  0.00    -0.247 C  
ENDROOT
BRANCH   2   3
HETATM    3  C   UNL     1     -11.145   5.821  71.745  1.00  0.00    -0.301 C  
BRANCH   3   4
HETATM    4  C   UNL     1     -11.730   6.597  70.572  1.00  0.00    -0.453 C  
BRANCH   4   5
HETATM    5  C   UNL     1     -10.949   6.337  69.284  1.00  0.00    -0.435 C  
BRANCH   5   6
HETATM    6  C   UNL     1     -10.785   7.611  68.490  1.00  0.00    -0.094 A  
HETATM    7  C   UNL     1     -10.238   7.574  67.207  1.00  0.00    -0.337 A  
HETATM    8  C   UNL     1     -10.022   8.756  66.497  1.00  0.00    -0.290 A  
HETATM    9  C   UNL     1     -10.305  10.022  67.046  1.00  0.00    -0.305 A  
HETATM   10  O   UNL     1      -9.516   8.651  65.229  1.00  0.00    -0.435 OA 
HETATM   11  H   UNL     1     -11.682  11.173  69.843  1.00  0.00     0.000 HD 
HETATM   12  H   UNL     1      -9.369   9.455  64.746  1.00  0.00     0.000 HD 
HETATM   13  C   UNL     1     -10.897  10.030  68.323  1.00  0.00    -0.241 A  
HETATM   14  O   UNL     1     -11.282  11.168  68.981  1.00  0.00    -0.212 OA 
HETATM   15  C   UNL     1     -11.145   8.847  69.028  1.00  0.00     0.141 A  
BRANCH   9  16
HETATM   16  C   UNL     1     -10.049  11.314  66.253  1.00  0.00    -0.271 C  
HETATM   17  C   UNL     1      -9.176  12.236  67.065  1.00  0.00    -0.205 C  
HETATM   18  C   UNL     1      -9.561  13.426  67.542  1.00  0.00    -0.221 C  
HETATM   19  C   UNL     1     -10.928  13.985  67.290  1.00  0.00    -0.303 C  
HETATM   20  C   UNL     1      -8.666  14.246  68.428  1.00  0.00    -0.181 C  
HETATM   21  C   UNL     1     -11.786  13.317  66.212  1.00  0.00    -0.444 C  
HETATM   22  C   UNL     1     -11.350  11.945  65.648  1.00  0.00    -0.339 C  
BRANCH  22  23
HETATM   23  C   UNL     1     -11.345  11.927  64.109  1.00  0.00    -0.455 C  
HETATM   24  C   UNL     1     -10.193  11.839  63.423  1.00  0.00    -0.482 C  
HETATM   25  C   UNL     1     -12.651  11.990  63.369  1.00  0.00    -0.592 C  
ENDBRANCH  22  23
ENDBRANCH   9  16
ENDBRANCH   5   6
ENDBRANCH   4   5
ENDBRANCH   3   4
ENDBRANCH   2   3
TORSDOF 6
ENDMDL
MODEL       48
REMARK 921   NORMALIZED FREE ENERGY PREDICTED BY IDOCK:   -5.24 KCAL/MOL
REMARK 922        TOTAL FREE ENERGY PREDICTED BY IDOCK:   -8.01 KCAL/MOL
REMARK 923 INTER-LIGAND FREE ENERGY PREDICTED BY IDOCK:   -6.98 KCAL/MOL
REMARK 924 INTRA-LIGAND FREE ENERGY PREDICTED BY IDOCK:   -1.03 KCAL/MOL
REMARK 927      BINDING AFFINITY PREDICTED BY RF-SCORE:    0.00 PKD
ROOT
HETATM    1  C   UNL     1     -10.410  19.636  66.723  1.00  0.00    -0.591 C  
HETATM    2  C   UNL     1      -9.841  18.333  67.257  1.00  0.00    -0.327 C  
ENDROOT
BRANCH   2   3
HETATM    3  C   UNL     1     -10.062  18.210  68.765  1.00  0.00    -0.392 C  
BRANCH   3   4
HETATM    4  C   UNL     1     -10.316  16.760  69.161  1.00  0.00    -0.326 C  
BRANCH   4   5
HETATM    5  C   UNL     1     -11.526  16.183  68.426  1.00  0.00    -0.298 C  
BRANCH   5   6
HETATM    6  C   UNL     1     -11.212  14.818  67.864  1.00  0.00    -0.318 A  
HETATM    7  C   UNL     1     -12.056  14.236  66.919  1.00  0.00    -0.440 A  
HETATM    8  C   UNL     1     -11.806  12.946  66.446  1.00  0.00    -0.415 A  
HETATM    9  C   UNL     1     -10.730  12.171  66.920  1.00  0.00    -0.271 A  
HETATM   10  O   UNL     1     -12.651  12.445  65.493  1.00  0.00    -0.616 OA 
HETATM   11  H   UNL     1      -8.164  12.631  68.981  1.00  0.00     0.000 HD 
HETATM   12  H   UNL     1     -12.480  11.567  65.172  1.00  0.00     0.000 HD 
HETATM   13  C   UNL     1      -9.867  12.798  67.839  1.00  0.00    -0.223 A  
HETATM   14  O   UNL     1      -8.746  12.208  68.361  1.00  0.00    -0.176 OA 
HETATM   15  C   UNL     1     -10.094  14.101  68.294  1.00  0.00    -0.241 A  
BRANCH   9  16
HETATM   16  C   UNL     1     -10.476  10.748  66.397  1.00  0.00    -0.293 C  
HETATM   17  C   UNL     1     -10.723   9.756  67.504  1.00  0.00    -0.327 C  
HETATM   18  C   UNL     1      -9.782   8.976  68.051  1.00  0.00    -0.179 C  
HETATM   19  C   UNL     1      -8.358   8.997  67.592  1.00  0.00    -0.117 C  
HETATM   20  C   UNL     1     -10.085   8.080  69.220  1.00  0.00    -0.198 C  
HETATM   21  C   UNL     1      -8.044   9.699  66.267  1.00  0.00    -0.112 C  
HETATM   22  C   UNL     1      -9.123  10.598  65.620  1.00  0.00    -0.206 C  
BRANCH  22  23
HETATM   23  C   UNL     1      -9.339  10.265  64.133  1.00  0.00    -0.336 C  
HETATM   24  C   UNL     1     -10.183  10.989  63.378  1.00  0.00    -0.404 C  
HETATM   25  C   UNL     1      -8.577   9.125  63.517  1.00  0.00    -0.177 C  
ENDBRANCH  22  23
ENDBRANCH   9  16
ENDBRANCH   5   6
ENDBRANCH   4   5
ENDBRANCH   3   4
ENDBRANCH   2   3
TORSDOF 6
ENDMDL
MODEL       49
REMARK 921   NORMALIZED FREE ENERGY PREDICTED BY IDOCK:   -5.23 KCAL/MOL
REMARK 922        TOTAL FREE ENERGY PREDICTED BY IDOCK:   -8.00 KCAL/MOL
REMARK 923 INTER-LIGAND FREE ENERGY PREDICTED BY IDOCK:   -7.05 KCAL/MOL
REMARK 924 INTRA-LIGAND FREE ENERGY PREDICTED BY IDOCK:   -0.95 KCAL/MOL
REMARK 927      BINDING AFFINITY PREDICTED BY RF-SCORE:    0.00 PKD
ROOT
HETATM    1  C   UNL     1     -10.846  12.168  63.473  1.00  0.00    -0.518 C  
HETATM    2  C   UNL     1     -12.343  12.149  63.729  1.00  0.00    -0.635 C  
ENDROOT
BRANCH   2   3
HETATM    3  C   UNL     1     -12.718  13.066  64.894  1.00  0.00    -0.456 C  
BRANCH   3   4
HETATM    4  C   UNL     1     -11.546  13.231  65.854  1.00  0.00    -0.380 C  
BRANCH   4   5
HETATM    5  C   UNL     1     -12.000  13.149  67.311  1.00  0.00    -0.389 C  
BRANCH   5   6
HETATM    6  C   UNL     1     -11.554  11.851  67.940  1.00  0.00    -0.393 A  
HETATM    7  C   UNL     1     -11.605  11.686  69.324  1.00  0.00    -0.385 A  
HETATM    8  C   UNL     1     -11.130  10.514  69.914  1.00  0.00    -0.307 A  
HETATM    9  C   UNL     1     -10.553   9.475  69.157  1.00  0.00    -0.237 A  
HETATM   10  O   UNL     1     -11.240  10.398  71.273  1.00  0.00    -0.209 OA 
HETATM   11  H   UNL     1     -10.081   8.831  65.932  1.00  0.00     0.000 HD 
HETATM   12  H   UNL     1     -10.917   9.600  71.675  1.00  0.00     0.000 HD 
HETATM   13  C   UNL     1     -10.554   9.646  67.760  1.00  0.00    -0.264 A  
HETATM   14  O   UNL     1     -10.080   8.716  66.874  1.00  0.00    -0.232 OA 
HETATM   15  C   UNL     1     -11.056  10.806  67.160  1.00  0.00    -0.297 A  
BRANCH   9  16
HETATM   16  C   UNL     1     -10.024   8.196  69.825  1.00  0.00    -0.191 C  
HETATM   17  C   UNL     1      -8.602   7.953  69.388  1.00  0.00    -0.137 C  
HETATM   18  C   UNL     1      -8.200   6.907  68.656  1.00  0.00    -0.121 C  
HETATM   19  C   UNL     1      -9.143   5.835  68.205  1.00  0.00    -0.110 C  
HETATM   20  C   UNL     1      -6.781   6.783  68.174  1.00  0.00    -0.068 C  
HETATM   21  C   UNL     1     -10.528   5.780  68.856  1.00  0.00    -0.326 C  
HETATM   22  C   UNL     1     -11.003   6.978  69.709  1.00  0.00    -0.283 C  
BRANCH  22  23
HETATM   23  C   UNL     1     -11.546   6.533  71.079  1.00  0.00    -0.405 C  
HETATM   24  C   UNL     1     -12.676   7.062  71.579  1.00  0.00    -0.425 C  
HETATM   25  C   UNL     1     -10.809   5.479  71.856  1.00  0.00    -0.286 C  
ENDBRANCH  22  23
ENDBRANCH   9  16
ENDBRANCH   5   6
ENDBRANCH   4   5
ENDBRANCH   3   4
ENDBRANCH   2   3
TORSDOF 6
ENDMDL
MODEL       50
REMARK 921   NORMALIZED FREE ENERGY PREDICTED BY IDOCK:   -5.23 KCAL/MOL
REMARK 922        TOTAL FREE ENERGY PREDICTED BY IDOCK:   -7.99 KCAL/MOL
REMARK 923 INTER-LIGAND FREE ENERGY PREDICTED BY IDOCK:   -7.30 KCAL/MOL
REMARK 924 INTRA-LIGAND FREE ENERGY PREDICTED BY IDOCK:   -0.69 KCAL/MOL
REMARK 927      BINDING AFFINITY PREDICTED BY RF-SCORE:    0.00 PKD
ROOT
HETATM    1  C   UNL     1      -8.717  10.223  64.615  1.00  0.00    -0.203 C  
HETATM    2  C   UNL     1     -10.173  10.641  64.732  1.00  0.00    -0.401 C  
ENDROOT
BRANCH   2   3
HETATM    3  C   UNL     1     -10.686  11.235  63.420  1.00  0.00    -0.349 C  
BRANCH   3   4
HETATM    4  C   UNL     1     -11.100  12.689  63.607  1.00  0.00    -0.496 C  
BRANCH   4   5
HETATM    5  C   UNL     1     -11.519  12.971  65.050  1.00  0.00    -0.345 C  
BRANCH   5   6
HETATM    6  C   UNL     1     -10.703  14.098  65.635  1.00  0.00    -0.317 A  
HETATM    7  C   UNL     1     -10.978  15.420  65.286  1.00  0.00    -0.397 A  
HETATM    8  C   UNL     1     -10.183  16.460  65.772  1.00  0.00    -0.348 A  
HETATM    9  C   UNL     1      -9.063  16.225  66.593  1.00  0.00    -0.278 A  
HETATM   10  O   UNL     1     -10.527  17.738  65.421  1.00  0.00    -0.641 OA 
HETATM   11  H   UNL     1      -7.666  13.586  68.051  1.00  0.00     0.000 HD 
HETATM   12  H   UNL     1      -9.986  18.445  65.752  1.00  0.00     0.000 HD 
HETATM   13  C   UNL     1      -8.833  14.887  66.967  1.00  0.00    -0.232 A  
HETATM   14  O   UNL     1      -7.821  14.489  67.799  1.00  0.00    -0.132 OA 
HETATM   15  C   UNL     1      -9.644  13.844  66.508  1.00  0.00    -0.299 A  
BRANCH   9  16
HETATM   16  C   UNL     1      -8.192  17.382  67.108  1.00  0.00    -0.229 C  
HETATM   17  C   UNL     1      -8.907  18.086  68.232  1.00  0.00    -0.291 C  
HETATM   18  C   UNL     1      -9.339  19.352  68.183  1.00  0.00    -0.406 C  
HETATM   19  C   UNL     1      -9.131  20.224  66.983  1.00  0.00    -0.481 C  
HETATM   20  C   UNL     1     -10.133  19.957  69.308  1.00  0.00    -0.268 C  
HETATM   21  C   UNL     1      -8.135  19.751  65.920  1.00  0.00    -0.263 C  
HETATM   22  C   UNL     1      -7.623  18.293  65.968  1.00  0.00    -0.229 C  
BRANCH  22  23
HETATM   23  C   UNL     1      -6.088  18.216  65.869  1.00  0.00    -0.268 C  
HETATM   24  C   UNL     1      -5.439  18.720  64.806  1.00  0.00    -0.255 C  
HETATM   25  C   UNL     1      -5.310  17.586  66.990  1.00  0.00    -0.169 C  
ENDBRANCH  22  23
ENDBRANCH   9  16
ENDBRANCH   5   6
ENDBRANCH   4   5
ENDBRANCH   3   4
ENDBRANCH   2   3
TORSDOF 6
ENDMDL
MODEL       51
REMARK 921   NORMALIZED FREE ENERGY PREDICTED BY IDOCK:   -5.22 KCAL/MOL
REMARK 922        TOTAL FREE ENERGY PREDICTED BY IDOCK:   -7.98 KCAL/MOL
REMARK 923 INTER-LIGAND FREE ENERGY PREDICTED BY IDOCK:   -6.97 KCAL/MOL
REMARK 924 INTRA-LIGAND FREE ENERGY PREDICTED BY IDOCK:   -1.01 KCAL/MOL
REMARK 927      BINDING AFFINITY PREDICTED BY RF-SCORE:    0.00 PKD
ROOT
HETATM    1  C   UNL     1     -12.694  12.037  63.454  1.00  0.00    -0.527 C  
HETATM    2  C   UNL     1     -11.700  13.186  63.484  1.00  0.00    -0.472 C  
ENDROOT
BRANCH   2   3
HETATM    3  C   UNL     1     -12.143  14.275  64.462  1.00  0.00    -0.499 C  
BRANCH   3   4
HETATM    4  C   UNL     1     -12.781  13.664  65.703  1.00  0.00    -0.505 C  
BRANCH   4   5
HETATM    5  C   UNL     1     -11.991  14.008  66.966  1.00  0.00    -0.472 C  
BRANCH   5   6
HETATM    6  C   UNL     1     -11.534  12.754  67.671  1.00  0.00    -0.387 A  
HETATM    7  C   UNL     1     -10.746  11.819  67.000  1.00  0.00    -0.286 A  
HETATM    8  C   UNL     1     -10.377  10.626  67.626  1.00  0.00    -0.209 A  
HETATM    9  C   UNL     1     -10.806  10.300  68.927  1.00  0.00    -0.263 A  
HETATM   10  O   UNL     1      -9.574   9.766  66.927  1.00  0.00    -0.166 OA 
HETATM   11  H   UNL     1     -12.527  11.808  71.337  1.00  0.00     0.000 HD 
HETATM   12  H   UNL     1      -9.323   8.954  67.354  1.00  0.00     0.000 HD 
HETATM   13  C   UNL     1     -11.563  11.279  69.598  1.00  0.00    -0.330 A  
HETATM   14  O   UNL     1     -12.017  11.147  70.884  1.00  0.00    -0.331 OA 
HETATM   15  C   UNL     1     -11.910  12.489  68.988  1.00  0.00    -0.344 A  
BRANCH   9  16
HETATM   16  C   UNL     1     -10.401   8.976  69.596  1.00  0.00    -0.217 C  
HETATM   17  C   UNL     1     -11.639   8.209  69.981  1.00  0.00     0.184 C  
HETATM   18  C   UNL     1     -12.002   7.932  71.239  1.00  0.00    -0.321 C  
HETATM   19  C   UNL     1     -11.181   8.348  72.420  1.00  0.00    -0.438 C  
HETATM   20  C   UNL     1     -13.303   7.246  71.550  1.00  0.00    -0.435 C  
HETATM   21  C   UNL     1      -9.749   8.828  72.162  1.00  0.00    -0.335 C  
HETATM   22  C   UNL     1      -9.315   9.147  70.713  1.00  0.00    -0.325 C  
BRANCH  22  23
HETATM   23  C   UNL     1      -7.986   8.463  70.344  1.00  0.00    -0.099 C  
HETATM   24  C   UNL     1      -6.845   8.784  70.977  1.00  0.00    -0.074 C  
HETATM   25  C   UNL     1      -7.974   7.408  69.274  1.00  0.00    -0.118 C  
ENDBRANCH  22  23
ENDBRANCH   9  16
ENDBRANCH   5   6
ENDBRANCH   4   5
ENDBRANCH   3   4
ENDBRANCH   2   3
TORSDOF 6
ENDMDL
MODEL       52
REMARK 921   NORMALIZED FREE ENERGY PREDICTED BY IDOCK:   -5.18 KCAL/MOL
REMARK 922        TOTAL FREE ENERGY PREDICTED BY IDOCK:   -7.93 KCAL/MOL
REMARK 923 INTER-LIGAND FREE ENERGY PREDICTED BY IDOCK:   -7.36 KCAL/MOL
REMARK 924 INTRA-LIGAND FREE ENERGY PREDICTED BY IDOCK:   -0.57 KCAL/MOL
REMARK 927      BINDING AFFINITY PREDICTED BY RF-SCORE:    0.00 PKD
ROOT
HETATM    1  C   UNL     1     -11.614   6.397  70.535  1.00  0.00    -0.424 C  
HETATM    2  C   UNL     1     -12.112   7.170  71.744  1.00  0.00    -0.363 C  
ENDROOT
BRANCH   2   3
HETATM    3  C   UNL     1     -13.523   7.713  71.512  1.00  0.00    -0.394 C  
BRANCH   3   4
HETATM    4  C   UNL     1     -13.507   9.231  71.384  1.00  0.00    -0.384 C  
BRANCH   4   5
HETATM    5  C   UNL     1     -12.122   9.804  71.684  1.00  0.00    -0.475 C  
BRANCH   5   6
HETATM    6  C   UNL     1     -11.437  10.246  70.413  1.00  0.00    -0.415 A  
HETATM    7  C   UNL     1     -12.141  10.971  69.452  1.00  0.00    -0.389 A  
HETATM    8  C   UNL     1     -11.532  11.324  68.246  1.00  0.00    -0.308 A  
HETATM    9  C   UNL     1     -10.214  10.939  67.933  1.00  0.00    -0.205 A  
HETATM   10  O   UNL     1     -12.264  12.066  67.359  1.00  0.00    -0.491 OA 
HETATM   11  H   UNL     1      -7.733   9.377  69.496  1.00  0.00     0.000 HD 
HETATM   12  H   UNL     1     -11.850  12.306  66.539  1.00  0.00     0.000 HD 
HETATM   13  C   UNL     1      -9.511  10.247  68.937  1.00  0.00    -0.188 A  
HETATM   14  O   UNL     1      -8.207   9.843  68.819  1.00  0.00    -0.106 OA 
HETATM   15  C   UNL     1     -10.105   9.917  70.159  1.00  0.00    -0.309 A  
BRANCH   9  16
HETATM   16  C   UNL     1      -9.564  11.326  66.595  1.00  0.00    -0.218 C  
HETATM   17  C   UNL     1      -9.675  12.815  66.395  1.00  0.00    -0.261 C  
HETATM   18  C   UNL     1     -10.387  13.401  65.424  1.00  0.00    -0.321 C  
HETATM   19  C   UNL     1     -11.146  12.615  64.401  1.00  0.00    -0.385 C  
HETATM   20  C   UNL     1     -10.530  14.896  65.347  1.00  0.00    -0.406 C  
HETATM   21  C   UNL     1     -10.846  11.117  64.283  1.00  0.00    -0.354 C  
HETATM   22  C   UNL     1     -10.021  10.428  65.394  1.00  0.00    -0.362 C  
BRANCH  22  23
HETATM   23  C   UNL     1      -8.865   9.590  64.819  1.00  0.00    -0.244 C  
HETATM   24  C   UNL     1      -8.562   8.386  65.335  1.00  0.00    -0.193 C  
HETATM   25  C   UNL     1      -8.080  10.120  63.653  1.00  0.00    -0.163 C  
ENDBRANCH  22  23
ENDBRANCH   9  16
ENDBRANCH   5   6
ENDBRANCH   4   5
ENDBRANCH   3   4
ENDBRANCH   2   3
TORSDOF 6
ENDMDL
MODEL       53
REMARK 921   NORMALIZED FREE ENERGY PREDICTED BY IDOCK:   -5.17 KCAL/MOL
REMARK 922        TOTAL FREE ENERGY PREDICTED BY IDOCK:   -7.91 KCAL/MOL
REMARK 923 INTER-LIGAND FREE ENERGY PREDICTED BY IDOCK:   -7.18 KCAL/MOL
REMARK 924 INTRA-LIGAND FREE ENERGY PREDICTED BY IDOCK:   -0.74 KCAL/MOL
REMARK 927      BINDING AFFINITY PREDICTED BY RF-SCORE:    0.00 PKD
ROOT
HETATM    1  C   UNL     1     -11.120   6.006  69.696  1.00  0.00    -0.474 C  
HETATM    2  C   UNL     1     -11.642   6.718  70.932  1.00  0.00    -0.403 C  
ENDROOT
BRANCH   2   3
HETATM    3  C   UNL     1     -10.506   7.059  71.896  1.00  0.00    -0.223 C  
BRANCH   3   4
HETATM    4  C   UNL     1     -10.194   8.550  71.864  1.00  0.00    -0.369 C  
BRANCH   4   5
HETATM    5  C   UNL     1      -9.247   8.898  70.714  1.00  0.00    -0.272 C  
BRANCH   5   6
HETATM    6  C   UNL     1      -9.861   9.941  69.812  1.00  0.00    -0.268 A  
HETATM    7  C   UNL     1      -9.272  10.242  68.584  1.00  0.00    -0.159 A  
HETATM    8  C   UNL     1      -9.797  11.253  67.777  1.00  0.00    -0.173 A  
HETATM    9  C   UNL     1     -10.905  12.028  68.174  1.00  0.00    -0.257 A  
HETATM   10  O   UNL     1      -9.196  11.477  66.568  1.00  0.00    -0.183 OA 
HETATM   11  H   UNL     1     -13.028  12.050  70.730  1.00  0.00     0.000 HD 
HETATM   12  H   UNL     1      -9.554  12.165  66.019  1.00  0.00     0.000 HD 
HETATM   13  C   UNL     1     -11.508  11.675  69.396  1.00  0.00    -0.307 A  
HETATM   14  O   UNL     1     -12.621  12.289  69.906  1.00  0.00     0.028 OA 
HETATM   15  C   UNL     1     -11.005  10.643  70.195  1.00  0.00    -0.292 A  
BRANCH   9  16
HETATM   16  C   UNL     1     -11.462  13.146  67.278  1.00  0.00    -0.375 C  
HETATM   17  C   UNL     1     -12.072  12.539  66.040  1.00  0.00    -0.390 C  
HETATM   18  C   UNL     1     -11.611  12.722  64.797  1.00  0.00    -0.368 C  
HETATM   19  C   UNL     1     -10.426  13.588  64.502  1.00  0.00    -0.426 C  
HETATM   20  C   UNL     1     -12.213  12.005  63.620  1.00  0.00    -0.642 C  
HETATM   21  C   UNL     1      -9.928  14.522  65.609  1.00  0.00    -0.376 C  
HETATM   22  C   UNL     1     -10.456  14.325  67.049  1.00  0.00    -0.271 C  
BRANCH  22  23
HETATM   23  C   UNL     1     -10.953  15.644  67.667  1.00  0.00    -0.315 C  
HETATM   24  C   UNL     1     -11.764  15.642  68.740  1.00  0.00    -0.382 C  
HETATM   25  C   UNL     1     -10.508  16.950  67.072  1.00  0.00    -0.281 C  
ENDBRANCH  22  23
ENDBRANCH   9  16
ENDBRANCH   5   6
ENDBRANCH   4   5
ENDBRANCH   3   4
ENDBRANCH   2   3
TORSDOF 6
ENDMDL
MODEL       54
REMARK 921   NORMALIZED FREE ENERGY PREDICTED BY IDOCK:   -5.17 KCAL/MOL
REMARK 922        TOTAL FREE ENERGY PREDICTED BY IDOCK:   -7.91 KCAL/MOL
REMARK 923 INTER-LIGAND FREE ENERGY PREDICTED BY IDOCK:   -7.59 KCAL/MOL
REMARK 924 INTRA-LIGAND FREE ENERGY PREDICTED BY IDOCK:   -0.31 KCAL/MOL
REMARK 927      BINDING AFFINITY PREDICTED BY RF-SCORE:    0.00 PKD
ROOT
HETATM    1  C   UNL     1     -10.316   4.293  72.835  1.00  0.00    -0.241 C  
HETATM    2  C   UNL     1     -11.485   5.202  73.172  1.00  0.00    -0.348 C  
ENDROOT
BRANCH   2   3
HETATM    3  C   UNL     1     -11.821   6.128  72.002  1.00  0.00    -0.336 C  
BRANCH   3   4
HETATM    4  C   UNL     1     -11.044   7.435  72.103  1.00  0.00    -0.291 C  
BRANCH   4   5
HETATM    5  C   UNL     1     -10.612   7.937  70.725  1.00  0.00    -0.222 C  
BRANCH   5   6
HETATM    6  C   UNL     1     -10.971   9.392  70.547  1.00  0.00    -0.332 A  
HETATM    7  C   UNL     1     -12.009   9.955  71.289  1.00  0.00    -0.489 A  
HETATM    8  C   UNL     1     -12.389  11.283  71.079  1.00  0.00    -0.366 A  
HETATM    9  C   UNL     1     -11.777  12.090  70.101  1.00  0.00    -0.316 A  
HETATM   10  O   UNL     1     -13.391  11.787  71.863  1.00  0.00    -0.448 OA 
HETATM   11  H   UNL     1      -9.240  11.783  67.976  1.00  0.00     0.000 HD 
HETATM   12  H   UNL     1     -13.649  12.690  71.720  1.00  0.00     0.000 HD 
HETATM   13  C   UNL     1     -10.702  11.513  69.398  1.00  0.00    -0.068 A  
HETATM   14  O   UNL     1      -9.965  12.172  68.450  1.00  0.00    -0.208 OA 
HETATM   15  C   UNL     1     -10.297  10.193  69.624  1.00  0.00    -0.278 A  
BRANCH   9  16
HETATM   16  C   UNL     1     -12.216  13.546  69.875  1.00  0.00    -0.356 C  
HETATM   17  C   UNL     1     -12.158  13.865  68.403  1.00  0.00    -0.327 C  
HETATM   18  C   UNL     1     -11.329  14.759  67.851  1.00  0.00    -0.331 C  
HETATM   19  C   UNL     1     -10.366  15.568  68.663  1.00  0.00    -0.219 C  
HETATM   20  C   UNL     1     -11.260  14.952  66.361  1.00  0.00    -0.331 C  
HETATM   21  C   UNL     1     -10.555  15.590  70.183  1.00  0.00    -0.336 C  
HETATM   22  C   UNL     1     -11.514  14.567  70.835  1.00  0.00    -0.165 C  
BRANCH  22  23
HETATM   23  C   UNL     1     -12.508  15.239  71.799  1.00  0.00    -0.431 C  
HETATM   24  C   UNL     1     -12.110  15.677  73.006  1.00  0.00    -0.590 C  
HETATM   25  C   UNL     1     -13.937  15.424  71.372  1.00  0.00    -0.565 C  
ENDBRANCH  22  23
ENDBRANCH   9  16
ENDBRANCH   5   6
ENDBRANCH   4   5
ENDBRANCH   3   4
ENDBRANCH   2   3
TORSDOF 6
ENDMDL
MODEL       55
REMARK 921   NORMALIZED FREE ENERGY PREDICTED BY IDOCK:   -5.16 KCAL/MOL
REMARK 922        TOTAL FREE ENERGY PREDICTED BY IDOCK:   -7.90 KCAL/MOL
REMARK 923 INTER-LIGAND FREE ENERGY PREDICTED BY IDOCK:   -7.17 KCAL/MOL
REMARK 924 INTRA-LIGAND FREE ENERGY PREDICTED BY IDOCK:   -0.73 KCAL/MOL
REMARK 927      BINDING AFFINITY PREDICTED BY RF-SCORE:    0.00 PKD
ROOT
HETATM    1  C   UNL     1     -10.606  19.528  67.458  1.00  0.00    -0.599 C  
HETATM    2  C   UNL     1      -9.517  20.554  67.192  1.00  0.00    -0.544 C  
ENDROOT
BRANCH   2   3
HETATM    3  C   UNL     1      -8.150  20.038  67.642  1.00  0.00    -0.341 C  
BRANCH   3   4
HETATM    4  C   UNL     1      -7.318  19.590  66.446  1.00  0.00    -0.265 C  
BRANCH   4   5
HETATM    5  C   UNL     1      -6.772  18.175  66.643  1.00  0.00    -0.233 C  
BRANCH   5   6
HETATM    6  C   UNL     1      -7.899  17.182  66.793  1.00  0.00    -0.277 A  
HETATM    7  C   UNL     1      -7.920  16.302  67.875  1.00  0.00    -0.153 A  
HETATM    8  C   UNL     1      -8.923  15.337  67.983  1.00  0.00    -0.171 A  
HETATM    9  C   UNL     1      -9.923  15.184  67.002  1.00  0.00    -0.242 A  
HETATM   10  O   UNL     1      -8.909  14.527  69.085  1.00  0.00    -0.350 OA 
HETATM   11  H   UNL     1     -10.819  16.767  64.221  1.00  0.00     0.000 HD 
HETATM   12  H   UNL     1      -9.592  13.870  69.158  1.00  0.00     0.000 HD 
HETATM   13  C   UNL     1      -9.906  16.113  65.944  1.00  0.00    -0.353 A  
HETATM   14  O   UNL     1     -10.831  16.140  64.934  1.00  0.00    -0.582 OA 
HETATM   15  C   UNL     1      -8.921  17.102  65.846  1.00  0.00    -0.020 A  
BRANCH   9  16
HETATM   16  C   UNL     1     -11.013  14.108  67.130  1.00  0.00    -0.304 C  
HETATM   17  C   UNL     1     -11.929  14.455  68.275  1.00  0.00    -0.323 C  
HETATM   18  C   UNL     1     -12.056  13.731  69.393  1.00  0.00    -0.377 C  
HETATM   19  C   UNL     1     -11.299  12.459  69.615  1.00  0.00    -0.193 C  
HETATM   20  C   UNL     1     -12.917  14.193  70.536  1.00  0.00    -0.227 C  
HETATM   21  C   UNL     1     -10.603  11.822  68.408  1.00  0.00    -0.239 C  
HETATM   22  C   UNL     1     -10.453  12.645  67.108  1.00  0.00    -0.245 C  
BRANCH  22  23
HETATM   23  C   UNL     1     -10.921  11.859  65.870  1.00  0.00    -0.354 C  
HETATM   24  C   UNL     1     -10.306  10.723  65.500  1.00  0.00    -0.308 C  
HETATM   25  C   UNL     1     -12.095  12.364  65.078  1.00  0.00    -0.468 C  
ENDBRANCH  22  23
ENDBRANCH   9  16
ENDBRANCH   5   6
ENDBRANCH   4   5
ENDBRANCH   3   4
ENDBRANCH   2   3
TORSDOF 6
ENDMDL
MODEL       56
REMARK 921   NORMALIZED FREE ENERGY PREDICTED BY IDOCK:   -5.14 KCAL/MOL
REMARK 922        TOTAL FREE ENERGY PREDICTED BY IDOCK:   -7.87 KCAL/MOL
REMARK 923 INTER-LIGAND FREE ENERGY PREDICTED BY IDOCK:   -7.34 KCAL/MOL
REMARK 924 INTRA-LIGAND FREE ENERGY PREDICTED BY IDOCK:   -0.54 KCAL/MOL
REMARK 927      BINDING AFFINITY PREDICTED BY RF-SCORE:    0.00 PKD
ROOT
HETATM    1  C   UNL     1      -5.852  20.612  63.602  1.00  0.00    -0.324 C  
HETATM    2  C   UNL     1      -6.385  19.991  64.882  1.00  0.00    -0.325 C  
ENDROOT
BRANCH   2   3
HETATM    3  C   UNL     1      -5.303  19.180  65.596  1.00  0.00    -0.183 C  
BRANCH   3   4
HETATM    4  C   UNL     1      -5.834  18.595  66.900  1.00  0.00    -0.165 C  
BRANCH   4   5
HETATM    5  C   UNL     1      -5.695  17.073  66.928  1.00  0.00    -0.214 C  
BRANCH   5   6
HETATM    6  C   UNL     1      -7.051  16.411  66.965  1.00  0.00    -0.259 A  
HETATM    7  C   UNL     1      -7.263  15.288  67.765  1.00  0.00    -0.184 A  
HETATM    8  C   UNL     1      -8.496  14.633  67.751  1.00  0.00    -0.174 A  
HETATM    9  C   UNL     1      -9.553  15.045  66.916  1.00  0.00    -0.251 A  
HETATM   10  O   UNL     1      -8.652  13.559  68.584  1.00  0.00    -0.311 OA 
HETATM   11  H   UNL     1     -10.113  17.557  64.814  1.00  0.00     0.000 HD 
HETATM   12  H   UNL     1      -9.492  13.113  68.575  1.00  0.00     0.000 HD 
HETATM   13  C   UNL     1      -9.329  16.207  66.153  1.00  0.00    -0.336 A  
HETATM   14  O   UNL     1     -10.265  16.773  65.328  1.00  0.00    -0.607 OA 
HETATM   15  C   UNL     1      -8.106  16.886  66.185  1.00  0.00    -0.295 A  
BRANCH   9  16
HETATM   16  C   UNL     1     -10.900  14.304  66.904  1.00  0.00    -0.298 C  
HETATM   17  C   UNL     1     -11.658  14.622  68.168  1.00  0.00    -0.362 C  
HETATM   18  C   UNL     1     -11.963  13.729  69.117  1.00  0.00    -0.403 C  
HETATM   19  C   UNL     1     -11.591  12.283  69.005  1.00  0.00    -0.368 C  
HETATM   20  C   UNL     1     -12.636  14.139  70.397  1.00  0.00    -0.397 C  
HETATM   21  C   UNL     1     -11.126  11.767  67.640  1.00  0.00    -0.312 C  
HETATM   22  C   UNL     1     -10.776  12.787  66.532  1.00  0.00    -0.277 C  
BRANCH  22  23
HETATM   23  C   UNL     1     -11.471  12.455  65.199  1.00  0.00    -0.379 C  
HETATM   24  C   UNL     1     -12.653  13.009  64.880  1.00  0.00    -0.490 C  
HETATM   25  C   UNL     1     -10.805  11.512  64.237  1.00  0.00    -0.421 C  
ENDBRANCH  22  23
ENDBRANCH   9  16
ENDBRANCH   5   6
ENDBRANCH   4   5
ENDBRANCH   3   4
ENDBRANCH   2   3
TORSDOF 6
ENDMDL
MODEL       57
REMARK 921   NORMALIZED FREE ENERGY PREDICTED BY IDOCK:   -5.12 KCAL/MOL
REMARK 922        TOTAL FREE ENERGY PREDICTED BY IDOCK:   -7.85 KCAL/MOL
REMARK 923 INTER-LIGAND FREE ENERGY PREDICTED BY IDOCK:   -7.31 KCAL/MOL
REMARK 924 INTRA-LIGAND FREE ENERGY PREDICTED BY IDOCK:   -0.54 KCAL/MOL
REMARK 927      BINDING AFFINITY PREDICTED BY RF-SCORE:    0.00 PKD
ROOT
HETATM    1  C   UNL     1      -9.774   4.172  69.822  1.00  0.00    -0.278 C  
HETATM    2  C   UNL     1      -9.986   5.587  70.334  1.00  0.00    -0.279 C  
ENDROOT
BRANCH   2   3
HETATM    3  C   UNL     1     -11.283   6.184  69.787  1.00  0.00    -0.494 C  
BRANCH   3   4
HETATM    4  C   UNL     1     -11.974   7.040  70.842  1.00  0.00    -0.409 C  
BRANCH   4   5
HETATM    5  C   UNL     1     -11.038   8.116  71.391  1.00  0.00    -0.291 C  
BRANCH   5   6
HETATM    6  C   UNL     1     -11.222   9.417  70.647  1.00  0.00    -0.345 A  
HETATM    7  C   UNL     1     -10.563   9.634  69.437  1.00  0.00    -0.243 A  
HETATM    8  C   UNL     1     -10.677  10.861  68.780  1.00  0.00    -0.207 A  
HETATM    9  C   UNL     1     -11.419  11.931  69.317  1.00  0.00    -0.366 A  
HETATM   10  O   UNL     1     -10.035  10.999  67.580  1.00  0.00    -0.171 OA 
HETATM   11  H   UNL     1     -13.384  12.406  71.954  1.00  0.00     0.000 HD 
HETATM   12  H   UNL     1     -10.113  11.834  67.133  1.00  0.00     0.000 HD 
HETATM   13  C   UNL     1     -12.111  11.672  70.515  1.00  0.00    -0.366 A  
HETATM   14  O   UNL     1     -12.918  12.581  71.145  1.00  0.00    -0.271 OA 
HETATM   15  C   UNL     1     -12.025  10.435  71.163  1.00  0.00    -0.460 A  
BRANCH   9  16
HETATM   16  C   UNL     1     -11.524  13.279  68.585  1.00  0.00    -0.339 C  
HETATM   17  C   UNL     1     -12.284  13.094  67.298  1.00  0.00    -0.234 C  
HETATM   18  C   UNL     1     -11.763  13.259  66.076  1.00  0.00    -0.408 C  
HETATM   19  C   UNL     1     -10.341  13.677  65.861  1.00  0.00    -0.304 C  
HETATM   20  C   UNL     1     -12.557  12.960  64.835  1.00  0.00    -0.525 C  
HETATM   21  C   UNL     1      -9.566  14.221  67.065  1.00  0.00    -0.260 C  
HETATM   22  C   UNL     1     -10.159  14.042  68.482  1.00  0.00    -0.236 C  
BRANCH  22  23
HETATM   23  C   UNL     1     -10.166  15.361  69.276  1.00  0.00    -0.250 C  
HETATM   24  C   UNL     1      -9.531  16.450  68.811  1.00  0.00    -0.247 C  
HETATM   25  C   UNL     1     -10.911  15.431  70.580  1.00  0.00    -0.327 C  
ENDBRANCH  22  23
ENDBRANCH   9  16
ENDBRANCH   5   6
ENDBRANCH   4   5
ENDBRANCH   3   4
ENDBRANCH   2   3
TORSDOF 6
ENDMDL
MODEL       58
REMARK 921   NORMALIZED FREE ENERGY PREDICTED BY IDOCK:   -5.11 KCAL/MOL
REMARK 922        TOTAL FREE ENERGY PREDICTED BY IDOCK:   -7.83 KCAL/MOL
REMARK 923 INTER-LIGAND FREE ENERGY PREDICTED BY IDOCK:   -6.90 KCAL/MOL
REMARK 924 INTRA-LIGAND FREE ENERGY PREDICTED BY IDOCK:   -0.92 KCAL/MOL
REMARK 927      BINDING AFFINITY PREDICTED BY RF-SCORE:    0.00 PKD
ROOT
HETATM    1  C   UNL     1      -7.477  19.654  66.809  1.00  0.00    -0.264 C  
HETATM    2  C   UNL     1      -8.867  19.918  66.253  1.00  0.00    -0.402 C  
ENDROOT
BRANCH   2   3
HETATM    3  C   UNL     1      -9.891  20.075  67.377  1.00  0.00    -0.558 C  
BRANCH   3   4
HETATM    4  C   UNL     1     -10.733  18.813  67.526  1.00  0.00    -0.474 C  
BRANCH   4   5
HETATM    5  C   UNL     1     -10.161  17.881  68.595  1.00  0.00    -0.387 C  
BRANCH   5   6
HETATM    6  C   UNL     1     -10.283  16.438  68.168  1.00  0.00    -0.262 A  
HETATM    7  C   UNL     1     -11.408  16.005  67.467  1.00  0.00    -0.047 A  
HETATM    8  C   UNL     1     -11.555  14.658  67.130  1.00  0.00    -0.378 A  
HETATM    9  C   UNL     1     -10.610  13.684  67.507  1.00  0.00    -0.243 A  
HETATM   10  O   UNL     1     -12.664  14.302  66.411  1.00  0.00    -0.524 OA 
HETATM   11  H   UNL     1      -7.650  13.669  69.017  1.00  0.00     0.000 HD 
HETATM   12  H   UNL     1     -12.764  13.385  66.181  1.00  0.00     0.000 HD 
HETATM   13  C   UNL     1      -9.463  14.154  68.175  1.00  0.00    -0.213 A  
HETATM   14  O   UNL     1      -8.424  13.352  68.568  1.00  0.00    -0.153 OA 
HETATM   15  C   UNL     1      -9.294  15.506  68.489  1.00  0.00    -0.197 A  
BRANCH   9  16
HETATM   16  C   UNL     1     -10.795  12.203  67.138  1.00  0.00    -0.286 C  
HETATM   17  C   UNL     1     -11.272  11.441  68.347  1.00  0.00    -0.324 C  
HETATM   18  C   UNL     1     -10.572  10.482  68.967  1.00  0.00    -0.250 C  
HETATM   19  C   UNL     1      -9.220  10.045  68.495  1.00  0.00    -0.141 C  
HETATM   20  C   UNL     1     -11.072   9.833  70.227  1.00  0.00    -0.349 C  
HETATM   21  C   UNL     1      -8.771  10.491  67.100  1.00  0.00    -0.130 C  
HETATM   22  C   UNL     1      -9.573  11.593  66.370  1.00  0.00    -0.236 C  
BRANCH  22  23
HETATM   23  C   UNL     1      -9.932  11.189  64.929  1.00  0.00    -0.331 C  
HETATM   24  C   UNL     1      -9.456  10.052  64.392  1.00  0.00    -0.349 C  
HETATM   25  C   UNL     1     -10.845  12.070  64.123  1.00  0.00    -0.405 C  
ENDBRANCH  22  23
ENDBRANCH   9  16
ENDBRANCH   5   6
ENDBRANCH   4   5
ENDBRANCH   3   4
ENDBRANCH   2   3
TORSDOF 6
ENDMDL
MODEL       59
REMARK 921   NORMALIZED FREE ENERGY PREDICTED BY IDOCK:   -5.10 KCAL/MOL
REMARK 922        TOTAL FREE ENERGY PREDICTED BY IDOCK:   -7.81 KCAL/MOL
REMARK 923 INTER-LIGAND FREE ENERGY PREDICTED BY IDOCK:   -7.20 KCAL/MOL
REMARK 924 INTRA-LIGAND FREE ENERGY PREDICTED BY IDOCK:   -0.62 KCAL/MOL
REMARK 927      BINDING AFFINITY PREDICTED BY RF-SCORE:    0.00 PKD
ROOT
HETATM    1  C   UNL     1      -7.607  19.505  68.065  1.00  0.00    -0.331 C  
HETATM    2  C   UNL     1      -8.569  20.130  67.069  1.00  0.00    -0.408 C  
ENDROOT
BRANCH   2   3
HETATM    3  C   UNL     1      -9.960  20.306  67.678  1.00  0.00    -0.551 C  
BRANCH   3   4
HETATM    4  C   UNL     1     -10.872  19.146  67.296  1.00  0.00    -0.529 C  
BRANCH   4   5
HETATM    5  C   UNL     1     -10.345  18.401  66.069  1.00  0.00    -0.397 C  
BRANCH   5   6
HETATM    6  C   UNL     1     -10.595  16.918  66.194  1.00  0.00    -0.195 A  
HETATM    7  C   UNL     1     -10.063  16.203  67.268  1.00  0.00    -0.265 A  
HETATM    8  C   UNL     1     -10.235  14.820  67.351  1.00  0.00    -0.236 A  
HETATM    9  C   UNL     1     -10.910  14.088  66.355  1.00  0.00    -0.299 A  
HETATM   10  O   UNL     1      -9.719  14.182  68.447  1.00  0.00    -0.217 OA 
HETATM   11  H   UNL     1     -12.589  14.798  63.577  1.00  0.00     0.000 HD 
HETATM   12  H   UNL     1      -9.836  13.241  68.504  1.00  0.00     0.000 HD 
HETATM   13  C   UNL     1     -11.476  14.838  65.306  1.00  0.00    -0.352 A  
HETATM   14  O   UNL     1     -12.207  14.293  64.284  1.00  0.00    -0.521 OA 
HETATM   15  C   UNL     1     -11.333  16.227  65.232  1.00  0.00     0.109 A  
BRANCH   9  16
HETATM   16  C   UNL     1     -11.079  12.564  66.458  1.00  0.00    -0.330 C  
HETATM   17  C   UNL     1     -11.872  12.229  67.695  1.00  0.00    -0.334 C  
HETATM   18  C   UNL     1     -11.393  11.550  68.744  1.00  0.00    -0.327 C  
HETATM   19  C   UNL     1      -9.992  11.022  68.785  1.00  0.00    -0.215 C  
HETATM   20  C   UNL     1     -12.214  11.339  69.986  1.00  0.00    -0.389 C  
HETATM   21  C   UNL     1      -9.199  10.995  67.475  1.00  0.00    -0.149 C  
HETATM   22  C   UNL     1      -9.743  11.771  66.253  1.00  0.00    -0.242 C  
BRANCH  22  23
HETATM   23  C   UNL     1      -9.769  10.903  64.982  1.00  0.00    -0.319 C  
HETATM   24  C   UNL     1      -9.487   9.590  65.037  1.00  0.00    -0.273 C  
HETATM   25  C   UNL     1     -10.132  11.533  63.668  1.00  0.00    -0.427 C  
ENDBRANCH  22  23
ENDBRANCH   9  16
ENDBRANCH   5   6
ENDBRANCH   4   5
ENDBRANCH   3   4
ENDBRANCH   2   3
TORSDOF 6
ENDMDL
MODEL       60
REMARK 921   NORMALIZED FREE ENERGY PREDICTED BY IDOCK:   -5.03 KCAL/MOL
REMARK 922        TOTAL FREE ENERGY PREDICTED BY IDOCK:   -7.73 KCAL/MOL
REMARK 923 INTER-LIGAND FREE ENERGY PREDICTED BY IDOCK:   -6.99 KCAL/MOL
REMARK 924 INTRA-LIGAND FREE ENERGY PREDICTED BY IDOCK:   -0.74 KCAL/MOL
REMARK 927      BINDING AFFINITY PREDICTED BY RF-SCORE:    0.00 PKD
ROOT
HETATM    1  C   UNL     1     -10.263  19.831  67.390  1.00  0.00    -0.575 C  
HETATM    2  C   UNL     1      -9.573  19.632  68.729  1.00  0.00    -0.444 C  
ENDROOT
BRANCH   2   3
HETATM    3  C   UNL     1      -8.132  19.156  68.543  1.00  0.00    -0.394 C  
BRANCH   3   4
HETATM    4  C   UNL     1      -7.647  19.429  67.125  1.00  0.00    -0.258 C  
BRANCH   4   5
HETATM    5  C   UNL     1      -6.773  18.289  66.603  1.00  0.00    -0.227 C  
BRANCH   5   6
HETATM    6  C   UNL     1      -7.531  16.984  66.612  1.00  0.00    -0.300 A  
HETATM    7  C   UNL     1      -8.777  16.891  65.992  1.00  0.00    -0.193 A  
HETATM    8  C   UNL     1      -9.512  15.706  66.055  1.00  0.00    -0.355 A  
HETATM    9  C   UNL     1      -9.056  14.580  66.768  1.00  0.00    -0.283 A  
HETATM   10  O   UNL     1     -10.711  15.667  65.397  1.00  0.00    -0.362 OA 
HETATM   11  H   UNL     1      -6.298  13.739  68.419  1.00  0.00     0.000 HD 
HETATM   12  H   UNL     1     -11.211  14.860  65.440  1.00  0.00     0.000 HD 
HETATM   13  C   UNL     1      -7.777  14.684  67.346  1.00  0.00    -0.201 A  
HETATM   14  O   UNL     1      -7.161  13.669  68.029  1.00  0.00    -0.099 OA 
HETATM   15  C   UNL     1      -7.022  15.858  67.260  1.00  0.00    -0.241 A  
BRANCH   9  16
HETATM   16  C   UNL     1      -9.884  13.287  66.838  1.00  0.00    -0.247 C  
HETATM   17  C   UNL     1      -9.969  12.670  65.465  1.00  0.00    -0.237 C  
HETATM   18  C   UNL     1     -11.099  12.535  64.760  1.00  0.00    -0.338 C  
HETATM   19  C   UNL     1     -12.429  12.974  65.288  1.00  0.00    -0.555 C  
HETATM   20  C   UNL     1     -11.090  11.999  63.356  1.00  0.00    -0.476 C  
HETATM   21  C   UNL     1     -12.535  13.298  66.781  1.00  0.00    -0.086 C  
HETATM   22  C   UNL     1     -11.238  13.452  67.609  1.00  0.00    -0.302 C  
BRANCH  22  23
HETATM   23  C   UNL     1     -11.277  12.621  68.904  1.00  0.00    -0.329 C  
HETATM   24  C   UNL     1     -10.511  11.526  69.045  1.00  0.00    -0.175 C  
HETATM   25  C   UNL     1     -12.172  13.056  70.031  1.00  0.00    -0.306 C  
ENDBRANCH  22  23
ENDBRANCH   9  16
ENDBRANCH   5   6
ENDBRANCH   4   5
ENDBRANCH   3   4
ENDBRANCH   2   3
TORSDOF 6
ENDMDL
MODEL       61
REMARK 921   NORMALIZED FREE ENERGY PREDICTED BY IDOCK:   -5.03 KCAL/MOL
REMARK 922        TOTAL FREE ENERGY PREDICTED BY IDOCK:   -7.72 KCAL/MOL
REMARK 923 INTER-LIGAND FREE ENERGY PREDICTED BY IDOCK:   -6.92 KCAL/MOL
REMARK 924 INTRA-LIGAND FREE ENERGY PREDICTED BY IDOCK:   -0.80 KCAL/MOL
REMARK 927      BINDING AFFINITY PREDICTED BY RF-SCORE:    0.00 PKD
ROOT
HETATM    1  C   UNL     1      -9.437  10.791  62.842  1.00  0.00    -0.373 C  
HETATM    2  C   UNL     1      -9.680  10.762  64.341  1.00  0.00    -0.356 C  
ENDROOT
BRANCH   2   3
HETATM    3  C   UNL     1      -9.249   9.425  64.946  1.00  0.00    -0.246 C  
BRANCH   3   4
HETATM    4  C   UNL     1      -8.067   9.612  65.890  1.00  0.00    -0.112 C  
BRANCH   4   5
HETATM    5  C   UNL     1      -8.467   9.358  67.343  1.00  0.00    -0.125 C  
BRANCH   5   6
HETATM    6  C   UNL     1      -9.324  10.484  67.869  1.00  0.00    -0.150 A  
HETATM    7  C   UNL     1     -10.666  10.261  68.177  1.00  0.00    -0.287 A  
HETATM    8  C   UNL     1     -11.479  11.314  68.598  1.00  0.00    -0.297 A  
HETATM    9  C   UNL     1     -11.001  12.636  68.695  1.00  0.00    -0.292 A  
HETATM   10  O   UNL     1     -12.777  11.024  68.919  1.00  0.00    -0.522 OA 
HETATM   11  H   UNL     1      -8.072  14.163  68.334  1.00  0.00     0.000 HD 
HETATM   12  H   UNL     1     -13.331  11.741  69.207  1.00  0.00     0.000 HD 
HETATM   13  C   UNL     1      -9.633  12.826  68.423  1.00  0.00    -0.175 A  
HETATM   14  O   UNL     1      -8.995  14.034  68.518  1.00  0.00    -0.190 OA 
HETATM   15  C   UNL     1      -8.806  11.770  68.029  1.00  0.00    -0.164 A  
BRANCH   9  16
HETATM   16  C   UNL     1     -11.914  13.786  69.150  1.00  0.00    -0.403 C  
HETATM   17  C   UNL     1     -11.766  14.948  68.202  1.00  0.00    -0.344 C  
HETATM   18  C   UNL     1     -11.260  16.142  68.536  1.00  0.00    -0.365 C  
HETATM   19  C   UNL     1     -10.798  16.456  69.925  1.00  0.00    -0.333 C  
HETATM   20  C   UNL     1     -11.052  17.222  67.511  1.00  0.00     0.044 C  
HETATM   21  C   UNL     1     -11.201  15.495  71.047  1.00  0.00    -0.419 C  
HETATM   22  C   UNL     1     -11.792  14.115  70.677  1.00  0.00    -0.333 C  
BRANCH  22  23
HETATM   23  C   UNL     1     -13.094  13.820  71.444  1.00  0.00    -0.413 C  
HETATM   24  C   UNL     1     -14.011  14.783  71.644  1.00  0.00    -0.559 C  
HETATM   25  C   UNL     1     -13.348  12.430  71.955  1.00  0.00    -0.511 C  
ENDBRANCH  22  23
ENDBRANCH   9  16
ENDBRANCH   5   6
ENDBRANCH   4   5
ENDBRANCH   3   4
ENDBRANCH   2   3
TORSDOF 6
ENDMDL
MODEL       62
REMARK 921   NORMALIZED FREE ENERGY PREDICTED BY IDOCK:   -5.03 KCAL/MOL
REMARK 922        TOTAL FREE ENERGY PREDICTED BY IDOCK:   -7.72 KCAL/MOL
REMARK 923 INTER-LIGAND FREE ENERGY PREDICTED BY IDOCK:   -6.55 KCAL/MOL
REMARK 924 INTRA-LIGAND FREE ENERGY PREDICTED BY IDOCK:   -1.17 KCAL/MOL
REMARK 927      BINDING AFFINITY PREDICTED BY RF-SCORE:    0.00 PKD
ROOT
HETATM    1  C   UNL     1      -9.461   8.372  72.368  1.00  0.00    -0.365 C  
HETATM    2  C   UNL     1      -9.375   6.885  72.068  1.00  0.00    -0.146 C  
ENDROOT
BRANCH   2   3
HETATM    3  C   UNL     1      -8.987   6.637  70.610  1.00  0.00    -0.151 C  
BRANCH   3   4
HETATM    4  C   UNL     1      -8.166   7.798  70.060  1.00  0.00    -0.121 C  
BRANCH   4   5
HETATM    5  C   UNL     1      -8.655   8.223  68.676  1.00  0.00    -0.133 C  
BRANCH   5   6
HETATM    6  C   UNL     1      -9.453   9.502  68.758  1.00  0.00    -0.147 A  
HETATM    7  C   UNL     1     -10.816   9.462  69.052  1.00  0.00    -0.161 A  
HETATM    8  C   UNL     1     -11.571  10.636  69.062  1.00  0.00    -0.261 A  
HETATM    9  C   UNL     1     -11.011  11.889  68.745  1.00  0.00    -0.280 A  
HETATM   10  O   UNL     1     -12.895  10.535  69.393  1.00  0.00    -0.654 OA 
HETATM   11  H   UNL     1      -7.979  13.059  68.055  1.00  0.00     0.000 HD 
HETATM   12  H   UNL     1     -13.409  11.334  69.400  1.00  0.00     0.000 HD 
HETATM   13  C   UNL     1      -9.626  11.908  68.496  1.00  0.00    -0.157 A  
HETATM   14  O   UNL     1      -8.913  13.046  68.223  1.00  0.00    -0.194 OA 
HETATM   15  C   UNL     1      -8.857  10.740  68.514  1.00  0.00    -0.149 A  
BRANCH   9  16
HETATM   16  C   UNL     1     -11.861  13.170  68.750  1.00  0.00    -0.361 C  
HETATM   17  C   UNL     1     -11.856  13.780  67.372  1.00  0.00    -0.431 C  
HETATM   18  C   UNL     1     -11.318  14.967  67.067  1.00  0.00    -0.345 C  
HETATM   19  C   UNL     1     -10.669  15.840  68.096  1.00  0.00    -0.285 C  
HETATM   20  C   UNL     1     -11.264  15.466  65.650  1.00  0.00    -0.208 C  
HETATM   21  C   UNL     1     -10.903  15.502  69.571  1.00  0.00    -0.267 C  
HETATM   22  C   UNL     1     -11.529  14.137  69.938  1.00  0.00    -0.288 C  
BRANCH  22  23
HETATM   23  C   UNL     1     -12.709  14.286  70.915  1.00  0.00    -0.427 C  
HETATM   24  C   UNL     1     -13.388  15.442  71.006  1.00  0.00    -0.545 C  
HETATM   25  C   UNL     1     -13.114  13.113  71.763  1.00  0.00    -0.478 C  
ENDBRANCH  22  23
ENDBRANCH   9  16
ENDBRANCH   5   6
ENDBRANCH   4   5
ENDBRANCH   3   4
ENDBRANCH   2   3
TORSDOF 6
ENDMDL
MODEL       63
REMARK 921   NORMALIZED FREE ENERGY PREDICTED BY IDOCK:   -5.02 KCAL/MOL
REMARK 922        TOTAL FREE ENERGY PREDICTED BY IDOCK:   -7.71 KCAL/MOL
REMARK 923 INTER-LIGAND FREE ENERGY PREDICTED BY IDOCK:   -7.08 KCAL/MOL
REMARK 924 INTRA-LIGAND FREE ENERGY PREDICTED BY IDOCK:   -0.63 KCAL/MOL
REMARK 927      BINDING AFFINITY PREDICTED BY RF-SCORE:    0.00 PKD
ROOT
HETATM    1  C   UNL     1     -10.985   7.569  72.624  1.00  0.00    -0.385 C  
HETATM    2  C   UNL     1      -9.838   6.888  71.896  1.00  0.00    -0.173 C  
ENDROOT
BRANCH   2   3
HETATM    3  C   UNL     1     -10.353   5.975  70.783  1.00  0.00    -0.280 C  
BRANCH   3   4
HETATM    4  C   UNL     1     -11.222   6.752  69.801  1.00  0.00    -0.368 C  
BRANCH   4   5
HETATM    5  C   UNL     1     -10.614   6.755  68.398  1.00  0.00    -0.270 C  
BRANCH   5   6
HETATM    6  C   UNL     1     -10.476   8.165  67.877  1.00  0.00    -0.259 A  
HETATM    7  C   UNL     1     -10.872   9.247  68.663  1.00  0.00    -0.120 A  
HETATM    8  C   UNL     1     -10.810  10.547  68.159  1.00  0.00    -0.253 A  
HETATM    9  C   UNL     1     -10.386  10.821  66.843  1.00  0.00    -0.290 A  
HETATM   10  O   UNL     1     -11.179  11.568  68.991  1.00  0.00    -0.222 OA 
HETATM   11  H   UNL     1      -9.164   9.065  64.301  1.00  0.00     0.000 HD 
HETATM   12  H   UNL     1     -11.136  12.453  68.648  1.00  0.00     0.000 HD 
HETATM   13  C   UNL     1      -9.949   9.717  66.086  1.00  0.00    -0.276 A  
HETATM   14  O   UNL     1      -9.459   9.809  64.811  1.00  0.00    -0.274 OA 
HETATM   15  C   UNL     1      -9.981   8.414  66.596  1.00  0.00    -0.354 A  
BRANCH   9  16
HETATM   16  C   UNL     1     -10.335  12.258  66.301  1.00  0.00    -0.257 C  
HETATM   17  C   UNL     1      -9.390  13.078  67.141  1.00  0.00    -0.230 C  
HETATM   18  C   UNL     1      -9.755  14.117  67.902  1.00  0.00    -0.224 C  
HETATM   19  C   UNL     1     -11.172  14.594  67.980  1.00  0.00    -0.307 C  
HETATM   20  C   UNL     1      -8.771  14.826  68.790  1.00  0.00    -0.178 C  
HETATM   21  C   UNL     1     -12.160  14.075  66.931  1.00  0.00    -0.465 C  
HETATM   22  C   UNL     1     -11.750  12.879  66.041  1.00  0.00    -0.456 C  
BRANCH  22  23
HETATM   23  C   UNL     1     -12.000  13.157  64.548  1.00  0.00    -0.442 C  
HETATM   24  C   UNL     1     -12.209  14.409  64.104  1.00  0.00    -0.393 C  
HETATM   25  C   UNL     1     -11.990  12.013  63.574  1.00  0.00    -0.605 C  
ENDBRANCH  22  23
ENDBRANCH   9  16
ENDBRANCH   5   6
ENDBRANCH   4   5
ENDBRANCH   3   4
ENDBRANCH   2   3
TORSDOF 6
ENDMDL
MODEL       64
REMARK 921   NORMALIZED FREE ENERGY PREDICTED BY IDOCK:   -5.01 KCAL/MOL
REMARK 922        TOTAL FREE ENERGY PREDICTED BY IDOCK:   -7.70 KCAL/MOL
REMARK 923 INTER-LIGAND FREE ENERGY PREDICTED BY IDOCK:   -6.68 KCAL/MOL
REMARK 924 INTRA-LIGAND FREE ENERGY PREDICTED BY IDOCK:   -1.03 KCAL/MOL
REMARK 927      BINDING AFFINITY PREDICTED BY RF-SCORE:    0.00 PKD
ROOT
HETATM    1  C   UNL     1     -12.245  13.055  63.357  1.00  0.00    -0.552 C  
HETATM    2  C   UNL     1     -11.523  11.722  63.464  1.00  0.00    -0.489 C  
ENDROOT
BRANCH   2   3
HETATM    3  C   UNL     1     -10.026  11.921  63.705  1.00  0.00    -0.404 C  
BRANCH   3   4
HETATM    4  C   UNL     1      -9.651  11.550  65.134  1.00  0.00    -0.235 C  
BRANCH   4   5
HETATM    5  C   UNL     1     -10.453  12.360  66.152  1.00  0.00    -0.274 C  
BRANCH   5   6
HETATM    6  C   UNL     1      -9.789  13.688  66.424  1.00  0.00    -0.302 A  
HETATM    7  C   UNL     1      -8.561  13.738  67.084  1.00  0.00    -0.210 A  
HETATM    8  C   UNL     1      -7.976  14.966  67.398  1.00  0.00    -0.199 A  
HETATM    9  C   UNL     1      -8.603  16.192  67.100  1.00  0.00    -0.211 A  
HETATM   10  O   UNL     1      -6.755  14.947  68.015  1.00  0.00    -0.112 OA 
HETATM   11  H   UNL     1     -11.354  17.156  65.505  1.00  0.00     0.000 HD 
HETATM   12  H   UNL     1      -6.356  15.783  68.228  1.00  0.00     0.000 HD 
HETATM   13  C   UNL     1      -9.819  16.115  66.394  1.00  0.00    -0.284 A  
HETATM   14  O   UNL     1     -10.534  17.208  65.982  1.00  0.00    -0.334 OA 
HETATM   15  C   UNL     1     -10.396  14.888  66.050  1.00  0.00    -0.313 A  
BRANCH   9  16
HETATM   16  C   UNL     1      -7.950  17.535  67.464  1.00  0.00    -0.210 C  
HETATM   17  C   UNL     1      -8.799  18.245  68.486  1.00  0.00    -0.322 C  
HETATM   18  C   UNL     1      -9.436  19.403  68.273  1.00  0.00    -0.433 C  
HETATM   19  C   UNL     1      -9.348  20.138  66.971  1.00  0.00    -0.523 C  
HETATM   20  C   UNL     1     -10.345  20.003  69.309  1.00  0.00    -0.080 C  
HETATM   21  C   UNL     1      -8.263  19.709  65.979  1.00  0.00    -0.307 C  
HETATM   22  C   UNL     1      -7.515  18.377  66.216  1.00  0.00    -0.294 C  
BRANCH  22  23
HETATM   23  C   UNL     1      -5.988  18.548  66.130  1.00  0.00    -0.205 C  
HETATM   24  C   UNL     1      -5.170  17.482  66.176  1.00  0.00    -0.215 C  
HETATM   25  C   UNL     1      -5.410  19.926  65.974  1.00  0.00    -0.167 C  
ENDBRANCH  22  23
ENDBRANCH   9  16
ENDBRANCH   5   6
ENDBRANCH   4   5
ENDBRANCH   3   4
ENDBRANCH   2   3
TORSDOF 6
ENDMDL
MODEL       65
REMARK 921   NORMALIZED FREE ENERGY PREDICTED BY IDOCK:   -5.01 KCAL/MOL
REMARK 922        TOTAL FREE ENERGY PREDICTED BY IDOCK:   -7.70 KCAL/MOL
REMARK 923 INTER-LIGAND FREE ENERGY PREDICTED BY IDOCK:   -6.90 KCAL/MOL
REMARK 924 INTRA-LIGAND FREE ENERGY PREDICTED BY IDOCK:   -0.80 KCAL/MOL
REMARK 927      BINDING AFFINITY PREDICTED BY RF-SCORE:    0.00 PKD
ROOT
HETATM    1  C   UNL     1      -6.124  21.054  63.359  1.00  0.00    -0.331 C  
HETATM    2  C   UNL     1      -6.585  20.682  64.758  1.00  0.00    -0.275 C  
ENDROOT
BRANCH   2   3
HETATM    3  C   UNL     1      -5.664  19.634  65.384  1.00  0.00    -0.200 C  
BRANCH   3   4
HETATM    4  C   UNL     1      -6.318  18.995  66.603  1.00  0.00    -0.200 C  
BRANCH   4   5
HETATM    5  C   UNL     1      -5.759  17.597  66.869  1.00  0.00    -0.184 C  
BRANCH   5   6
HETATM    6  C   UNL     1      -6.872  16.578  66.928  1.00  0.00    -0.248 A  
HETATM    7  C   UNL     1      -6.680  15.366  67.592  1.00  0.00    -0.198 A  
HETATM    8  C   UNL     1      -7.682  14.393  67.591  1.00  0.00    -0.184 A  
HETATM    9  C   UNL     1      -8.897  14.570  66.901  1.00  0.00    -0.257 A  
HETATM   10  O   UNL     1      -7.447  13.241  68.291  1.00  0.00    -0.106 OA 
HETATM   11  H   UNL     1     -10.349  17.019  65.187  1.00  0.00     0.000 HD 
HETATM   12  H   UNL     1      -8.128  12.579  68.290  1.00  0.00     0.000 HD 
HETATM   13  C   UNL     1      -9.083  15.819  66.277  1.00  0.00    -0.338 A  
HETATM   14  O   UNL     1     -10.223  16.176  65.607  1.00  0.00    -0.349 OA 
HETATM   15  C   UNL     1      -8.096  16.809  66.299  1.00  0.00    -0.365 A  
BRANCH   9  16
HETATM   16  C   UNL     1      -9.984  13.484  66.901  1.00  0.00    -0.256 C  
HETATM   17  C   UNL     1      -9.999  12.789  65.564  1.00  0.00    -0.234 C  
HETATM   18  C   UNL     1     -11.017  12.831  64.696  1.00  0.00    -0.355 C  
HETATM   19  C   UNL     1     -12.285  13.574  64.985  1.00  0.00    -0.453 C  
HETATM   20  C   UNL     1     -10.921  12.194  63.338  1.00  0.00    -0.480 C  
HETATM   21  C   UNL     1     -12.534  14.031  66.425  1.00  0.00    -0.395 C  
HETATM   22  C   UNL     1     -11.368  13.983  67.440  1.00  0.00    -0.350 C  
BRANCH  22  23
HETATM   23  C   UNL     1     -11.771  13.284  68.751  1.00  0.00    -0.366 C  
HETATM   24  C   UNL     1     -11.787  11.943  68.841  1.00  0.00    -0.366 C  
HETATM   25  C   UNL     1     -12.131  14.118  69.948  1.00  0.00    -0.405 C  
ENDBRANCH  22  23
ENDBRANCH   9  16
ENDBRANCH   5   6
ENDBRANCH   4   5
ENDBRANCH   3   4
ENDBRANCH   2   3
TORSDOF 6
ENDMDL
MODEL       66
REMARK 921   NORMALIZED FREE ENERGY PREDICTED BY IDOCK:   -4.97 KCAL/MOL
REMARK 922        TOTAL FREE ENERGY PREDICTED BY IDOCK:   -7.65 KCAL/MOL
REMARK 923 INTER-LIGAND FREE ENERGY PREDICTED BY IDOCK:   -7.13 KCAL/MOL
REMARK 924 INTRA-LIGAND FREE ENERGY PREDICTED BY IDOCK:   -0.52 KCAL/MOL
REMARK 927      BINDING AFFINITY PREDICTED BY RF-SCORE:    0.00 PKD
ROOT
HETATM    1  C   UNL     1     -12.167  13.137  63.336  1.00  0.00    -0.521 C  
HETATM    2  C   UNL     1     -12.056  11.758  63.963  1.00  0.00    -0.361 C  
ENDROOT
BRANCH   2   3
HETATM    3  C   UNL     1     -10.736  11.597  64.716  1.00  0.00    -0.365 C  
BRANCH   3   4
HETATM    4  C   UNL     1     -10.964  11.614  66.223  1.00  0.00    -0.338 C  
BRANCH   4   5
HETATM    5  C   UNL     1     -11.903  12.747  66.634  1.00  0.00    -0.462 C  
BRANCH   5   6
HETATM    6  C   UNL     1     -11.123  13.919  67.180  1.00  0.00    -0.312 A  
HETATM    7  C   UNL     1     -10.408  14.750  66.318  1.00  0.00    -0.305 A  
HETATM    8  C   UNL     1      -9.631  15.794  66.824  1.00  0.00    -0.236 A  
HETATM    9  C   UNL     1      -9.504  16.030  68.207  1.00  0.00    -0.206 A  
HETATM   10  O   UNL     1      -8.982  16.596  65.925  1.00  0.00    -0.482 OA 
HETATM   11  H   UNL     1     -10.822  14.774  70.987  1.00  0.00     0.000 HD 
HETATM   12  H   UNL     1      -8.454  17.306  66.270  1.00  0.00     0.000 HD 
HETATM   13  C   UNL     1     -10.271  15.205  69.053  1.00  0.00    -0.241 A  
HETATM   14  O   UNL     1     -10.305  15.330  70.417  1.00  0.00    -0.228 OA 
HETATM   15  C   UNL     1     -11.075  14.177  68.551  1.00  0.00    -0.276 A  
BRANCH   9  16
HETATM   16  C   UNL     1      -8.635  17.176  68.748  1.00  0.00    -0.236 C  
HETATM   17  C   UNL     1      -9.334  18.490  68.514  1.00  0.00    -0.364 C  
HETATM   18  C   UNL     1      -8.886  19.457  67.705  1.00  0.00    -0.359 C  
HETATM   19  C   UNL     1      -7.600  19.337  66.948  1.00  0.00    -0.253 C  
HETATM   20  C   UNL     1      -9.690  20.702  67.447  1.00  0.00    -0.552 C  
HETATM   21  C   UNL     1      -6.636  18.217  67.351  1.00  0.00    -0.196 C  
HETATM   22  C   UNL     1      -7.138  17.095  68.289  1.00  0.00    -0.197 C  
BRANCH  22  23
HETATM   23  C   UNL     1      -6.179  16.855  69.469  1.00  0.00    -0.229 C  
HETATM   24  C   UNL     1      -5.927  15.612  69.912  1.00  0.00    -0.156 C  
HETATM   25  C   UNL     1      -5.501  18.030  70.117  1.00  0.00    -0.252 C  
ENDBRANCH  22  23
ENDBRANCH   9  16
ENDBRANCH   5   6
ENDBRANCH   4   5
ENDBRANCH   3   4
ENDBRANCH   2   3
TORSDOF 6
ENDMDL
MODEL       67
REMARK 921   NORMALIZED FREE ENERGY PREDICTED BY IDOCK:   -4.95 KCAL/MOL
REMARK 922        TOTAL FREE ENERGY PREDICTED BY IDOCK:   -7.62 KCAL/MOL
REMARK 923 INTER-LIGAND FREE ENERGY PREDICTED BY IDOCK:   -7.13 KCAL/MOL
REMARK 924 INTRA-LIGAND FREE ENERGY PREDICTED BY IDOCK:   -0.49 KCAL/MOL
REMARK 927      BINDING AFFINITY PREDICTED BY RF-SCORE:    0.00 PKD
ROOT
HETATM    1  C   UNL     1      -5.409  19.591  70.907  1.00  0.00    -0.269 C  
HETATM    2  C   UNL     1      -6.381  20.088  69.851  1.00  0.00    -0.391 C  
ENDROOT
BRANCH   2   3
HETATM    3  C   UNL     1      -6.421  19.145  68.648  1.00  0.00    -0.284 C  
BRANCH   3   4
HETATM    4  C   UNL     1      -7.598  18.183  68.750  1.00  0.00    -0.285 C  
BRANCH   4   5
HETATM    5  C   UNL     1      -7.135  16.767  69.093  1.00  0.00    -0.222 C  
BRANCH   5   6
HETATM    6  C   UNL     1      -8.095  15.740  68.542  1.00  0.00    -0.153 A  
HETATM    7  C   UNL     1      -7.617  14.648  67.818  1.00  0.00    -0.173 A  
HETATM    8  C   UNL     1      -8.506  13.733  67.250  1.00  0.00    -0.194 A  
HETATM    9  C   UNL     1      -9.902  13.887  67.347  1.00  0.00    -0.237 A  
HETATM   10  O   UNL     1      -7.973  12.664  66.582  1.00  0.00    -0.402 OA 
HETATM   11  H   UNL     1     -11.988  15.970  68.881  1.00  0.00     0.000 HD 
HETATM   12  H   UNL     1      -8.578  12.041  66.195  1.00  0.00     0.000 HD 
HETATM   13  C   UNL     1     -10.359  14.971  68.120  1.00  0.00    -0.239 A  
HETATM   14  O   UNL     1     -11.680  15.238  68.359  1.00  0.00    -0.342 OA 
HETATM   15  C   UNL     1      -9.473  15.875  68.718  1.00  0.00    -0.221 A  
BRANCH   9  16
HETATM   16  C   UNL     1     -10.866  12.876  66.704  1.00  0.00    -0.288 C  
HETATM   17  C   UNL     1     -10.929  11.633  67.554  1.00  0.00    -0.312 C  
HETATM   18  C   UNL     1     -10.505  10.425  67.167  1.00  0.00    -0.311 C  
HETATM   19  C   UNL     1      -9.930  10.175  65.807  1.00  0.00    -0.339 C  
HETATM   20  C   UNL     1     -10.510   9.250  68.106  1.00  0.00    -0.263 C  
HETATM   21  C   UNL     1     -10.119  11.259  64.741  1.00  0.00    -0.338 C  
HETATM   22  C   UNL     1     -10.614  12.658  65.173  1.00  0.00    -0.324 C  
BRANCH  22  23
HETATM   23  C   UNL     1     -11.793  13.145  64.312  1.00  0.00    -0.462 C  
HETATM   24  C   UNL     1     -12.140  14.444  64.287  1.00  0.00    -0.461 C  
HETATM   25  C   UNL     1     -12.552  12.155  63.475  1.00  0.00    -0.621 C  
ENDBRANCH  22  23
ENDBRANCH   9  16
ENDBRANCH   5   6
ENDBRANCH   4   5
ENDBRANCH   3   4
ENDBRANCH   2   3
TORSDOF 6
ENDMDL
MODEL       68
REMARK 921   NORMALIZED FREE ENERGY PREDICTED BY IDOCK:   -4.95 KCAL/MOL
REMARK 922        TOTAL FREE ENERGY PREDICTED BY IDOCK:   -7.61 KCAL/MOL
REMARK 923 INTER-LIGAND FREE ENERGY PREDICTED BY IDOCK:   -6.76 KCAL/MOL
REMARK 924 INTRA-LIGAND FREE ENERGY PREDICTED BY IDOCK:   -0.86 KCAL/MOL
REMARK 927      BINDING AFFINITY PREDICTED BY RF-SCORE:    0.00 PKD
ROOT
HETATM    1  C   UNL     1      -9.352   2.815  68.018  1.00  0.00    -0.257 C  
HETATM    2  C   UNL     1      -9.240   4.327  68.116  1.00  0.00    -0.186 C  
ENDROOT
BRANCH   2   3
HETATM    3  C   UNL     1     -10.214   5.017  67.161  1.00  0.00    -0.234 C  
BRANCH   3   4
HETATM    4  C   UNL     1     -10.996   6.110  67.879  1.00  0.00    -0.399 C  
BRANCH   4   5
HETATM    5  C   UNL     1     -10.062   7.119  68.548  1.00  0.00    -0.177 C  
BRANCH   5   6
HETATM    6  C   UNL     1     -10.210   8.484  67.921  1.00  0.00    -0.273 A  
HETATM    7  C   UNL     1      -9.957   8.663  66.561  1.00  0.00    -0.353 A  
HETATM    8  C   UNL     1     -10.026   9.936  65.990  1.00  0.00    -0.268 A  
HETATM    9  C   UNL     1     -10.312  11.084  66.754  1.00  0.00    -0.284 A  
HETATM   10  O   UNL     1      -9.801  10.041  64.644  1.00  0.00    -0.332 OA 
HETATM   11  H   UNL     1     -11.156  11.723  69.905  1.00  0.00     0.000 HD 
HETATM   12  H   UNL     1      -9.849  10.907  64.256  1.00  0.00     0.000 HD 
HETATM   13  C   UNL     1     -10.608  10.871  68.114  1.00  0.00    -0.198 A  
HETATM   14  O   UNL     1     -10.956  11.867  68.987  1.00  0.00    -0.223 OA 
HETATM   15  C   UNL     1     -10.570   9.594  68.686  1.00  0.00    -0.246 A  
BRANCH   9  16
HETATM   16  C   UNL     1     -10.372  12.479  66.112  1.00  0.00    -0.274 C  
HETATM   17  C   UNL     1      -9.385  13.389  66.796  1.00  0.00    -0.260 C  
HETATM   18  C   UNL     1      -9.717  14.467  67.516  1.00  0.00    -0.211 C  
HETATM   19  C   UNL     1     -11.138  14.901  67.701  1.00  0.00    -0.315 C  
HETATM   20  C   UNL     1      -8.681  15.272  68.252  1.00  0.00    -0.165 C  
HETATM   21  C   UNL     1     -12.201  14.275  66.794  1.00  0.00    -0.384 C  
HETATM   22  C   UNL     1     -11.830  13.032  65.952  1.00  0.00    -0.468 C  
BRANCH  22  23
HETATM   23  C   UNL     1     -12.234  13.193  64.475  1.00  0.00    -0.466 C  
HETATM   24  C   UNL     1     -12.258  14.405  63.894  1.00  0.00    -0.178 C  
HETATM   25  C   UNL     1     -12.586  11.973  63.671  1.00  0.00    -0.605 C  
ENDBRANCH  22  23
ENDBRANCH   9  16
ENDBRANCH   5   6
ENDBRANCH   4   5
ENDBRANCH   3   4
ENDBRANCH   2   3
TORSDOF 6
ENDMDL
MODEL       69
REMARK 921   NORMALIZED FREE ENERGY PREDICTED BY IDOCK:   -4.94 KCAL/MOL
REMARK 922        TOTAL FREE ENERGY PREDICTED BY IDOCK:   -7.61 KCAL/MOL
REMARK 923 INTER-LIGAND FREE ENERGY PREDICTED BY IDOCK:   -6.63 KCAL/MOL
REMARK 924 INTRA-LIGAND FREE ENERGY PREDICTED BY IDOCK:   -0.98 KCAL/MOL
REMARK 927      BINDING AFFINITY PREDICTED BY RF-SCORE:    0.00 PKD
ROOT
HETATM    1  C   UNL     1     -11.079  15.015  66.536  1.00  0.00    -0.329 C  
HETATM    2  C   UNL     1     -11.853  13.775  66.123  1.00  0.00    -0.424 C  
ENDROOT
BRANCH   2   3
HETATM    3  C   UNL     1     -11.751  13.534  64.616  1.00  0.00    -0.412 C  
BRANCH   3   4
HETATM    4  C   UNL     1     -11.415  12.078  64.320  1.00  0.00    -0.435 C  
BRANCH   4   5
HETATM    5  C   UNL     1      -9.978  11.742  64.720  1.00  0.00    -0.275 C  
BRANCH   5   6
HETATM    6  C   UNL     1      -9.954  10.900  65.973  1.00  0.00    -0.290 A  
HETATM    7  C   UNL     1      -9.454  11.426  67.164  1.00  0.00    -0.186 A  
HETATM    8  C   UNL     1      -9.367  10.630  68.308  1.00  0.00    -0.156 A  
HETATM    9  C   UNL     1      -9.738   9.271  68.303  1.00  0.00    -0.167 A  
HETATM   10  O   UNL     1      -8.901  11.215  69.454  1.00  0.00    -0.381 OA 
HETATM   11  H   UNL     1     -11.105   7.163  66.129  1.00  0.00     0.000 HD 
HETATM   12  H   UNL     1      -8.842  10.673  70.232  1.00  0.00     0.000 HD 
HETATM   13  C   UNL     1     -10.281   8.777  67.102  1.00  0.00    -0.276 A  
HETATM   14  O   UNL     1     -10.738   7.496  66.940  1.00  0.00    -0.352 OA 
HETATM   15  C   UNL     1     -10.399   9.577  65.961  1.00  0.00    -0.130 A  
BRANCH   9  16
HETATM   16  C   UNL     1      -9.624   8.406  69.569  1.00  0.00    -0.170 C  
HETATM   17  C   UNL     1      -8.575   7.345  69.358  1.00  0.00    -0.134 C  
HETATM   18  C   UNL     1      -8.820   6.030  69.319  1.00  0.00    -0.123 C  
HETATM   19  C   UNL     1     -10.194   5.465  69.509  1.00  0.00    -0.336 C  
HETATM   20  C   UNL     1      -7.737   5.035  69.006  1.00  0.00    -0.080 C  
HETATM   21  C   UNL     1     -11.279   6.394  70.062  1.00  0.00    -0.475 C  
HETATM   22  C   UNL     1     -11.007   7.915  70.118  1.00  0.00    -0.235 C  
BRANCH  22  23
HETATM   23  C   UNL     1     -11.331   8.510  71.500  1.00  0.00    -0.348 C  
HETATM   24  C   UNL     1     -12.181   9.544  71.625  1.00  0.00    -0.477 C  
HETATM   25  C   UNL     1     -10.700   7.911  72.725  1.00  0.00    -0.435 C  
ENDBRANCH  22  23
ENDBRANCH   9  16
ENDBRANCH   5   6
ENDBRANCH   4   5
ENDBRANCH   3   4
ENDBRANCH   2   3
TORSDOF 6
ENDMDL
MODEL       70
REMARK 921   NORMALIZED FREE ENERGY PREDICTED BY IDOCK:   -4.91 KCAL/MOL
REMARK 922        TOTAL FREE ENERGY PREDICTED BY IDOCK:   -7.56 KCAL/MOL
REMARK 923 INTER-LIGAND FREE ENERGY PREDICTED BY IDOCK:   -6.67 KCAL/MOL
REMARK 924 INTRA-LIGAND FREE ENERGY PREDICTED BY IDOCK:   -0.89 KCAL/MOL
REMARK 927      BINDING AFFINITY PREDICTED BY RF-SCORE:    0.00 PKD
ROOT
HETATM    1  C   UNL     1     -12.201  14.380  64.614  1.00  0.00    -0.479 C  
HETATM    2  C   UNL     1     -12.497  12.913  64.878  1.00  0.00    -0.540 C  
ENDROOT
BRANCH   2   3
HETATM    3  C   UNL     1     -11.208  12.095  64.964  1.00  0.00    -0.372 C  
BRANCH   3   4
HETATM    4  C   UNL     1     -10.527  12.293  66.313  1.00  0.00    -0.266 C  
BRANCH   4   5
HETATM    5  C   UNL     1     -11.550  12.445  67.439  1.00  0.00    -0.433 C  
BRANCH   5   6
HETATM    6  C   UNL     1     -11.357  11.376  68.486  1.00  0.00    -0.333 A  
HETATM    7  C   UNL     1     -12.073  11.427  69.683  1.00  0.00    -0.373 A  
HETATM    8  C   UNL     1     -11.848  10.478  70.682  1.00  0.00    -0.360 A  
HETATM    9  C   UNL     1     -10.880   9.464  70.548  1.00  0.00    -0.336 A  
HETATM   10  O   UNL     1     -12.607  10.562  71.818  1.00  0.00    -0.405 OA 
HETATM   11  H   UNL     1      -8.814   8.419  68.164  1.00  0.00     0.000 HD 
HETATM   12  H   UNL     1     -12.454   9.916  72.498  1.00  0.00     0.000 HD 
HETATM   13  C   UNL     1     -10.204   9.407  69.314  1.00  0.00    -0.202 A  
HETATM   14  O   UNL     1      -9.270   8.457  68.996  1.00  0.00    -0.147 OA 
HETATM   15  C   UNL     1     -10.445  10.336  68.297  1.00  0.00    -0.230 A  
BRANCH   9  16
HETATM   16  C   UNL     1     -10.637   8.435  71.663  1.00  0.00    -0.327 C  
HETATM   17  C   UNL     1      -9.297   8.695  72.303  1.00  0.00    -0.322 C  
HETATM   18  C   UNL     1      -8.256   7.856  72.253  1.00  0.00    -0.167 C  
HETATM   19  C   UNL     1      -8.326   6.531  71.559  1.00  0.00    -0.121 C  
HETATM   20  C   UNL     1      -6.918   8.227  72.832  1.00  0.00    -0.124 C  
HETATM   21  C   UNL     1      -9.709   6.001  71.167  1.00  0.00    -0.206 C  
HETATM   22  C   UNL     1     -10.922   6.958  71.225  1.00  0.00    -0.275 C  
BRANCH  22  23
HETATM   23  C   UNL     1     -12.109   6.342  71.987  1.00  0.00    -0.321 C  
HETATM   24  C   UNL     1     -13.355   6.817  71.825  1.00  0.00    -0.185 C  
HETATM   25  C   UNL     1     -11.867   5.180  72.909  1.00  0.00    -0.147 C  
ENDBRANCH  22  23
ENDBRANCH   9  16
ENDBRANCH   5   6
ENDBRANCH   4   5
ENDBRANCH   3   4
ENDBRANCH   2   3
TORSDOF 6
ENDMDL
MODEL       71
REMARK 921   NORMALIZED FREE ENERGY PREDICTED BY IDOCK:   -4.89 KCAL/MOL
REMARK 922        TOTAL FREE ENERGY PREDICTED BY IDOCK:   -7.53 KCAL/MOL
REMARK 923 INTER-LIGAND FREE ENERGY PREDICTED BY IDOCK:   -6.59 KCAL/MOL
REMARK 924 INTRA-LIGAND FREE ENERGY PREDICTED BY IDOCK:   -0.94 KCAL/MOL
REMARK 927      BINDING AFFINITY PREDICTED BY RF-SCORE:    0.00 PKD
ROOT
HETATM    1  C   UNL     1     -10.220  19.895  68.559  1.00  0.00    -0.529 C  
HETATM    2  C   UNL     1     -10.327  19.929  67.044  1.00  0.00    -0.592 C  
ENDROOT
BRANCH   2   3
HETATM    3  C   UNL     1      -8.966  19.699  66.387  1.00  0.00    -0.427 C  
BRANCH   3   4
HETATM    4  C   UNL     1      -8.690  18.210  66.215  1.00  0.00    -0.195 C  
BRANCH   4   5
HETATM    5  C   UNL     1      -9.979  17.429  65.956  1.00  0.00    -0.230 C  
BRANCH   5   6
HETATM    6  C   UNL     1      -9.834  15.994  66.402  1.00  0.00    -0.308 A  
HETATM    7  C   UNL     1      -9.281  15.697  67.647  1.00  0.00    -0.193 A  
HETATM    8  C   UNL     1      -9.084  14.371  68.036  1.00  0.00    -0.188 A  
HETATM    9  C   UNL     1      -9.393  13.289  67.189  1.00  0.00    -0.240 A  
HETATM   10  O   UNL     1      -8.570  14.145  69.284  1.00  0.00    -0.357 OA 
HETATM   11  H   UNL     1     -10.805  12.903  64.205  1.00  0.00     0.000 HD 
HETATM   12  H   UNL     1      -8.436  13.243  69.548  1.00  0.00     0.000 HD 
HETATM   13  C   UNL     1      -9.992  13.613  65.956  1.00  0.00    -0.302 A  
HETATM   14  O   UNL     1     -10.401  12.684  65.037  1.00  0.00    -0.289 OA 
HETATM   15  C   UNL     1     -10.220  14.939  65.573  1.00  0.00    -0.401 A  
BRANCH   9  16
HETATM   16  C   UNL     1      -9.158  11.835  67.628  1.00  0.00    -0.177 C  
HETATM   17  C   UNL     1      -8.144  11.193  66.717  1.00  0.00    -0.155 C  
HETATM   18  C   UNL     1      -8.402  10.172  65.891  1.00  0.00    -0.137 C  
HETATM   19  C   UNL     1      -9.754   9.534  65.804  1.00  0.00    -0.357 C  
HETATM   20  C   UNL     1      -7.364   9.648  64.938  1.00  0.00    -0.118 C  
HETATM   21  C   UNL     1     -10.770   9.858  66.904  1.00  0.00    -0.195 C  
HETATM   22  C   UNL     1     -10.482  11.032  67.868  1.00  0.00    -0.223 C  
BRANCH  22  23
HETATM   23  C   UNL     1     -10.659  10.625  69.342  1.00  0.00    -0.270 C  
HETATM   24  C   UNL     1      -9.826   9.742  69.920  1.00  0.00    -0.279 C  
HETATM   25  C   UNL     1     -11.767  11.242  70.148  1.00  0.00    -0.429 C  
ENDBRANCH  22  23
ENDBRANCH   9  16
ENDBRANCH   5   6
ENDBRANCH   4   5
ENDBRANCH   3   4
ENDBRANCH   2   3
TORSDOF 6
ENDMDL
MODEL       72
REMARK 921   NORMALIZED FREE ENERGY PREDICTED BY IDOCK:   -4.87 KCAL/MOL
REMARK 922        TOTAL FREE ENERGY PREDICTED BY IDOCK:   -7.51 KCAL/MOL
REMARK 923 INTER-LIGAND FREE ENERGY PREDICTED BY IDOCK:   -7.06 KCAL/MOL
REMARK 924 INTRA-LIGAND FREE ENERGY PREDICTED BY IDOCK:   -0.45 KCAL/MOL
REMARK 927      BINDING AFFINITY PREDICTED BY RF-SCORE:    0.00 PKD
ROOT
HETATM    1  C   UNL     1     -12.330  15.335  74.405  1.00  0.00    -0.710 C  
HETATM    2  C   UNL     1     -12.673  16.044  73.106  1.00  0.00    -0.619 C  
ENDROOT
BRANCH   2   3
HETATM    3  C   UNL     1     -14.151  15.873  72.755  1.00  0.00    -0.353 C  
BRANCH   3   4
HETATM    4  C   UNL     1     -14.319  15.015  71.507  1.00  0.00    -0.651 C  
BRANCH   4   5
HETATM    5  C   UNL     1     -13.069  15.058  70.627  1.00  0.00    -0.365 C  
BRANCH   5   6
HETATM    6  C   UNL     1     -12.467  13.681  70.484  1.00  0.00    -0.394 A  
HETATM    7  C   UNL     1     -11.584  13.405  69.440  1.00  0.00    -0.365 A  
HETATM    8  C   UNL     1     -11.077  12.116  69.265  1.00  0.00    -0.167 A  
HETATM    9  C   UNL     1     -11.456  11.044  70.096  1.00  0.00    -0.383 A  
HETATM   10  O   UNL     1     -10.189  11.918  68.243  1.00  0.00    -0.193 OA 
HETATM   11  H   UNL     1     -13.314  10.660  72.824  1.00  0.00     0.000 HD 
HETATM   12  H   UNL     1      -9.844  11.040  68.124  1.00  0.00     0.000 HD 
HETATM   13  C   UNL     1     -12.312  11.358  71.169  1.00  0.00    -0.299 A  
HETATM   14  O   UNL     1     -12.736  10.448  72.100  1.00  0.00    -0.345 OA 
HETATM   15  C   UNL     1     -12.799  12.654  71.369  1.00  0.00    -0.358 A  
BRANCH   9  16
HETATM   16  C   UNL     1     -10.897   9.628  69.881  1.00  0.00    -0.287 C  
HETATM   17  C   UNL     1     -11.961   8.613  70.212  1.00  0.00     0.271 C  
HETATM   18  C   UNL     1     -11.889   7.738  71.222  1.00  0.00    -0.318 C  
HETATM   19  C   UNL     1     -10.704   7.663  72.135  1.00  0.00    -0.289 C  
HETATM   20  C   UNL     1     -13.035   6.821  71.552  1.00  0.00    -0.281 C  
HETATM   21  C   UNL     1      -9.426   8.392  71.709  1.00  0.00    -0.302 C  
HETATM   22  C   UNL     1      -9.493   9.402  70.539  1.00  0.00    -0.327 C  
BRANCH  22  23
HETATM   23  C   UNL     1      -8.392   9.149  69.494  1.00  0.00    -0.126 C  
HETATM   24  C   UNL     1      -8.704   8.877  68.215  1.00  0.00    -0.134 C  
HETATM   25  C   UNL     1      -6.950   9.230  69.910  1.00  0.00    -0.061 C  
ENDBRANCH  22  23
ENDBRANCH   9  16
ENDBRANCH   5   6
ENDBRANCH   4   5
ENDBRANCH   3   4
ENDBRANCH   2   3
TORSDOF 6
ENDMDL
MODEL       73
REMARK 921   NORMALIZED FREE ENERGY PREDICTED BY IDOCK:   -4.86 KCAL/MOL
REMARK 922        TOTAL FREE ENERGY PREDICTED BY IDOCK:   -7.50 KCAL/MOL
REMARK 923 INTER-LIGAND FREE ENERGY PREDICTED BY IDOCK:   -6.76 KCAL/MOL
REMARK 924 INTRA-LIGAND FREE ENERGY PREDICTED BY IDOCK:   -0.74 KCAL/MOL
REMARK 927      BINDING AFFINITY PREDICTED BY RF-SCORE:    0.00 PKD
ROOT
HETATM    1  C   UNL     1     -10.901   7.610  73.021  1.00  0.00    -0.457 C  
HETATM    2  C   UNL     1      -9.670   8.201  72.356  1.00  0.00    -0.338 C  
ENDROOT
BRANCH   2   3
HETATM    3  C   UNL     1      -9.083   7.240  71.323  1.00  0.00    -0.146 C  
BRANCH   3   4
HETATM    4  C   UNL     1     -10.177   6.666  70.431  1.00  0.00    -0.215 C  
BRANCH   4   5
HETATM    5  C   UNL     1      -9.738   6.615  68.968  1.00  0.00    -0.142 C  
BRANCH   5   6
HETATM    6  C   UNL     1      -9.776   7.992  68.348  1.00  0.00    -0.168 A  
HETATM    7  C   UNL     1     -10.856   8.841  68.590  1.00  0.00    -0.018 A  
HETATM    8  C   UNL     1     -10.929  10.087  67.966  1.00  0.00    -0.240 A  
HETATM    9  C   UNL     1      -9.952  10.524  67.050  1.00  0.00    -0.244 A  
HETATM   10  O   UNL     1     -11.996  10.889  68.272  1.00  0.00    -0.723 OA 
HETATM   11  H   UNL     1      -7.045   9.382  65.914  1.00  0.00     0.000 HD 
HETATM   12  H   UNL     1     -12.045  11.737  67.847  1.00  0.00     0.000 HD 
HETATM   13  C   UNL     1      -8.850   9.668  66.858  1.00  0.00    -0.131 A  
HETATM   14  O   UNL     1      -7.789   9.959  66.043  1.00  0.00    -0.106 OA 
HETATM   15  C   UNL     1      -8.756   8.431  67.503  1.00  0.00    -0.136 A  
BRANCH   9  16
HETATM   16  C   UNL     1     -10.054  11.895  66.362  1.00  0.00    -0.241 C  
HETATM   17  C   UNL     1      -9.622  12.972  67.324  1.00  0.00    -0.225 C  
HETATM   18  C   UNL     1     -10.425  13.928  67.806  1.00  0.00    -0.243 C  
HETATM   19  C   UNL     1     -11.865  14.039  67.411  1.00  0.00    -0.445 C  
HETATM   20  C   UNL     1      -9.947  14.911  68.839  1.00  0.00    -0.233 C  
HETATM   21  C   UNL     1     -12.339  13.230  66.200  1.00  0.00    -0.423 C  
HETATM   22  C   UNL     1     -11.420  12.126  65.628  1.00  0.00    -0.408 C  
BRANCH  22  23
HETATM   23  C   UNL     1     -11.249  12.248  64.104  1.00  0.00    -0.430 C  
HETATM   24  C   UNL     1     -12.061  13.036  63.379  1.00  0.00    -0.591 C  
HETATM   25  C   UNL     1     -10.146  11.487  63.424  1.00  0.00    -0.454 C  
ENDBRANCH  22  23
ENDBRANCH   9  16
ENDBRANCH   5   6
ENDBRANCH   4   5
ENDBRANCH   3   4
ENDBRANCH   2   3
TORSDOF 6
ENDMDL
MODEL       74
REMARK 921   NORMALIZED FREE ENERGY PREDICTED BY IDOCK:   -4.83 KCAL/MOL
REMARK 922        TOTAL FREE ENERGY PREDICTED BY IDOCK:   -7.45 KCAL/MOL
REMARK 923 INTER-LIGAND FREE ENERGY PREDICTED BY IDOCK:   -6.95 KCAL/MOL
REMARK 924 INTRA-LIGAND FREE ENERGY PREDICTED BY IDOCK:   -0.50 KCAL/MOL
REMARK 927      BINDING AFFINITY PREDICTED BY RF-SCORE:    0.00 PKD
ROOT
HETATM    1  C   UNL     1      -8.241   7.461  72.452  1.00  0.00    -0.117 C  
HETATM    2  C   UNL     1      -9.239   8.454  73.024  1.00  0.00    -0.256 C  
ENDROOT
BRANCH   2   3
HETATM    3  C   UNL     1     -10.670   7.929  72.907  1.00  0.00    -0.440 C  
BRANCH   3   4
HETATM    4  C   UNL     1     -11.447   8.700  71.847  1.00  0.00    -0.419 C  
BRANCH   4   5
HETATM    5  C   UNL     1     -11.270   8.079  70.461  1.00  0.00    -0.252 C  
BRANCH   5   6
HETATM    6  C   UNL     1     -10.978   9.143  69.431  1.00  0.00    -0.108 A  
HETATM    7  C   UNL     1     -11.440  10.446  69.615  1.00  0.00    -0.326 A  
HETATM    8  C   UNL     1     -11.229  11.416  68.632  1.00  0.00    -0.243 A  
HETATM    9  C   UNL     1     -10.585  11.121  67.415  1.00  0.00    -0.272 A  
HETATM   10  O   UNL     1     -11.676  12.684  68.888  1.00  0.00    -0.290 OA 
HETATM   11  H   UNL     1      -9.060   8.486  66.082  1.00  0.00     0.000 HD 
HETATM   12  H   UNL     1     -11.532  13.344  68.219  1.00  0.00     0.000 HD 
HETATM   13  C   UNL     1     -10.089   9.811  67.273  1.00  0.00    -0.207 A  
HETATM   14  O   UNL     1      -9.395   9.370  66.178  1.00  0.00    -0.172 OA 
HETATM   15  C   UNL     1     -10.270   8.842  68.266  1.00  0.00    -0.239 A  
BRANCH   9  16
HETATM   16  C   UNL     1     -10.373  12.198  66.339  1.00  0.00    -0.246 C  
HETATM   17  C   UNL     1      -9.609  13.354  66.931  1.00  0.00    -0.257 C  
HETATM   18  C   UNL     1     -10.099  14.590  67.086  1.00  0.00    -0.252 C  
HETATM   19  C   UNL     1     -11.484  14.963  66.655  1.00  0.00    -0.297 C  
HETATM   20  C   UNL     1      -9.310  15.669  67.776  1.00  0.00    -0.202 C  
HETATM   21  C   UNL     1     -12.235  13.989  65.743  1.00  0.00    -0.475 C  
HETATM   22  C   UNL     1     -11.678  12.560  65.550  1.00  0.00    -0.457 C  
BRANCH  22  23
HETATM   23  C   UNL     1     -11.588  12.170  64.064  1.00  0.00    -0.504 C  
HETATM   24  C   UNL     1     -12.692  11.855  63.365  1.00  0.00    -0.496 C  
HETATM   25  C   UNL     1     -10.248  12.161  63.385  1.00  0.00    -0.422 C  
ENDBRANCH  22  23
ENDBRANCH   9  16
ENDBRANCH   5   6
ENDBRANCH   4   5
ENDBRANCH   3   4
ENDBRANCH   2   3
TORSDOF 6
ENDMDL
MODEL       75
REMARK 921   NORMALIZED FREE ENERGY PREDICTED BY IDOCK:   -4.79 KCAL/MOL
REMARK 922        TOTAL FREE ENERGY PREDICTED BY IDOCK:   -7.40 KCAL/MOL
REMARK 923 INTER-LIGAND FREE ENERGY PREDICTED BY IDOCK:   -6.77 KCAL/MOL
REMARK 924 INTRA-LIGAND FREE ENERGY PREDICTED BY IDOCK:   -0.63 KCAL/MOL
REMARK 927      BINDING AFFINITY PREDICTED BY RF-SCORE:    0.00 PKD
ROOT
HETATM    1  C   UNL     1      -9.358   3.716  65.086  1.00  0.00    -0.157 C  
HETATM    2  C   UNL     1     -10.413   4.638  65.674  1.00  0.00    -0.260 C  
ENDROOT
BRANCH   2   3
HETATM    3  C   UNL     1     -10.089   4.995  67.125  1.00  0.00    -0.239 C  
BRANCH   3   4
HETATM    4  C   UNL     1     -10.874   6.223  67.570  1.00  0.00    -0.436 C  
BRANCH   4   5
HETATM    5  C   UNL     1     -10.014   7.159  68.420  1.00  0.00    -0.166 C  
BRANCH   5   6
HETATM    6  C   UNL     1     -10.326   8.603  68.111  1.00  0.00    -0.267 A  
HETATM    7  C   UNL     1     -11.032   9.382  69.028  1.00  0.00    -0.094 A  
HETATM    8  C   UNL     1     -11.381  10.697  68.718  1.00  0.00    -0.277 A  
HETATM    9  C   UNL     1     -11.075  11.279  67.471  1.00  0.00    -0.346 A  
HETATM   10  O   UNL     1     -12.042  11.420  69.673  1.00  0.00    -0.308 OA 
HETATM   11  H   UNL     1      -9.391  10.380  64.752  1.00  0.00     0.000 HD 
HETATM   12  H   UNL     1     -12.279  12.316  69.462  1.00  0.00     0.000 HD 
HETATM   13  C   UNL     1     -10.323  10.488  66.582  1.00  0.00    -0.237 A  
HETATM   14  O   UNL     1      -9.898  10.914  65.352  1.00  0.00    -0.225 OA 
HETATM   15  C   UNL     1      -9.944   9.179  66.898  1.00  0.00    -0.304 A  
BRANCH   9  16
HETATM   16  C   UNL     1     -11.478  12.725  67.142  1.00  0.00    -0.394 C  
HETATM   17  C   UNL     1     -12.177  12.760  65.807  1.00  0.00    -0.469 C  
HETATM   18  C   UNL     1     -11.705  13.377  64.717  1.00  0.00    -0.393 C  
HETATM   19  C   UNL     1     -10.412  14.133  64.721  1.00  0.00    -0.432 C  
HETATM   20  C   UNL     1     -12.411  13.285  63.393  1.00  0.00    -0.402 C  
HETATM   21  C   UNL     1      -9.780  14.461  66.077  1.00  0.00    -0.320 C  
HETATM   22  C   UNL     1     -10.318  13.759  67.345  1.00  0.00    -0.252 C  
BRANCH  22  23
HETATM   23  C   UNL     1     -10.621  14.760  68.475  1.00  0.00    -0.248 C  
HETATM   24  C   UNL     1      -9.641  15.501  69.022  1.00  0.00    -0.238 C  
HETATM   25  C   UNL     1     -12.035  14.922  68.956  1.00  0.00    -0.307 C  
ENDBRANCH  22  23
ENDBRANCH   9  16
ENDBRANCH   5   6
ENDBRANCH   4   5
ENDBRANCH   3   4
ENDBRANCH   2   3
TORSDOF 6
ENDMDL
MODEL       76
REMARK 921   NORMALIZED FREE ENERGY PREDICTED BY IDOCK:   -4.77 KCAL/MOL
REMARK 922        TOTAL FREE ENERGY PREDICTED BY IDOCK:   -7.38 KCAL/MOL
REMARK 923 INTER-LIGAND FREE ENERGY PREDICTED BY IDOCK:   -7.26 KCAL/MOL
REMARK 924 INTRA-LIGAND FREE ENERGY PREDICTED BY IDOCK:   -0.12 KCAL/MOL
REMARK 927      BINDING AFFINITY PREDICTED BY RF-SCORE:    0.00 PKD
ROOT
HETATM    1  C   UNL     1     -10.899   6.289  67.530  1.00  0.00    -0.436 C  
HETATM    2  C   UNL     1      -9.730   6.918  66.791  1.00  0.00    -0.232 C  
ENDROOT
BRANCH   2   3
HETATM    3  C   UNL     1     -10.010   8.384  66.457  1.00  0.00    -0.335 C  
BRANCH   3   4
HETATM    4  C   UNL     1      -8.961   8.934  65.499  1.00  0.00    -0.246 C  
BRANCH   4   5
HETATM    5  C   UNL     1      -9.557   9.979  64.556  1.00  0.00    -0.346 C  
BRANCH   5   6
HETATM    6  C   UNL     1      -9.983  11.209  65.320  1.00  0.00    -0.311 A  
HETATM    7  C   UNL     1      -9.181  11.714  66.344  1.00  0.00    -0.219 A  
HETATM    8  C   UNL     1      -9.603  12.811  67.098  1.00  0.00    -0.219 A  
HETATM    9  C   UNL     1     -10.853  13.426  66.889  1.00  0.00    -0.282 A  
HETATM   10  O   UNL     1      -8.755  13.280  68.064  1.00  0.00    -0.169 OA 
HETATM   11  H   UNL     1     -13.356  13.103  64.728  1.00  0.00     0.000 HD 
HETATM   12  H   UNL     1      -9.043  14.027  68.577  1.00  0.00     0.000 HD 
HETATM   13  C   UNL     1     -11.623  12.927  65.821  1.00  0.00    -0.368 A  
HETATM   14  O   UNL     1     -12.837  13.440  65.448  1.00  0.00    -0.594 OA 
HETATM   15  C   UNL     1     -11.193  11.848  65.043  1.00  0.00    -0.350 A  
BRANCH   9  16
HETATM   16  C   UNL     1     -11.307  14.625  67.737  1.00  0.00    -0.338 C  
HETATM   17  C   UNL     1     -11.076  15.900  66.967  1.00  0.00    -0.119 C  
HETATM   18  C   UNL     1     -10.213  16.859  67.324  1.00  0.00    -0.297 C  
HETATM   19  C   UNL     1      -9.386  16.769  68.568  1.00  0.00    -0.246 C  
HETATM   20  C   UNL     1      -9.965  18.059  66.452  1.00  0.00    -0.362 C  
HETATM   21  C   UNL     1      -9.764  15.705  69.603  1.00  0.00    -0.276 C  
HETATM   22  C   UNL     1     -10.763  14.594  69.206  1.00  0.00    -0.254 C  
BRANCH  22  23
HETATM   23  C   UNL     1     -11.891  14.434  70.242  1.00  0.00    -0.382 C  
HETATM   24  C   UNL     1     -12.355  13.217  70.574  1.00  0.00    -0.380 C  
HETATM   25  C   UNL     1     -12.463  15.656  70.902  1.00  0.00    -0.497 C  
ENDBRANCH  22  23
ENDBRANCH   9  16
ENDBRANCH   5   6
ENDBRANCH   4   5
ENDBRANCH   3   4
ENDBRANCH   2   3
TORSDOF 6
ENDMDL
MODEL       77
REMARK 921   NORMALIZED FREE ENERGY PREDICTED BY IDOCK:   -4.77 KCAL/MOL
REMARK 922        TOTAL FREE ENERGY PREDICTED BY IDOCK:   -7.37 KCAL/MOL
REMARK 923 INTER-LIGAND FREE ENERGY PREDICTED BY IDOCK:   -6.47 KCAL/MOL
REMARK 924 INTRA-LIGAND FREE ENERGY PREDICTED BY IDOCK:   -0.90 KCAL/MOL
REMARK 927      BINDING AFFINITY PREDICTED BY RF-SCORE:    0.00 PKD
ROOT
HETATM    1  C   UNL     1     -10.887  15.578  64.989  1.00  0.00    -0.468 C  
HETATM    2  C   UNL     1     -11.965  14.667  64.427  1.00  0.00    -0.454 C  
ENDROOT
BRANCH   2   3
HETATM    3  C   UNL     1     -12.754  13.988  65.546  1.00  0.00    -0.517 C  
BRANCH   3   4
HETATM    4  C   UNL     1     -11.822  13.240  66.492  1.00  0.00    -0.450 C  
BRANCH   4   5
HETATM    5  C   UNL     1     -11.258  11.978  65.840  1.00  0.00    -0.385 C  
BRANCH   5   6
HETATM    6  C   UNL     1     -10.928  10.937  66.883  1.00  0.00    -0.286 A  
HETATM    7  C   UNL     1     -10.337   9.730  66.510  1.00  0.00    -0.262 A  
HETATM    8  C   UNL     1     -10.092   8.739  67.461  1.00  0.00    -0.222 A  
HETATM    9  C   UNL     1     -10.457   8.892  68.813  1.00  0.00    -0.223 A  
HETATM   10  O   UNL     1      -9.478   7.591  67.038  1.00  0.00    -0.146 OA 
HETATM   11  H   UNL     1     -11.746  11.310  70.693  1.00  0.00     0.000 HD 
HETATM   12  H   UNL     1      -9.310   6.917  67.686  1.00  0.00     0.000 HD 
HETATM   13  C   UNL     1     -11.010  10.136  69.173  1.00  0.00    -0.230 A  
HETATM   14  O   UNL     1     -11.373  10.471  70.450  1.00  0.00    -0.303 OA 
HETATM   15  C   UNL     1     -11.230  11.145  68.230  1.00  0.00    -0.343 A  
BRANCH   9  16
HETATM   16  C   UNL     1     -10.190   7.784  69.845  1.00  0.00    -0.213 C  
HETATM   17  C   UNL     1     -11.502   7.236  70.343  1.00  0.00    -0.279 C  
HETATM   18  C   UNL     1     -11.944   7.344  71.602  1.00  0.00    -0.339 C  
HETATM   19  C   UNL     1     -11.147   8.020  72.674  1.00  0.00    -0.453 C  
HETATM   20  C   UNL     1     -13.309   6.858  72.002  1.00  0.00    -0.111 C  
HETATM   21  C   UNL     1      -9.672   8.316  72.391  1.00  0.00    -0.373 C  
HETATM   22  C   UNL     1      -9.146   8.189  70.942  1.00  0.00    -0.169 C  
BRANCH  22  23
HETATM   23  C   UNL     1      -7.861   7.345  70.864  1.00  0.00    -0.096 C  
HETATM   24  C   UNL     1      -6.916   7.610  69.946  1.00  0.00    -0.054 C  
HETATM   25  C   UNL     1      -7.657   6.224  71.844  1.00  0.00    -0.096 C  
ENDBRANCH  22  23
ENDBRANCH   9  16
ENDBRANCH   5   6
ENDBRANCH   4   5
ENDBRANCH   3   4
ENDBRANCH   2   3
TORSDOF 6
ENDMDL
MODEL       78
REMARK 921   NORMALIZED FREE ENERGY PREDICTED BY IDOCK:   -4.76 KCAL/MOL
REMARK 922        TOTAL FREE ENERGY PREDICTED BY IDOCK:   -7.36 KCAL/MOL
REMARK 923 INTER-LIGAND FREE ENERGY PREDICTED BY IDOCK:   -7.28 KCAL/MOL
REMARK 924 INTRA-LIGAND FREE ENERGY PREDICTED BY IDOCK:   -0.08 KCAL/MOL
REMARK 927      BINDING AFFINITY PREDICTED BY RF-SCORE:    0.00 PKD
ROOT
HETATM    1  C   UNL     1     -10.639  19.814  66.126  1.00  0.00    -0.569 C  
HETATM    2  C   UNL     1      -9.689  20.159  67.260  1.00  0.00    -0.574 C  
ENDROOT
BRANCH   2   3
HETATM    3  C   UNL     1      -8.590  19.106  67.402  1.00  0.00    -0.312 C  
BRANCH   3   4
HETATM    4  C   UNL     1      -9.145  17.816  67.993  1.00  0.00    -0.269 C  
BRANCH   4   5
HETATM    5  C   UNL     1      -8.218  16.631  67.721  1.00  0.00    -0.184 C  
BRANCH   5   6
HETATM    6  C   UNL     1      -8.961  15.325  67.868  1.00  0.00    -0.170 A  
HETATM    7  C   UNL     1      -8.329  14.218  68.435  1.00  0.00    -0.164 A  
HETATM    8  C   UNL     1      -8.989  12.990  68.512  1.00  0.00    -0.048 A  
HETATM    9  C   UNL     1     -10.287  12.804  67.996  1.00  0.00    -0.232 A  
HETATM   10  O   UNL     1      -8.329  11.952  69.111  1.00  0.00    -0.348 OA 
HETATM   11  H   UNL     1     -12.621  14.727  66.619  1.00  0.00     0.000 HD 
HETATM   12  H   UNL     1      -8.779  11.116  69.164  1.00  0.00     0.000 HD 
HETATM   13  C   UNL     1     -10.919  13.947  67.470  1.00  0.00    -0.276 A  
HETATM   14  O   UNL     1     -12.195  13.955  66.974  1.00  0.00    -0.421 OA 
HETATM   15  C   UNL     1     -10.274  15.188  67.417  1.00  0.00    -0.235 A  
BRANCH   9  16
HETATM   16  C   UNL     1     -10.993  11.442  68.078  1.00  0.00    -0.290 C  
HETATM   17  C   UNL     1     -11.995  11.463  69.204  1.00  0.00    -0.395 C  
HETATM   18  C   UNL     1     -11.915  10.709  70.307  1.00  0.00    -0.425 C  
HETATM   19  C   UNL     1     -10.806   9.727  70.528  1.00  0.00    -0.387 C  
HETATM   20  C   UNL     1     -12.900  10.856  71.433  1.00  0.00    -0.554 C  
HETATM   21  C   UNL     1      -9.923   9.364  69.330  1.00  0.00    -0.182 C  
HETATM   22  C   UNL     1     -10.009  10.223  68.047  1.00  0.00    -0.177 C  
BRANCH  22  23
HETATM   23  C   UNL     1     -10.186   9.361  66.785  1.00  0.00    -0.320 C  
HETATM   24  C   UNL     1     -10.500   8.057  66.878  1.00  0.00    -0.387 C  
HETATM   25  C   UNL     1     -10.025   9.994  65.432  1.00  0.00    -0.364 C  
ENDBRANCH  22  23
ENDBRANCH   9  16
ENDBRANCH   5   6
ENDBRANCH   4   5
ENDBRANCH   3   4
ENDBRANCH   2   3
TORSDOF 6
ENDMDL
MODEL       79
REMARK 921   NORMALIZED FREE ENERGY PREDICTED BY IDOCK:   -4.76 KCAL/MOL
REMARK 922        TOTAL FREE ENERGY PREDICTED BY IDOCK:   -7.36 KCAL/MOL
REMARK 923 INTER-LIGAND FREE ENERGY PREDICTED BY IDOCK:   -6.74 KCAL/MOL
REMARK 924 INTRA-LIGAND FREE ENERGY PREDICTED BY IDOCK:   -0.62 KCAL/MOL
REMARK 927      BINDING AFFINITY PREDICTED BY RF-SCORE:    0.00 PKD
ROOT
HETATM    1  C   UNL     1     -13.545  15.764  72.818  1.00  0.00    -0.662 C  
HETATM    2  C   UNL     1     -12.964  15.322  71.486  1.00  0.00    -0.488 C  
ENDROOT
BRANCH   2   3
HETATM    3  C   UNL     1     -11.507  15.764  71.343  1.00  0.00    -0.496 C  
BRANCH   3   4
HETATM    4  C   UNL     1     -11.019  15.576  69.912  1.00  0.00    -0.315 C  
BRANCH   4   5
HETATM    5  C   UNL     1     -12.120  15.006  69.017  1.00  0.00    -0.243 C  
BRANCH   5   6
HETATM    6  C   UNL     1     -11.670  13.720  68.367  1.00  0.00    -0.393 A  
HETATM    7  C   UNL     1     -10.918  12.793  69.089  1.00  0.00    -0.185 A  
HETATM    8  C   UNL     1     -10.443  11.634  68.473  1.00  0.00    -0.217 A  
HETATM    9  C   UNL     1     -10.665  11.367  67.108  1.00  0.00    -0.292 A  
HETATM   10  O   UNL     1      -9.741  10.747  69.244  1.00  0.00    -0.325 OA 
HETATM   11  H   UNL     1     -12.359  12.790  64.628  1.00  0.00     0.000 HD 
HETATM   12  H   UNL     1      -9.418   9.959  68.825  1.00  0.00     0.000 HD 
HETATM   13  C   UNL     1     -11.464  12.295  66.413  1.00  0.00    -0.378 A  
HETATM   14  O   UNL     1     -11.819  12.164  65.096  1.00  0.00    -0.358 OA 
HETATM   15  C   UNL     1     -11.969  13.443  67.032  1.00  0.00    -0.429 A  
BRANCH   9  16
HETATM   16  C   UNL     1     -10.123  10.092  66.442  1.00  0.00    -0.307 C  
HETATM   17  C   UNL     1     -10.760   8.884  67.081  1.00  0.00    -0.203 C  
HETATM   18  C   UNL     1     -10.099   7.962  67.791  1.00  0.00    -0.246 C  
HETATM   19  C   UNL     1      -8.619   8.028  68.009  1.00  0.00    -0.129 C  
HETATM   20  C   UNL     1     -10.818   6.836  68.482  1.00  0.00    -0.280 C  
HETATM   21  C   UNL     1      -7.811   9.000  67.144  1.00  0.00    -0.099 C  
HETATM   22  C   UNL     1      -8.562  10.067  66.314  1.00  0.00    -0.137 C  
BRANCH  22  23
HETATM   23  C   UNL     1      -8.096  10.091  64.847  1.00  0.00    -0.154 C  
HETATM   24  C   UNL     1      -6.802   9.913  64.531  1.00  0.00    -0.124 C  
HETATM   25  C   UNL     1      -9.109  10.298  63.757  1.00  0.00    -0.285 C  
ENDBRANCH  22  23
ENDBRANCH   9  16
ENDBRANCH   5   6
ENDBRANCH   4   5
ENDBRANCH   3   4
ENDBRANCH   2   3
TORSDOF 6
ENDMDL
MODEL       80
REMARK 921   NORMALIZED FREE ENERGY PREDICTED BY IDOCK:   -4.74 KCAL/MOL
REMARK 922        TOTAL FREE ENERGY PREDICTED BY IDOCK:   -7.33 KCAL/MOL
REMARK 923 INTER-LIGAND FREE ENERGY PREDICTED BY IDOCK:   -6.24 KCAL/MOL
REMARK 924 INTRA-LIGAND FREE ENERGY PREDICTED BY IDOCK:   -1.09 KCAL/MOL
REMARK 927      BINDING AFFINITY PREDICTED BY RF-SCORE:    0.00 PKD
ROOT
HETATM    1  C   UNL     1      -9.220   9.978  62.749  1.00  0.00    -0.313 C  
HETATM    2  C   UNL     1      -8.233   9.917  63.902  1.00  0.00    -0.156 C  
ENDROOT
BRANCH   2   3
HETATM    3  C   UNL     1      -8.511   8.716  64.806  1.00  0.00    -0.168 C  
BRANCH   3   4
HETATM    4  C   UNL     1      -7.467   8.614  65.911  1.00  0.00    -0.085 C  
BRANCH   4   5
HETATM    5  C   UNL     1      -8.116   8.604  67.295  1.00  0.00    -0.101 C  
BRANCH   5   6
HETATM    6  C   UNL     1      -8.881   9.884  67.538  1.00  0.00    -0.131 A  
HETATM    7  C   UNL     1     -10.247   9.844  67.813  1.00  0.00    -0.241 A  
HETATM    8  C   UNL     1     -10.972  11.027  67.971  1.00  0.00    -0.258 A  
HETATM    9  C   UNL     1     -10.375  12.295  67.825  1.00  0.00    -0.216 A  
HETATM   10  O   UNL     1     -12.302  10.921  68.274  1.00  0.00    -0.730 OA 
HETATM   11  H   UNL     1      -7.304  13.459  67.319  1.00  0.00     0.000 HD 
HETATM   12  H   UNL     1     -12.794  11.726  68.382  1.00  0.00     0.000 HD 
HETATM   13  C   UNL     1      -8.986  12.308  67.592  1.00  0.00    -0.181 A  
HETATM   14  O   UNL     1      -8.241  13.451  67.476  1.00  0.00    -0.162 OA 
HETATM   15  C   UNL     1      -8.249  11.126  67.463  1.00  0.00    -0.119 A  
BRANCH   9  16
HETATM   16  C   UNL     1     -11.190  13.588  67.990  1.00  0.00    -0.300 C  
HETATM   17  C   UNL     1     -11.381  14.236  66.643  1.00  0.00    -0.356 C  
HETATM   18  C   UNL     1     -10.872  15.423  66.291  1.00  0.00    -0.301 C  
HETATM   19  C   UNL     1     -10.060  16.257  67.232  1.00  0.00    -0.264 C  
HETATM   20  C   UNL     1     -11.023  15.961  64.895  1.00  0.00    -0.427 C  
HETATM   21  C   UNL     1     -10.076  15.881  68.717  1.00  0.00    -0.221 C  
HETATM   22  C   UNL     1     -10.666  14.516  69.139  1.00  0.00    -0.263 C  
BRANCH  22  23
HETATM   23  C   UNL     1     -11.682  14.654  70.286  1.00  0.00    -0.355 C  
HETATM   24  C   UNL     1     -12.501  13.639  70.610  1.00  0.00    -0.417 C  
HETATM   25  C   UNL     1     -11.742  15.938  71.065  1.00  0.00    -0.473 C  
ENDBRANCH  22  23
ENDBRANCH   9  16
ENDBRANCH   5   6
ENDBRANCH   4   5
ENDBRANCH   3   4
ENDBRANCH   2   3
TORSDOF 6
ENDMDL
MODEL       81
REMARK 921   NORMALIZED FREE ENERGY PREDICTED BY IDOCK:   -4.67 KCAL/MOL
REMARK 922        TOTAL FREE ENERGY PREDICTED BY IDOCK:   -7.23 KCAL/MOL
REMARK 923 INTER-LIGAND FREE ENERGY PREDICTED BY IDOCK:   -6.71 KCAL/MOL
REMARK 924 INTRA-LIGAND FREE ENERGY PREDICTED BY IDOCK:   -0.52 KCAL/MOL
REMARK 927      BINDING AFFINITY PREDICTED BY RF-SCORE:    0.00 PKD
ROOT
HETATM    1  C   UNL     1     -11.309  15.881  64.613  1.00  0.00    -0.328 C  
HETATM    2  C   UNL     1     -12.100  14.601  64.398  1.00  0.00    -0.481 C  
ENDROOT
BRANCH   2   3
HETATM    3  C   UNL     1     -12.339  13.870  65.720  1.00  0.00    -0.518 C  
BRANCH   3   4
HETATM    4  C   UNL     1     -11.481  14.463  66.831  1.00  0.00    -0.379 C  
BRANCH   4   5
HETATM    5  C   UNL     1     -11.996  14.058  68.213  1.00  0.00    -0.384 C  
BRANCH   5   6
HETATM    6  C   UNL     1     -11.380  12.752  68.653  1.00  0.00    -0.333 A  
HETATM    7  C   UNL     1     -10.079  12.424  68.271  1.00  0.00    -0.227 A  
HETATM    8  C   UNL     1      -9.529  11.189  68.619  1.00  0.00    -0.193 A  
HETATM    9  C   UNL     1     -10.262  10.217  69.329  1.00  0.00    -0.244 A  
HETATM   10  O   UNL     1      -8.237  10.942  68.244  1.00  0.00    -0.115 OA 
HETATM   11  H   UNL     1     -13.255  10.039  70.761  1.00  0.00     0.000 HD 
HETATM   12  H   UNL     1      -7.863  10.101  68.482  1.00  0.00     0.000 HD 
HETATM   13  C   UNL     1     -11.555  10.590  69.742  1.00  0.00    -0.294 A  
HETATM   14  O   UNL     1     -12.383   9.787  70.482  1.00  0.00    -0.214 OA 
HETATM   15  C   UNL     1     -12.101  11.837  69.422  1.00  0.00    -0.301 A  
BRANCH   9  16
HETATM   16  C   UNL     1      -9.645   8.858  69.693  1.00  0.00    -0.170 C  
HETATM   17  C   UNL     1      -9.827   7.900  68.544  1.00  0.00    -0.186 C  
HETATM   18  C   UNL     1     -10.576   6.791  68.589  1.00  0.00    -0.263 C  
HETATM   19  C   UNL     1     -11.309   6.370  69.824  1.00  0.00    -0.494 C  
HETATM   20  C   UNL     1     -10.789   5.936  67.371  1.00  0.00    -0.341 C  
HETATM   21  C   UNL     1     -10.943   7.057  71.143  1.00  0.00    -0.275 C  
HETATM   22  C   UNL     1     -10.074   8.335  71.107  1.00  0.00    -0.237 C  
BRANCH  22  23
HETATM   23  C   UNL     1      -8.887   8.255  72.084  1.00  0.00    -0.265 C  
HETATM   24  C   UNL     1      -7.662   8.669  71.718  1.00  0.00    -0.131 C  
HETATM   25  C   UNL     1      -9.112   7.724  73.472  1.00  0.00    -0.342 C  
ENDBRANCH  22  23
ENDBRANCH   9  16
ENDBRANCH   5   6
ENDBRANCH   4   5
ENDBRANCH   3   4
ENDBRANCH   2   3
TORSDOF 6
ENDMDL
MODEL       82
REMARK 921   NORMALIZED FREE ENERGY PREDICTED BY IDOCK:   -4.66 KCAL/MOL
REMARK 922        TOTAL FREE ENERGY PREDICTED BY IDOCK:   -7.22 KCAL/MOL
REMARK 923 INTER-LIGAND FREE ENERGY PREDICTED BY IDOCK:   -6.30 KCAL/MOL
REMARK 924 INTRA-LIGAND FREE ENERGY PREDICTED BY IDOCK:   -0.91 KCAL/MOL
REMARK 927      BINDING AFFINITY PREDICTED BY RF-SCORE:    0.00 PKD
ROOT
HETATM    1  C   UNL     1     -12.920  14.492  71.825  1.00  0.00    -0.413 C  
HETATM    2  C   UNL     1     -12.776  15.703  70.920  1.00  0.00    -0.500 C  
ENDROOT
BRANCH   2   3
HETATM    3  C   UNL     1     -11.557  15.571  70.007  1.00  0.00    -0.356 C  
BRANCH   3   4
HETATM    4  C   UNL     1     -11.970  15.124  68.610  1.00  0.00    -0.270 C  
BRANCH   4   5
HETATM    5  C   UNL     1     -10.805  14.475  67.863  1.00  0.00    -0.260 C  
BRANCH   5   6
HETATM    6  C   UNL     1     -10.648  13.029  68.268  1.00  0.00    -0.260 A  
HETATM    7  C   UNL     1     -11.717  12.340  68.841  1.00  0.00    -0.380 A  
HETATM    8  C   UNL     1     -11.556  11.023  69.278  1.00  0.00    -0.314 A  
HETATM    9  C   UNL     1     -10.320  10.353  69.197  1.00  0.00    -0.241 A  
HETATM   10  O   UNL     1     -12.652  10.390  69.799  1.00  0.00    -0.561 OA 
HETATM   11  H   UNL     1      -7.312  11.008  67.948  1.00  0.00     0.000 HD 
HETATM   12  H   UNL     1     -12.543   9.494  70.096  1.00  0.00     0.000 HD 
HETATM   13  C   UNL     1      -9.270  11.054  68.574  1.00  0.00    -0.177 A  
HETATM   14  O   UNL     1      -8.020  10.535  68.368  1.00  0.00    -0.107 OA 
HETATM   15  C   UNL     1      -9.432  12.363  68.107  1.00  0.00    -0.214 A  
BRANCH   9  16
HETATM   16  C   UNL     1     -10.158   8.908  69.695  1.00  0.00    -0.202 C  
HETATM   17  C   UNL     1      -9.386   8.907  70.989  1.00  0.00    -0.313 C  
HETATM   18  C   UNL     1      -8.173   8.364  71.151  1.00  0.00    -0.154 C  
HETATM   19  C   UNL     1      -7.453   7.666  70.039  1.00  0.00    -0.082 C  
HETATM   20  C   UNL     1      -7.422   8.487  72.448  1.00  0.00    -0.085 C  
HETATM   21  C   UNL     1      -8.255   7.301  68.786  1.00  0.00    -0.129 C  
HETATM   22  C   UNL     1      -9.660   7.917  68.588  1.00  0.00    -0.155 C  
BRANCH  22  23
HETATM   23  C   UNL     1     -10.714   6.851  68.241  1.00  0.00    -0.265 C  
HETATM   24  C   UNL     1     -11.024   6.577  66.962  1.00  0.00    -0.466 C  
HETATM   25  C   UNL     1     -11.389   6.095  69.351  1.00  0.00    -0.401 C  
ENDBRANCH  22  23
ENDBRANCH   9  16
ENDBRANCH   5   6
ENDBRANCH   4   5
ENDBRANCH   3   4
ENDBRANCH   2   3
TORSDOF 6
ENDMDL
MODEL       83
REMARK 921   NORMALIZED FREE ENERGY PREDICTED BY IDOCK:   -4.65 KCAL/MOL
REMARK 922        TOTAL FREE ENERGY PREDICTED BY IDOCK:   -7.22 KCAL/MOL
REMARK 923 INTER-LIGAND FREE ENERGY PREDICTED BY IDOCK:   -6.80 KCAL/MOL
REMARK 924 INTRA-LIGAND FREE ENERGY PREDICTED BY IDOCK:   -0.42 KCAL/MOL
REMARK 927      BINDING AFFINITY PREDICTED BY RF-SCORE:    0.00 PKD
ROOT
HETATM    1  C   UNL     1     -13.797  15.406  72.046  1.00  0.00    -0.625 C  
HETATM    2  C   UNL     1     -13.106  14.930  70.780  1.00  0.00    -0.398 C  
ENDROOT
BRANCH   2   3
HETATM    3  C   UNL     1     -11.873  15.779  70.469  1.00  0.00    -0.402 C  
BRANCH   3   4
HETATM    4  C   UNL     1     -10.922  15.037  69.538  1.00  0.00    -0.281 C  
BRANCH   4   5
HETATM    5  C   UNL     1     -11.672  14.047  68.646  1.00  0.00    -0.389 C  
BRANCH   5   6
HETATM    6  C   UNL     1     -11.127  12.650  68.821  1.00  0.00    -0.307 A  
HETATM    7  C   UNL     1     -11.905  11.663  69.428  1.00  0.00    -0.408 A  
HETATM    8  C   UNL     1     -11.381  10.389  69.653  1.00  0.00    -0.272 A  
HETATM    9  C   UNL     1     -10.054  10.055  69.318  1.00  0.00    -0.226 A  
HETATM   10  O   UNL     1     -12.206   9.455  70.219  1.00  0.00    -0.469 OA 
HETATM   11  H   UNL     1      -7.514  11.555  67.789  1.00  0.00     0.000 HD 
HETATM   12  H   UNL     1     -11.850   8.588  70.372  1.00  0.00     0.000 HD 
HETATM   13  C   UNL     1      -9.305  11.053  68.667  1.00  0.00    -0.194 A  
HETATM   14  O   UNL     1      -8.019  10.881  68.228  1.00  0.00    -0.110 OA 
HETATM   15  C   UNL     1      -9.834  12.323  68.411  1.00  0.00    -0.199 A  
BRANCH   9  16
HETATM   16  C   UNL     1      -9.491   8.650  69.584  1.00  0.00    -0.162 C  
HETATM   17  C   UNL     1      -9.693   7.789  68.365  1.00  0.00    -0.167 C  
HETATM   18  C   UNL     1     -10.482   6.708  68.319  1.00  0.00    -0.249 C  
HETATM   19  C   UNL     1     -11.244   6.221  69.512  1.00  0.00    -0.500 C  
HETATM   20  C   UNL     1     -10.711   5.955  67.038  1.00  0.00    -0.396 C  
HETATM   21  C   UNL     1     -10.868   6.793  70.883  1.00  0.00    -0.289 C  
HETATM   22  C   UNL     1      -9.954   8.038  70.951  1.00  0.00    -0.207 C  
BRANCH  22  23
HETATM   23  C   UNL     1      -8.782   7.842  71.929  1.00  0.00    -0.150 C  
HETATM   24  C   UNL     1      -7.574   7.448  71.490  1.00  0.00    -0.085 C  
HETATM   25  C   UNL     1      -8.991   8.115  73.392  1.00  0.00    -0.313 C  
ENDBRANCH  22  23
ENDBRANCH   9  16
ENDBRANCH   5   6
ENDBRANCH   4   5
ENDBRANCH   3   4
ENDBRANCH   2   3
TORSDOF 6
ENDMDL
MODEL       84
REMARK 921   NORMALIZED FREE ENERGY PREDICTED BY IDOCK:   -4.64 KCAL/MOL
REMARK 922        TOTAL FREE ENERGY PREDICTED BY IDOCK:   -7.20 KCAL/MOL
REMARK 923 INTER-LIGAND FREE ENERGY PREDICTED BY IDOCK:   -6.69 KCAL/MOL
REMARK 924 INTRA-LIGAND FREE ENERGY PREDICTED BY IDOCK:   -0.51 KCAL/MOL
REMARK 927      BINDING AFFINITY PREDICTED BY RF-SCORE:    0.00 PKD
ROOT
HETATM    1  C   UNL     1      -9.692   4.312  69.773  1.00  0.00    -0.290 C  
HETATM    2  C   UNL     1      -9.192   4.192  68.344  1.00  0.00    -0.198 C  
ENDROOT
BRANCH   2   3
HETATM    3  C   UNL     1      -8.708   5.542  67.812  1.00  0.00    -0.106 C  
BRANCH   3   4
HETATM    4  C   UNL     1      -9.600   6.673  68.308  1.00  0.00    -0.125 C  
BRANCH   4   5
HETATM    5  C   UNL     1      -8.786   7.925  68.637  1.00  0.00    -0.128 C  
BRANCH   5   6
HETATM    6  C   UNL     1      -9.525   9.172  68.216  1.00  0.00    -0.152 A  
HETATM    7  C   UNL     1      -8.991  10.007  67.235  1.00  0.00    -0.144 A  
HETATM    8  C   UNL     1      -9.638  11.196  66.890  1.00  0.00    -0.186 A  
HETATM    9  C   UNL     1     -10.819  11.619  67.532  1.00  0.00    -0.287 A  
HETATM   10  O   UNL     1      -9.083  11.955  65.896  1.00  0.00    -0.352 OA 
HETATM   11  H   UNL     1     -12.893  10.371  69.808  1.00  0.00     0.000 HD 
HETATM   12  H   UNL     1      -9.523  12.764  65.662  1.00  0.00     0.000 HD 
HETATM   13  C   UNL     1     -11.361  10.736  68.485  1.00  0.00    -0.295 A  
HETATM   14  O   UNL     1     -12.528  10.966  69.165  1.00  0.00    -0.409 OA 
HETATM   15  C   UNL     1     -10.734   9.529  68.813  1.00  0.00    -0.218 A  
BRANCH   9  16
HETATM   16  C   UNL     1     -11.511  12.936  67.148  1.00  0.00    -0.388 C  
HETATM   17  C   UNL     1     -12.097  12.812  65.765  1.00  0.00    -0.505 C  
HETATM   18  C   UNL     1     -11.695  13.518  64.702  1.00  0.00    -0.412 C  
HETATM   19  C   UNL     1     -10.610  14.547  64.787  1.00  0.00    -0.401 C  
HETATM   20  C   UNL     1     -12.261  13.269  63.332  1.00  0.00    -0.476 C  
HETATM   21  C   UNL     1     -10.171  15.010  66.180  1.00  0.00    -0.311 C  
HETATM   22  C   UNL     1     -10.632  14.206  67.417  1.00  0.00    -0.279 C  
BRANCH  22  23
HETATM   23  C   UNL     1     -11.236  15.114  68.504  1.00  0.00    -0.301 C  
HETATM   24  C   UNL     1     -11.147  16.452  68.413  1.00  0.00    -0.351 C  
HETATM   25  C   UNL     1     -11.950  14.490  69.670  1.00  0.00    -0.375 C  
ENDBRANCH  22  23
ENDBRANCH   9  16
ENDBRANCH   5   6
ENDBRANCH   4   5
ENDBRANCH   3   4
ENDBRANCH   2   3
TORSDOF 6
ENDMDL
MODEL       85
REMARK 921   NORMALIZED FREE ENERGY PREDICTED BY IDOCK:   -4.63 KCAL/MOL
REMARK 922        TOTAL FREE ENERGY PREDICTED BY IDOCK:   -7.19 KCAL/MOL
REMARK 923 INTER-LIGAND FREE ENERGY PREDICTED BY IDOCK:   -5.87 KCAL/MOL
REMARK 924 INTRA-LIGAND FREE ENERGY PREDICTED BY IDOCK:   -1.32 KCAL/MOL
REMARK 927      BINDING AFFINITY PREDICTED BY RF-SCORE:    0.00 PKD
ROOT
HETATM    1  C   UNL     1      -8.232  13.728  67.819  1.00  0.00    -0.174 C  
HETATM    2  C   UNL     1      -9.459  14.530  68.219  1.00  0.00    -0.207 C  
ENDROOT
BRANCH   2   3
HETATM    3  C   UNL     1     -10.247  14.986  66.991  1.00  0.00    -0.257 C  
BRANCH   3   4
HETATM    4  C   UNL     1     -11.732  14.690  67.157  1.00  0.00    -0.392 C  
BRANCH   4   5
HETATM    5  C   UNL     1     -12.200  13.612  66.179  1.00  0.00    -0.490 C  
BRANCH   5   6
HETATM    6  C   UNL     1     -11.568  12.281  66.505  1.00  0.00    -0.440 A  
HETATM    7  C   UNL     1     -11.839  11.652  67.720  1.00  0.00    -0.247 A  
HETATM    8  C   UNL     1     -11.204  10.454  68.054  1.00  0.00    -0.272 A  
HETATM    9  C   UNL     1     -10.249   9.854  67.212  1.00  0.00    -0.277 A  
HETATM   10  O   UNL     1     -11.540   9.869  69.245  1.00  0.00    -0.451 OA 
HETATM   11  H   UNL     1      -9.020  10.432  64.179  1.00  0.00     0.000 HD 
HETATM   12  H   UNL     1     -11.108   9.054  69.472  1.00  0.00     0.000 HD 
HETATM   13  C   UNL     1     -10.026  10.483  65.972  1.00  0.00    -0.237 A  
HETATM   14  O   UNL     1      -9.170  10.007  65.015  1.00  0.00    -0.188 OA 
HETATM   15  C   UNL     1     -10.681  11.667  65.618  1.00  0.00    -0.330 A  
BRANCH   9  16
HETATM   16  C   UNL     1      -9.550   8.541  67.601  1.00  0.00    -0.187 C  
HETATM   17  C   UNL     1      -8.134   8.833  68.026  1.00  0.00    -0.107 C  
HETATM   18  C   UNL     1      -7.042   8.413  67.376  1.00  0.00    -0.080 C  
HETATM   19  C   UNL     1      -7.120   7.570  66.141  1.00  0.00    -0.070 C  
HETATM   20  C   UNL     1      -5.662   8.827  67.806  1.00  0.00    -0.039 C  
HETATM   21  C   UNL     1      -8.467   6.925  65.799  1.00  0.00    -0.150 C  
HETATM   22  C   UNL     1      -9.736   7.397  66.546  1.00  0.00    -0.225 C  
BRANCH  22  23
HETATM   23  C   UNL     1     -10.551   6.216  67.104  1.00  0.00    -0.374 C  
HETATM   24  C   UNL     1     -10.725   5.096  66.382  1.00  0.00    -0.275 C  
HETATM   25  C   UNL     1     -11.142   6.315  68.482  1.00  0.00    -0.397 C  
ENDBRANCH  22  23
ENDBRANCH   9  16
ENDBRANCH   5   6
ENDBRANCH   4   5
ENDBRANCH   3   4
ENDBRANCH   2   3
TORSDOF 6
ENDMDL
MODEL       86
REMARK 921   NORMALIZED FREE ENERGY PREDICTED BY IDOCK:   -4.62 KCAL/MOL
REMARK 922        TOTAL FREE ENERGY PREDICTED BY IDOCK:   -7.18 KCAL/MOL
REMARK 923 INTER-LIGAND FREE ENERGY PREDICTED BY IDOCK:   -6.54 KCAL/MOL
REMARK 924 INTRA-LIGAND FREE ENERGY PREDICTED BY IDOCK:   -0.64 KCAL/MOL
REMARK 927      BINDING AFFINITY PREDICTED BY RF-SCORE:    0.00 PKD
ROOT
HETATM    1  C   UNL     1      -7.821   5.242  64.435  1.00  0.00    -0.100 C  
HETATM    2  C   UNL     1      -8.132   4.671  65.808  1.00  0.00    -0.103 C  
ENDROOT
BRANCH   2   3
HETATM    3  C   UNL     1      -9.618   4.339  65.946  1.00  0.00    -0.191 C  
BRANCH   3   4
HETATM    4  C   UNL     1     -10.424   5.584  66.296  1.00  0.00    -0.230 C  
BRANCH   4   5
HETATM    5  C   UNL     1      -9.732   6.412  67.379  1.00  0.00    -0.141 C  
BRANCH   5   6
HETATM    6  C   UNL     1      -9.797   7.884  67.051  1.00  0.00    -0.293 A  
HETATM    7  C   UNL     1     -10.753   8.698  67.658  1.00  0.00    -0.194 A  
HETATM    8  C   UNL     1     -10.861  10.045  67.308  1.00  0.00    -0.217 A  
HETATM    9  C   UNL     1     -10.048  10.628  66.316  1.00  0.00    -0.291 A  
HETATM   10  O   UNL     1     -11.796  10.798  67.965  1.00  0.00    -0.725 OA 
HETATM   11  H   UNL     1      -7.491   9.655  64.431  1.00  0.00     0.000 HD 
HETATM   12  H   UNL     1     -11.868  11.715  67.727  1.00  0.00     0.000 HD 
HETATM   13  C   UNL     1      -9.062   9.797  65.751  1.00  0.00    -0.177 A  
HETATM   14  O   UNL     1      -8.156  10.215  64.812  1.00  0.00    -0.146 OA 
HETATM   15  C   UNL     1      -8.928   8.455  66.119  1.00  0.00    -0.218 A  
BRANCH   9  16
HETATM   16  C   UNL     1     -10.189  12.110  65.934  1.00  0.00    -0.272 C  
HETATM   17  C   UNL     1      -9.319  12.945  66.838  1.00  0.00    -0.240 C  
HETATM   18  C   UNL     1      -9.778  13.844  67.717  1.00  0.00    -0.225 C  
HETATM   19  C   UNL     1     -11.239  14.133  67.879  1.00  0.00    -0.299 C  
HETATM   20  C   UNL     1      -8.854  14.570  68.655  1.00  0.00    -0.180 C  
HETATM   21  C   UNL     1     -12.195  13.612  66.802  1.00  0.00    -0.416 C  
HETATM   22  C   UNL     1     -11.677  12.577  65.776  1.00  0.00    -0.478 C  
BRANCH  22  23
HETATM   23  C   UNL     1     -12.011  12.980  64.329  1.00  0.00    -0.466 C  
HETATM   24  C   UNL     1     -12.259  12.049  63.393  1.00  0.00    -0.627 C  
HETATM   25  C   UNL     1     -12.079  14.438  63.968  1.00  0.00    -0.312 C  
ENDBRANCH  22  23
ENDBRANCH   9  16
ENDBRANCH   5   6
ENDBRANCH   4   5
ENDBRANCH   3   4
ENDBRANCH   2   3
TORSDOF 6
ENDMDL
MODEL       87
REMARK 921   NORMALIZED FREE ENERGY PREDICTED BY IDOCK:   -4.60 KCAL/MOL
REMARK 922        TOTAL FREE ENERGY PREDICTED BY IDOCK:   -7.15 KCAL/MOL
REMARK 923 INTER-LIGAND FREE ENERGY PREDICTED BY IDOCK:   -6.71 KCAL/MOL
REMARK 924 INTRA-LIGAND FREE ENERGY PREDICTED BY IDOCK:   -0.44 KCAL/MOL
REMARK 927      BINDING AFFINITY PREDICTED BY RF-SCORE:    0.00 PKD
ROOT
HETATM    1  C   UNL     1      -8.262   4.231  69.704  1.00  0.00    -0.066 C  
HETATM    2  C   UNL     1      -8.631   5.544  70.372  1.00  0.00    -0.131 C  
ENDROOT
BRANCH   2   3
HETATM    3  C   UNL     1      -7.720   5.833  71.566  1.00  0.00    -0.107 C  
BRANCH   3   4
HETATM    4  C   UNL     1      -8.114   7.138  72.247  1.00  0.00    -0.103 C  
BRANCH   4   5
HETATM    5  C   UNL     1      -9.606   7.168  72.578  1.00  0.00    -0.172 C  
BRANCH   5   6
HETATM    6  C   UNL     1     -10.295   8.295  71.846  1.00  0.00    -0.324 A  
HETATM    7  C   UNL     1      -9.596   9.055  70.908  1.00  0.00    -0.328 A  
HETATM    8  C   UNL     1     -10.209  10.140  70.279  1.00  0.00    -0.120 A  
HETATM    9  C   UNL     1     -11.526  10.535  70.583  1.00  0.00    -0.418 A  
HETATM   10  O   UNL     1      -9.482  10.824  69.343  1.00  0.00    -0.384 OA 
HETATM   11  H   UNL     1     -13.998   9.390  72.486  1.00  0.00     0.000 HD 
HETATM   12  H   UNL     1      -9.899  11.562  68.914  1.00  0.00     0.000 HD 
HETATM   13  C   UNL     1     -12.225   9.726  71.499  1.00  0.00    -0.406 A  
HETATM   14  O   UNL     1     -13.527   9.936  71.868  1.00  0.00    -0.397 OA 
HETATM   15  C   UNL     1     -11.627   8.619  72.111  1.00  0.00    -0.440 A  
BRANCH   9  16
HETATM   16  C   UNL     1     -12.181  11.741  69.890  1.00  0.00    -0.293 C  
HETATM   17  C   UNL     1     -12.147  11.539  68.397  1.00  0.00    -0.119 C  
HETATM   18  C   UNL     1     -11.457  12.303  67.541  1.00  0.00    -0.414 C  
HETATM   19  C   UNL     1     -10.645  13.478  67.992  1.00  0.00    -0.247 C  
HETATM   20  C   UNL     1     -11.393  11.981  66.074  1.00  0.00    -0.398 C  
HETATM   21  C   UNL     1     -10.862  13.992  69.418  1.00  0.00    -0.141 C  
HETATM   22  C   UNL     1     -11.663  13.123  70.416  1.00  0.00    -0.141 C  
BRANCH  22  23
HETATM   23  C   UNL     1     -12.765  13.927  71.128  1.00  0.00    -0.441 C  
HETATM   24  C   UNL     1     -13.004  15.209  70.802  1.00  0.00    -0.468 C  
HETATM   25  C   UNL     1     -13.595  13.259  72.187  1.00  0.00    -0.655 C  
ENDBRANCH  22  23
ENDBRANCH   9  16
ENDBRANCH   5   6
ENDBRANCH   4   5
ENDBRANCH   3   4
ENDBRANCH   2   3
TORSDOF 6
ENDMDL
MODEL       88
REMARK 921   NORMALIZED FREE ENERGY PREDICTED BY IDOCK:   -4.60 KCAL/MOL
REMARK 922        TOTAL FREE ENERGY PREDICTED BY IDOCK:   -7.15 KCAL/MOL
REMARK 923 INTER-LIGAND FREE ENERGY PREDICTED BY IDOCK:   -6.32 KCAL/MOL
REMARK 924 INTRA-LIGAND FREE ENERGY PREDICTED BY IDOCK:   -0.82 KCAL/MOL
REMARK 927      BINDING AFFINITY PREDICTED BY RF-SCORE:    0.00 PKD
ROOT
HETATM    1  C   UNL     1      -5.953  20.892  65.057  1.00  0.00    -0.291 C  
HETATM    2  C   UNL     1      -6.894  20.427  66.155  1.00  0.00    -0.277 C  
ENDROOT
BRANCH   2   3
HETATM    3  C   UNL     1      -6.225  19.388  67.055  1.00  0.00    -0.182 C  
BRANCH   3   4
HETATM    4  C   UNL     1      -6.793  19.445  68.468  1.00  0.00    -0.326 C  
BRANCH   4   5
HETATM    5  C   UNL     1      -6.524  18.149  69.232  1.00  0.00    -0.258 C  
BRANCH   5   6
HETATM    6  C   UNL     1      -7.281  16.997  68.616  1.00  0.00    -0.221 A  
HETATM    7  C   UNL     1      -6.596  15.875  68.150  1.00  0.00    -0.133 A  
HETATM    8  C   UNL     1      -7.285  14.837  67.519  1.00  0.00    -0.197 A  
HETATM    9  C   UNL     1      -8.675  14.889  67.294  1.00  0.00    -0.224 A  
HETATM   10  O   UNL     1      -6.561  13.749  67.115  1.00  0.00    -0.436 OA 
HETATM   11  H   UNL     1     -11.158  16.952  68.082  1.00  0.00     0.000 HD 
HETATM   12  H   UNL     1      -7.030  13.042  66.686  1.00  0.00     0.000 HD 
HETATM   13  C   UNL     1      -9.349  16.010  67.815  1.00  0.00    -0.211 A  
HETATM   14  O   UNL     1     -10.704  16.196  67.731  1.00  0.00    -0.311 OA 
HETATM   15  C   UNL     1      -8.669  17.039  68.475  1.00  0.00    -0.253 A  
BRANCH   9  16
HETATM   16  C   UNL     1      -9.415  13.743  66.587  1.00  0.00    -0.289 C  
HETATM   17  C   UNL     1     -10.214  14.297  65.436  1.00  0.00    -0.395 C  
HETATM   18  C   UNL     1     -11.550  14.281  65.359  1.00  0.00    -0.346 C  
HETATM   19  C   UNL     1     -12.407  13.676  66.429  1.00  0.00    -0.441 C  
HETATM   20  C   UNL     1     -12.282  14.942  64.224  1.00  0.00    -0.365 C  
HETATM   21  C   UNL     1     -11.725  12.789  67.474  1.00  0.00    -0.422 C  
HETATM   22  C   UNL     1     -10.182  12.793  67.570  1.00  0.00    -0.216 C  
BRANCH  22  23
HETATM   23  C   UNL     1      -9.599  11.368  67.577  1.00  0.00    -0.176 C  
HETATM   24  C   UNL     1      -9.728  10.575  68.654  1.00  0.00    -0.175 C  
HETATM   25  C   UNL     1      -8.896  10.855  66.352  1.00  0.00    -0.178 C  
ENDBRANCH  22  23
ENDBRANCH   9  16
ENDBRANCH   5   6
ENDBRANCH   4   5
ENDBRANCH   3   4
ENDBRANCH   2   3
TORSDOF 6
ENDMDL
MODEL       89
REMARK 921   NORMALIZED FREE ENERGY PREDICTED BY IDOCK:   -4.60 KCAL/MOL
REMARK 922        TOTAL FREE ENERGY PREDICTED BY IDOCK:   -7.14 KCAL/MOL
REMARK 923 INTER-LIGAND FREE ENERGY PREDICTED BY IDOCK:   -6.05 KCAL/MOL
REMARK 924 INTRA-LIGAND FREE ENERGY PREDICTED BY IDOCK:   -1.09 KCAL/MOL
REMARK 927      BINDING AFFINITY PREDICTED BY RF-SCORE:    0.00 PKD
ROOT
HETATM    1  C   UNL     1     -10.552  19.250  67.454  1.00  0.00    -0.594 C  
HETATM    2  C   UNL     1      -9.491  20.327  67.295  1.00  0.00    -0.557 C  
ENDROOT
BRANCH   2   3
HETATM    3  C   UNL     1      -8.304  20.075  68.225  1.00  0.00    -0.177 C  
BRANCH   3   4
HETATM    4  C   UNL     1      -7.437  18.935  67.705  1.00  0.00    -0.245 C  
BRANCH   4   5
HETATM    5  C   UNL     1      -7.078  17.952  68.819  1.00  0.00    -0.268 C  
BRANCH   5   6
HETATM    6  C   UNL     1      -7.566  16.562  68.485  1.00  0.00    -0.200 A  
HETATM    7  C   UNL     1      -6.698  15.630  67.918  1.00  0.00    -0.167 A  
HETATM    8  C   UNL     1      -7.161  14.367  67.546  1.00  0.00    -0.180 A  
HETATM    9  C   UNL     1      -8.512  13.993  67.688  1.00  0.00    -0.193 A  
HETATM   10  O   UNL     1      -6.252  13.485  67.027  1.00  0.00    -0.399 OA 
HETATM   11  H   UNL     1     -11.255  15.352  68.981  1.00  0.00     0.000 HD 
HETATM   12  H   UNL     1      -6.568  12.625  66.774  1.00  0.00     0.000 HD 
HETATM   13  C   UNL     1      -9.358  14.935  68.304  1.00  0.00    -0.195 A  
HETATM   14  O   UNL     1     -10.685  14.717  68.565  1.00  0.00    -0.234 OA 
HETATM   15  C   UNL     1      -8.893  16.192  68.707  1.00  0.00    -0.233 A  
BRANCH   9  16
HETATM   16  C   UNL     1      -9.008  12.602  67.262  1.00  0.00    -0.194 C  
HETATM   17  C   UNL     1     -10.042  12.750  66.175  1.00  0.00    -0.274 C  
HETATM   18  C   UNL     1     -11.330  12.408  66.299  1.00  0.00    -0.388 C  
HETATM   19  C   UNL     1     -11.882  11.809  67.555  1.00  0.00    -0.227 C  
HETATM   20  C   UNL     1     -12.324  12.675  65.203  1.00  0.00    -0.547 C  
HETATM   21  C   UNL     1     -10.887  11.297  68.601  1.00  0.00    -0.246 C  
HETATM   22  C   UNL     1      -9.395  11.679  68.467  1.00  0.00    -0.169 C  
BRANCH  22  23
HETATM   23  C   UNL     1      -8.472  10.454  68.584  1.00  0.00    -0.129 C  
HETATM   24  C   UNL     1      -8.845   9.259  68.094  1.00  0.00    -0.129 C  
HETATM   25  C   UNL     1      -7.127  10.605  69.238  1.00  0.00    -0.107 C  
ENDBRANCH  22  23
ENDBRANCH   9  16
ENDBRANCH   5   6
ENDBRANCH   4   5
ENDBRANCH   3   4
ENDBRANCH   2   3
TORSDOF 6
ENDMDL
MODEL       90
REMARK 921   NORMALIZED FREE ENERGY PREDICTED BY IDOCK:   -4.56 KCAL/MOL
REMARK 922        TOTAL FREE ENERGY PREDICTED BY IDOCK:   -7.09 KCAL/MOL
REMARK 923 INTER-LIGAND FREE ENERGY PREDICTED BY IDOCK:   -6.74 KCAL/MOL
REMARK 924 INTRA-LIGAND FREE ENERGY PREDICTED BY IDOCK:   -0.35 KCAL/MOL
REMARK 927      BINDING AFFINITY PREDICTED BY RF-SCORE:    0.00 PKD
ROOT
HETATM    1  C   UNL     1      -9.451  16.186  65.835  1.00  0.00    -0.337 C  
HETATM    2  C   UNL     1     -10.733  15.489  65.414  1.00  0.00    -0.422 C  
ENDROOT
BRANCH   2   3
HETATM    3  C   UNL     1     -11.435  14.848  66.612  1.00  0.00    -0.297 C  
BRANCH   3   4
HETATM    4  C   UNL     1     -12.406  13.765  66.158  1.00  0.00    -0.496 C  
BRANCH   4   5
HETATM    5  C   UNL     1     -11.674  12.471  65.803  1.00  0.00    -0.478 C  
BRANCH   5   6
HETATM    6  C   UNL     1     -11.360  11.674  67.046  1.00  0.00    -0.373 A  
HETATM    7  C   UNL     1     -10.669  10.466  66.950  1.00  0.00    -0.272 A  
HETATM    8  C   UNL     1     -10.436   9.693  68.090  1.00  0.00    -0.222 A  
HETATM    9  C   UNL     1     -10.911  10.070  69.361  1.00  0.00    -0.280 A  
HETATM   10  O   UNL     1      -9.721   8.536  67.935  1.00  0.00    -0.152 OA 
HETATM   11  H   UNL     1     -12.486  12.696  70.652  1.00  0.00     0.000 HD 
HETATM   12  H   UNL     1      -9.563   8.010  68.711  1.00  0.00     0.000 HD 
HETATM   13  C   UNL     1     -11.566  11.315  69.438  1.00  0.00    -0.321 A  
HETATM   14  O   UNL     1     -12.045  11.856  70.601  1.00  0.00    -0.373 OA 
HETATM   15  C   UNL     1     -11.776  12.109  68.305  1.00  0.00    -0.401 A  
BRANCH   9  16
HETATM   16  C   UNL     1     -10.656   9.201  70.602  1.00  0.00    -0.305 C  
HETATM   17  C   UNL     1      -9.197   9.274  70.974  1.00  0.00    -0.273 C  
HETATM   18  C   UNL     1      -8.348   8.240  70.930  1.00  0.00    -0.139 C  
HETATM   19  C   UNL     1      -8.779   6.867  70.517  1.00  0.00    -0.150 C  
HETATM   20  C   UNL     1      -6.883   8.412  71.223  1.00  0.00    -0.065 C  
HETATM   21  C   UNL     1     -10.282   6.581  70.443  1.00  0.00    -0.227 C  
HETATM   22  C   UNL     1     -11.274   7.765  70.498  1.00  0.00    -0.267 C  
BRANCH  22  23
HETATM   23  C   UNL     1     -12.392   7.535  71.531  1.00  0.00    -0.367 C  
HETATM   24  C   UNL     1     -12.451   6.395  72.241  1.00  0.00    -0.107 C  
HETATM   25  C   UNL     1     -13.416   8.610  71.759  1.00  0.00    -0.418 C  
ENDBRANCH  22  23
ENDBRANCH   9  16
ENDBRANCH   5   6
ENDBRANCH   4   5
ENDBRANCH   3   4
ENDBRANCH   2   3
TORSDOF 6
ENDMDL
MODEL       91
REMARK 921   NORMALIZED FREE ENERGY PREDICTED BY IDOCK:   -4.54 KCAL/MOL
REMARK 922        TOTAL FREE ENERGY PREDICTED BY IDOCK:   -7.07 KCAL/MOL
REMARK 923 INTER-LIGAND FREE ENERGY PREDICTED BY IDOCK:   -6.62 KCAL/MOL
REMARK 924 INTRA-LIGAND FREE ENERGY PREDICTED BY IDOCK:   -0.44 KCAL/MOL
REMARK 927      BINDING AFFINITY PREDICTED BY RF-SCORE:    0.00 PKD
ROOT
HETATM    1  C   UNL     1     -12.522  15.791  74.208  1.00  0.00    -0.800 C  
HETATM    2  C   UNL     1     -12.867  15.640  72.736  1.00  0.00    -0.552 C  
ENDROOT
BRANCH   2   3
HETATM    3  C   UNL     1     -13.880  14.516  72.518  1.00  0.00    -0.555 C  
BRANCH   3   4
HETATM    4  C   UNL     1     -13.264  13.378  71.713  1.00  0.00    -0.495 C  
BRANCH   4   5
HETATM    5  C   UNL     1     -12.738  13.868  70.364  1.00  0.00    -0.286 C  
BRANCH   5   6
HETATM    6  C   UNL     1     -11.864  12.820  69.717  1.00  0.00    -0.380 A  
HETATM    7  C   UNL     1     -11.997  11.478  70.071  1.00  0.00    -0.435 A  
HETATM    8  C   UNL     1     -11.146  10.515  69.525  1.00  0.00    -0.268 A  
HETATM    9  C   UNL     1     -10.106  10.852  68.636  1.00  0.00    -0.200 A  
HETATM   10  O   UNL     1     -11.350   9.210  69.886  1.00  0.00    -0.406 OA 
HETATM   11  H   UNL     1      -9.049  13.610  67.115  1.00  0.00     0.000 HD 
HETATM   12  H   UNL     1     -10.771   8.555  69.514  1.00  0.00     0.000 HD 
HETATM   13  C   UNL     1     -10.022  12.206  68.260  1.00  0.00    -0.212 A  
HETATM   14  O   UNL     1      -9.105  12.697  67.369  1.00  0.00    -0.176 OA 
HETATM   15  C   UNL     1     -10.891  13.171  68.780  1.00  0.00    -0.278 A  
BRANCH   9  16
HETATM   16  C   UNL     1      -9.170   9.780  68.055  1.00  0.00    -0.131 C  
HETATM   17  C   UNL     1      -9.984   8.757  67.306  1.00  0.00    -0.281 C  
HETATM   18  C   UNL     1     -10.102   7.471  67.660  1.00  0.00    -0.243 C  
HETATM   19  C   UNL     1      -9.401   6.902  68.854  1.00  0.00    -0.134 C  
HETATM   20  C   UNL     1     -11.011   6.531  66.918  1.00  0.00    -0.408 C  
HETATM   21  C   UNL     1      -8.289   7.737  69.496  1.00  0.00    -0.129 C  
HETATM   22  C   UNL     1      -8.138   9.221  69.093  1.00  0.00    -0.106 C  
BRANCH  22  23
HETATM   23  C   UNL     1      -6.687   9.574  68.720  1.00  0.00    -0.052 C  
HETATM   24  C   UNL     1      -5.953   8.753  67.949  1.00  0.00    -0.050 C  
HETATM   25  C   UNL     1      -6.093  10.864  69.211  1.00  0.00    -0.047 C  
ENDBRANCH  22  23
ENDBRANCH   9  16
ENDBRANCH   5   6
ENDBRANCH   4   5
ENDBRANCH   3   4
ENDBRANCH   2   3
TORSDOF 6
ENDMDL
MODEL       92
REMARK 921   NORMALIZED FREE ENERGY PREDICTED BY IDOCK:   -4.51 KCAL/MOL
REMARK 922        TOTAL FREE ENERGY PREDICTED BY IDOCK:   -7.02 KCAL/MOL
REMARK 923 INTER-LIGAND FREE ENERGY PREDICTED BY IDOCK:   -7.03 KCAL/MOL
REMARK 924 INTRA-LIGAND FREE ENERGY PREDICTED BY IDOCK:    0.01 KCAL/MOL
REMARK 927      BINDING AFFINITY PREDICTED BY RF-SCORE:    0.00 PKD
ROOT
HETATM    1  C   UNL     1     -13.458  14.374  72.621  1.00  0.00    -0.605 C  
HETATM    2  C   UNL     1     -13.293  15.276  71.410  1.00  0.00    -0.573 C  
ENDROOT
BRANCH   2   3
HETATM    3  C   UNL     1     -11.817  15.565  71.131  1.00  0.00    -0.435 C  
BRANCH   3   4
HETATM    4  C   UNL     1     -11.431  15.118  69.727  1.00  0.00    -0.321 C  
BRANCH   4   5
HETATM    5  C   UNL     1     -12.306  13.960  69.248  1.00  0.00    -0.201 C  
BRANCH   5   6
HETATM    6  C   UNL     1     -11.692  12.632  69.623  1.00  0.00    -0.373 A  
HETATM    7  C   UNL     1     -10.559  12.169  68.954  1.00  0.00    -0.179 A  
HETATM    8  C   UNL     1     -10.028  10.912  69.251  1.00  0.00    -0.113 A  
HETATM    9  C   UNL     1     -10.621  10.053  70.196  1.00  0.00    -0.350 A  
HETATM   10  O   UNL     1      -8.895  10.529  68.586  1.00  0.00    -0.132 OA 
HETATM   11  H   UNL     1     -13.154  10.225  72.341  1.00  0.00     0.000 HD 
HETATM   12  H   UNL     1      -8.533   9.674  68.788  1.00  0.00     0.000 HD 
HETATM   13  C   UNL     1     -11.736  10.562  70.889  1.00  0.00    -0.335 A  
HETATM   14  O   UNL     1     -12.402   9.882  71.874  1.00  0.00    -0.380 OA 
HETATM   15  C   UNL     1     -12.256  11.832  70.618  1.00  0.00    -0.443 A  
BRANCH   9  16
HETATM   16  C   UNL     1     -10.030   8.667  70.502  1.00  0.00    -0.220 C  
HETATM   17  C   UNL     1     -10.003   7.844  69.240  1.00  0.00    -0.190 C  
HETATM   18  C   UNL     1     -10.717   6.730  69.043  1.00  0.00    -0.280 C  
HETATM   19  C   UNL     1     -11.622   6.162  70.093  1.00  0.00    -0.260 C  
HETATM   20  C   UNL     1     -10.713   6.015  67.720  1.00  0.00    -0.369 C  
HETATM   21  C   UNL     1     -11.486   6.699  71.521  1.00  0.00    -0.343 C  
HETATM   22  C   UNL     1     -10.658   7.983  71.764  1.00  0.00    -0.296 C  
BRANCH  22  23
HETATM   23  C   UNL     1      -9.637   7.806  72.901  1.00  0.00    -0.302 C  
HETATM   24  C   UNL     1      -9.831   6.892  73.867  1.00  0.00    -0.340 C  
HETATM   25  C   UNL     1      -8.398   8.656  72.916  1.00  0.00     0.007 C  
ENDBRANCH  22  23
ENDBRANCH   9  16
ENDBRANCH   5   6
ENDBRANCH   4   5
ENDBRANCH   3   4
ENDBRANCH   2   3
TORSDOF 6
ENDMDL
MODEL       93
REMARK 921   NORMALIZED FREE ENERGY PREDICTED BY IDOCK:   -4.48 KCAL/MOL
REMARK 922        TOTAL FREE ENERGY PREDICTED BY IDOCK:   -6.99 KCAL/MOL
REMARK 923 INTER-LIGAND FREE ENERGY PREDICTED BY IDOCK:   -7.55 KCAL/MOL
REMARK 924 INTRA-LIGAND FREE ENERGY PREDICTED BY IDOCK:    0.56 KCAL/MOL
REMARK 927      BINDING AFFINITY PREDICTED BY RF-SCORE:    0.00 PKD
ROOT
HETATM    1  C   UNL     1     -12.242  15.162  74.161  1.00  0.00    -0.686 C  
HETATM    2  C   UNL     1     -12.664  16.026  72.986  1.00  0.00    -0.593 C  
ENDROOT
BRANCH   2   3
HETATM    3  C   UNL     1     -14.155  15.863  72.686  1.00  0.00    -0.380 C  
BRANCH   3   4
HETATM    4  C   UNL     1     -14.370  14.946  71.487  1.00  0.00    -0.631 C  
BRANCH   4   5
HETATM    5  C   UNL     1     -13.190  15.007  70.517  1.00  0.00    -0.255 C  
BRANCH   5   6
HETATM    6  C   UNL     1     -12.630  13.627  70.268  1.00  0.00    -0.253 A  
HETATM    7  C   UNL     1     -12.868  12.597  71.178  1.00  0.00    -0.311 A  
HETATM    8  C   UNL     1     -12.296  11.338  70.986  1.00  0.00    -0.366 A  
HETATM    9  C   UNL     1     -11.438  11.063  69.904  1.00  0.00    -0.400 A  
HETATM   10  O   UNL     1     -12.596  10.360  71.896  1.00  0.00    -0.397 OA 
HETATM   11  H   UNL     1     -10.364  12.695  67.216  1.00  0.00     0.000 HD 
HETATM   12  H   UNL     1     -12.207   9.503  71.765  1.00  0.00     0.000 HD 
HETATM   13  C   UNL     1     -11.250  12.105  68.976  1.00  0.00    -0.260 A  
HETATM   14  O   UNL     1     -10.490  11.992  67.843  1.00  0.00    -0.193 OA 
HETATM   15  C   UNL     1     -11.844  13.360  69.146  1.00  0.00    -0.383 A  
BRANCH   9  16
HETATM   16  C   UNL     1     -10.807   9.674  69.715  1.00  0.00    -0.274 C  
HETATM   17  C   UNL     1     -11.319   8.741  70.782  1.00  0.00    -0.313 C  
HETATM   18  C   UNL     1     -10.562   8.190  71.738  1.00  0.00    -0.313 C  
HETATM   19  C   UNL     1      -9.088   8.435  71.834  1.00  0.00    -0.288 C  
HETATM   20  C   UNL     1     -11.163   7.346  72.828  1.00  0.00    -0.380 C  
HETATM   21  C   UNL     1      -8.391   9.079  70.632  1.00  0.00    -0.214 C  
HETATM   22  C   UNL     1      -9.253   9.714  69.516  1.00  0.00    -0.214 C  
BRANCH  22  23
HETATM   23  C   UNL     1      -8.831   9.234  68.116  1.00  0.00    -0.129 C  
HETATM   24  C   UNL     1      -9.670   8.514  67.351  1.00  0.00    -0.222 C  
HETATM   25  C   UNL     1      -7.469   9.595  67.594  1.00  0.00    -0.091 C  
ENDBRANCH  22  23
ENDBRANCH   9  16
ENDBRANCH   5   6
ENDBRANCH   4   5
ENDBRANCH   3   4
ENDBRANCH   2   3
TORSDOF 6
ENDMDL
MODEL       94
REMARK 921   NORMALIZED FREE ENERGY PREDICTED BY IDOCK:   -4.48 KCAL/MOL
REMARK 922        TOTAL FREE ENERGY PREDICTED BY IDOCK:   -6.98 KCAL/MOL
REMARK 923 INTER-LIGAND FREE ENERGY PREDICTED BY IDOCK:   -6.25 KCAL/MOL
REMARK 924 INTRA-LIGAND FREE ENERGY PREDICTED BY IDOCK:   -0.73 KCAL/MOL
REMARK 927      BINDING AFFINITY PREDICTED BY RF-SCORE:    0.00 PKD
ROOT
HETATM    1  C   UNL     1     -11.485  14.961  66.416  1.00  0.00    -0.280 C  
HETATM    2  C   UNL     1     -11.335  14.551  67.871  1.00  0.00    -0.329 C  
ENDROOT
BRANCH   2   3
HETATM    3  C   UNL     1     -11.242  13.031  68.011  1.00  0.00    -0.310 C  
BRANCH   3   4
HETATM    4  C   UNL     1     -11.447  12.606  69.460  1.00  0.00    -0.294 C  
BRANCH   4   5
HETATM    5  C   UNL     1     -12.350  11.376  69.560  1.00  0.00    -0.211 C  
BRANCH   5   6
HETATM    6  C   UNL     1     -11.684  10.286  70.365  1.00  0.00    -0.404 A  
HETATM    7  C   UNL     1     -12.437   9.492  71.230  1.00  0.00    -0.432 A  
HETATM    8  C   UNL     1     -11.815   8.528  72.026  1.00  0.00    -0.362 A  
HETATM    9  C   UNL     1     -10.419   8.340  72.021  1.00  0.00    -0.350 A  
HETATM   10  O   UNL     1     -12.612   7.757  72.828  1.00  0.00    -0.541 OA 
HETATM   11  H   UNL     1      -7.839   9.558  70.317  1.00  0.00     0.000 HD 
HETATM   12  H   UNL     1     -12.189   7.101  73.369  1.00  0.00     0.000 HD 
HETATM   13  C   UNL     1      -9.688   9.122  71.106  1.00  0.00    -0.290 A  
HETATM   14  O   UNL     1      -8.332   9.030  70.934  1.00  0.00    -0.167 OA 
HETATM   15  C   UNL     1     -10.308  10.068  70.284  1.00  0.00    -0.301 A  
BRANCH   9  16
HETATM   16  C   UNL     1      -9.750   7.282  72.913  1.00  0.00    -0.212 C  
HETATM   17  C   UNL     1      -8.718   7.944  73.788  1.00  0.00    -0.331 C  
HETATM   18  C   UNL     1      -7.401   7.714  73.718  1.00  0.00    -0.139 C  
HETATM   19  C   UNL     1      -6.808   6.735  72.753  1.00  0.00    -0.067 C  
HETATM   20  C   UNL     1      -6.422   8.486  74.559  1.00  0.00    -0.165 C  
HETATM   21  C   UNL     1      -7.758   5.758  72.052  1.00  0.00    -0.102 C  
HETATM   22  C   UNL     1      -9.282   6.008  72.129  1.00  0.00    -0.148 C  
BRANCH  22  23
HETATM   23  C   UNL     1     -10.053   4.745  72.552  1.00  0.00    -0.234 C  
HETATM   24  C   UNL     1     -10.850   4.754  73.634  1.00  0.00    -0.377 C  
HETATM   25  C   UNL     1      -9.926   3.494  71.729  1.00  0.00    -0.202 C  
ENDBRANCH  22  23
ENDBRANCH   9  16
ENDBRANCH   5   6
ENDBRANCH   4   5
ENDBRANCH   3   4
ENDBRANCH   2   3
TORSDOF 6
ENDMDL
MODEL       95
REMARK 921   NORMALIZED FREE ENERGY PREDICTED BY IDOCK:   -4.48 KCAL/MOL
REMARK 922        TOTAL FREE ENERGY PREDICTED BY IDOCK:   -6.98 KCAL/MOL
REMARK 923 INTER-LIGAND FREE ENERGY PREDICTED BY IDOCK:   -6.60 KCAL/MOL
REMARK 924 INTRA-LIGAND FREE ENERGY PREDICTED BY IDOCK:   -0.39 KCAL/MOL
REMARK 927      BINDING AFFINITY PREDICTED BY RF-SCORE:    0.00 PKD
ROOT
HETATM    1  C   UNL     1     -11.862  14.384  66.290  1.00  0.00    -0.391 C  
HETATM    2  C   UNL     1     -11.973  12.885  66.073  1.00  0.00    -0.505 C  
ENDROOT
BRANCH   2   3
HETATM    3  C   UNL     1     -11.657  12.509  64.625  1.00  0.00    -0.396 C  
BRANCH   3   4
HETATM    4  C   UNL     1     -10.780  11.264  64.565  1.00  0.00    -0.390 C  
BRANCH   4   5
HETATM    5  C   UNL     1      -9.669  11.311  65.613  1.00  0.00    -0.267 C  
BRANCH   5   6
HETATM    6  C   UNL     1      -9.930  10.315  66.717  1.00  0.00    -0.261 A  
HETATM    7  C   UNL     1      -9.973  10.735  68.047  1.00  0.00    -0.183 A  
HETATM    8  C   UNL     1     -10.147   9.807  69.076  1.00  0.00    -0.187 A  
HETATM    9  C   UNL     1     -10.248   8.424  68.828  1.00  0.00    -0.223 A  
HETATM   10  O   UNL     1     -10.216  10.286  70.356  1.00  0.00    -0.417 OA 
HETATM   11  H   UNL     1     -10.385   6.471  66.143  1.00  0.00     0.000 HD 
HETATM   12  H   UNL     1     -10.335   9.654  71.056  1.00  0.00     0.000 HD 
HETATM   13  C   UNL     1     -10.247   8.031  67.476  1.00  0.00    -0.245 A  
HETATM   14  O   UNL     1     -10.386   6.735  67.055  1.00  0.00    -0.212 OA 
HETATM   15  C   UNL     1     -10.103   8.959  66.438  1.00  0.00    -0.333 A  
BRANCH   9  16
HETATM   16  C   UNL     1     -10.427   7.416  69.974  1.00  0.00    -0.233 C  
HETATM   17  C   UNL     1     -11.896   7.220  70.245  1.00  0.00    -0.109 C  
HETATM   18  C   UNL     1     -12.513   7.568  71.380  1.00  0.00    -0.382 C  
HETATM   19  C   UNL     1     -11.782   8.182  72.534  1.00  0.00    -0.457 C  
HETATM   20  C   UNL     1     -14.002   7.431  71.541  1.00  0.00    -0.517 C  
HETATM   21  C   UNL     1     -10.252   8.124  72.523  1.00  0.00    -0.383 C  
HETATM   22  C   UNL     1      -9.526   7.718  71.220  1.00  0.00    -0.173 C  
BRANCH  22  23
HETATM   23  C   UNL     1      -8.476   6.619  71.461  1.00  0.00    -0.120 C  
HETATM   24  C   UNL     1      -7.209   6.769  71.035  1.00  0.00    -0.077 C  
HETATM   25  C   UNL     1      -8.872   5.372  72.200  1.00  0.00    -0.133 C  
ENDBRANCH  22  23
ENDBRANCH   9  16
ENDBRANCH   5   6
ENDBRANCH   4   5
ENDBRANCH   3   4
ENDBRANCH   2   3
TORSDOF 6
ENDMDL
MODEL       96
REMARK 921   NORMALIZED FREE ENERGY PREDICTED BY IDOCK:   -4.47 KCAL/MOL
REMARK 922        TOTAL FREE ENERGY PREDICTED BY IDOCK:   -6.96 KCAL/MOL
REMARK 923 INTER-LIGAND FREE ENERGY PREDICTED BY IDOCK:   -6.09 KCAL/MOL
REMARK 924 INTRA-LIGAND FREE ENERGY PREDICTED BY IDOCK:   -0.87 KCAL/MOL
REMARK 927      BINDING AFFINITY PREDICTED BY RF-SCORE:    0.00 PKD
ROOT
HETATM    1  C   UNL     1      -8.011   9.197  70.887  1.00  0.00    -0.192 C  
HETATM    2  C   UNL     1      -8.783   8.028  70.301  1.00  0.00    -0.134 C  
ENDROOT
BRANCH   2   3
HETATM    3  C   UNL     1      -8.024   7.392  69.135  1.00  0.00    -0.118 C  
BRANCH   3   4
HETATM    4  C   UNL     1      -8.793   7.558  67.830  1.00  0.00    -0.126 C  
BRANCH   4   5
HETATM    5  C   UNL     1      -8.199   8.672  66.968  1.00  0.00    -0.106 C  
BRANCH   5   6
HETATM    6  C   UNL     1      -9.005   9.941  67.102  1.00  0.00    -0.150 A  
HETATM    7  C   UNL     1      -8.447  11.169  66.746  1.00  0.00    -0.153 A  
HETATM    8  C   UNL     1      -9.165  12.352  66.931  1.00  0.00    -0.209 A  
HETATM    9  C   UNL     1     -10.449  12.366  67.510  1.00  0.00    -0.229 A  
HETATM   10  O   UNL     1      -8.576  13.521  66.530  1.00  0.00    -0.438 OA 
HETATM   11  H   UNL     1     -12.640  10.092  68.545  1.00  0.00     0.000 HD 
HETATM   12  H   UNL     1      -9.065  14.326  66.655  1.00  0.00     0.000 HD 
HETATM   13  C   UNL     1     -11.008  11.111  67.818  1.00  0.00    -0.262 A  
HETATM   14  O   UNL     1     -12.263  10.939  68.338  1.00  0.00    -0.540 OA 
HETATM   15  C   UNL     1     -10.306   9.919  67.607  1.00  0.00    -0.275 A  
BRANCH   9  16
HETATM   16  C   UNL     1     -11.221  13.679  67.717  1.00  0.00    -0.310 C  
HETATM   17  C   UNL     1     -11.602  14.254  66.377  1.00  0.00    -0.381 C  
HETATM   18  C   UNL     1     -11.140  15.411  65.887  1.00  0.00    -0.247 C  
HETATM   19  C   UNL     1     -10.191  16.283  66.649  1.00  0.00    -0.287 C  
HETATM   20  C   UNL     1     -11.490  15.873  64.499  1.00  0.00    -0.287 C  
HETATM   21  C   UNL     1      -9.992  15.991  68.140  1.00  0.00    -0.228 C  
HETATM   22  C   UNL     1     -10.525  14.661  68.721  1.00  0.00    -0.246 C  
BRANCH  22  23
HETATM   23  C   UNL     1     -11.360  14.881  69.996  1.00  0.00    -0.310 C  
HETATM   24  C   UNL     1     -11.298  16.042  70.670  1.00  0.00    -0.424 C  
HETATM   25  C   UNL     1     -12.272  13.787  70.476  1.00  0.00    -0.440 C  
ENDBRANCH  22  23
ENDBRANCH   9  16
ENDBRANCH   5   6
ENDBRANCH   4   5
ENDBRANCH   3   4
ENDBRANCH   2   3
TORSDOF 6
ENDMDL
MODEL       97
REMARK 921   NORMALIZED FREE ENERGY PREDICTED BY IDOCK:   -4.46 KCAL/MOL
REMARK 922        TOTAL FREE ENERGY PREDICTED BY IDOCK:   -6.96 KCAL/MOL
REMARK 923 INTER-LIGAND FREE ENERGY PREDICTED BY IDOCK:   -6.72 KCAL/MOL
REMARK 924 INTRA-LIGAND FREE ENERGY PREDICTED BY IDOCK:   -0.24 KCAL/MOL
REMARK 927      BINDING AFFINITY PREDICTED BY RF-SCORE:    0.00 PKD
ROOT
HETATM    1  C   UNL     1      -9.225  10.780  62.763  1.00  0.00    -0.346 C  
HETATM    2  C   UNL     1      -8.732   9.402  62.353  1.00  0.00    -0.239 C  
ENDROOT
BRANCH   2   3
HETATM    3  C   UNL     1      -8.498   8.512  63.574  1.00  0.00    -0.036 C  
BRANCH   3   4
HETATM    4  C   UNL     1      -8.168   9.351  64.803  1.00  0.00    -0.145 C  
BRANCH   4   5
HETATM    5  C   UNL     1      -9.192   9.138  65.918  1.00  0.00    -0.286 C  
BRANCH   5   6
HETATM    6  C   UNL     1      -9.733  10.460  66.407  1.00  0.00    -0.250 A  
HETATM    7  C   UNL     1      -9.075  11.156  67.420  1.00  0.00    -0.143 A  
HETATM    8  C   UNL     1      -9.609  12.345  67.923  1.00  0.00    -0.205 A  
HETATM    9  C   UNL     1     -10.834  12.868  67.465  1.00  0.00    -0.256 A  
HETATM   10  O   UNL     1      -8.898  13.000  68.892  1.00  0.00    -0.373 OA 
HETATM   11  H   UNL     1     -13.041  12.097  65.104  1.00  0.00     0.000 HD 
HETATM   12  H   UNL     1      -9.261  13.808  69.233  1.00  0.00     0.000 HD 
HETATM   13  C   UNL     1     -11.455  12.170  66.411  1.00  0.00    -0.370 A  
HETATM   14  O   UNL     1     -12.622  12.567  65.814  1.00  0.00    -0.569 OA 
HETATM   15  C   UNL     1     -10.911  10.995  65.883  1.00  0.00    -0.183 A  
BRANCH   9  16
HETATM   16  C   UNL     1     -11.413  14.171  68.038  1.00  0.00    -0.342 C  
HETATM   17  C   UNL     1     -11.140  15.304  67.083  1.00  0.00    -0.323 C  
HETATM   18  C   UNL     1     -10.351  16.352  67.349  1.00  0.00    -0.295 C  
HETATM   19  C   UNL     1      -9.659  16.518  68.667  1.00  0.00    -0.241 C  
HETATM   20  C   UNL     1     -10.049  17.394  66.309  1.00  0.00    -0.328 C  
HETATM   21  C   UNL     1     -10.112  15.631  69.830  1.00  0.00    -0.291 C  
HETATM   22  C   UNL     1     -11.029  14.420  69.537  1.00  0.00    -0.230 C  
BRANCH  22  23
HETATM   23  C   UNL     1     -12.255  14.386  70.467  1.00  0.00    -0.411 C  
HETATM   24  C   UNL     1     -12.895  15.517  70.808  1.00  0.00    -0.513 C  
HETATM   25  C   UNL     1     -12.750  13.064  70.982  1.00  0.00    -0.347 C  
ENDBRANCH  22  23
ENDBRANCH   9  16
ENDBRANCH   5   6
ENDBRANCH   4   5
ENDBRANCH   3   4
ENDBRANCH   2   3
TORSDOF 6
ENDMDL
MODEL       98
REMARK 921   NORMALIZED FREE ENERGY PREDICTED BY IDOCK:   -4.45 KCAL/MOL
REMARK 922        TOTAL FREE ENERGY PREDICTED BY IDOCK:   -6.94 KCAL/MOL
REMARK 923 INTER-LIGAND FREE ENERGY PREDICTED BY IDOCK:   -6.12 KCAL/MOL
REMARK 924 INTRA-LIGAND FREE ENERGY PREDICTED BY IDOCK:   -0.81 KCAL/MOL
REMARK 927      BINDING AFFINITY PREDICTED BY RF-SCORE:    0.00 PKD
ROOT
HETATM    1  C   UNL     1     -14.012  15.413  72.337  1.00  0.00    -0.657 C  
HETATM    2  C   UNL     1     -13.353  14.173  71.757  1.00  0.00    -0.459 C  
ENDROOT
BRANCH   2   3
HETATM    3  C   UNL     1     -12.433  14.530  70.589  1.00  0.00    -0.409 C  
BRANCH   3   4
HETATM    4  C   UNL     1     -11.963  13.275  69.864  1.00  0.00    -0.400 C  
BRANCH   4   5
HETATM    5  C   UNL     1     -12.372  12.008  70.616  1.00  0.00    -0.394 C  
BRANCH   5   6
HETATM    6  C   UNL     1     -11.583  10.817  70.128  1.00  0.00    -0.424 A  
HETATM    7  C   UNL     1     -11.043   9.910  71.041  1.00  0.00    -0.401 A  
HETATM    8  C   UNL     1     -10.256   8.845  70.598  1.00  0.00    -0.217 A  
HETATM    9  C   UNL     1      -9.945   8.660  69.237  1.00  0.00    -0.195 A  
HETATM   10  O   UNL     1      -9.785   7.971  71.539  1.00  0.00    -0.157 OA 
HETATM   11  H   UNL     1     -10.785  10.103  66.364  1.00  0.00     0.000 HD 
HETATM   12  H   UNL     1      -9.249   7.246  71.237  1.00  0.00     0.000 HD 
HETATM   13  C   UNL     1     -10.539   9.561  68.333  1.00  0.00    -0.219 A  
HETATM   14  O   UNL     1     -10.384   9.495  66.973  1.00  0.00    -0.238 OA 
HETATM   15  C   UNL     1     -11.353  10.613  68.767  1.00  0.00    -0.339 A  
BRANCH   9  16
HETATM   16  C   UNL     1      -9.067   7.489  68.768  1.00  0.00    -0.135 C  
HETATM   17  C   UNL     1      -7.825   8.026  68.105  1.00  0.00    -0.126 C  
HETATM   18  C   UNL     1      -7.523   7.865  66.811  1.00  0.00    -0.090 C  
HETATM   19  C   UNL     1      -8.400   7.095  65.874  1.00  0.00    -0.141 C  
HETATM   20  C   UNL     1      -6.313   8.515  66.199  1.00  0.00    -0.053 C  
HETATM   21  C   UNL     1      -9.501   6.220  66.480  1.00  0.00    -0.181 C  
HETATM   22  C   UNL     1      -9.858   6.392  67.975  1.00  0.00    -0.126 C  
BRANCH  22  23
HETATM   23  C   UNL     1      -9.894   5.045  68.719  1.00  0.00    -0.236 C  
HETATM   24  C   UNL     1      -9.531   3.907  68.104  1.00  0.00    -0.219 C  
HETATM   25  C   UNL     1     -10.322   5.012  70.159  1.00  0.00    -0.306 C  
ENDBRANCH  22  23
ENDBRANCH   9  16
ENDBRANCH   5   6
ENDBRANCH   4   5
ENDBRANCH   3   4
ENDBRANCH   2   3
TORSDOF 6
ENDMDL
MODEL       99
REMARK 921   NORMALIZED FREE ENERGY PREDICTED BY IDOCK:   -4.39 KCAL/MOL
REMARK 922        TOTAL FREE ENERGY PREDICTED BY IDOCK:   -6.86 KCAL/MOL
REMARK 923 INTER-LIGAND FREE ENERGY PREDICTED BY IDOCK:   -6.53 KCAL/MOL
REMARK 924 INTRA-LIGAND FREE ENERGY PREDICTED BY IDOCK:   -0.33 KCAL/MOL
REMARK 927      BINDING AFFINITY PREDICTED BY RF-SCORE:    0.00 PKD
ROOT
HETATM    1  C   UNL     1     -11.084  15.297  64.830  1.00  0.00    -0.407 C  
HETATM    2  C   UNL     1     -12.056  14.161  64.562  1.00  0.00    -0.489 C  
ENDROOT
BRANCH   2   3
HETATM    3  C   UNL     1     -12.388  13.403  65.848  1.00  0.00    -0.493 C  
BRANCH   3   4
HETATM    4  C   UNL     1     -11.276  13.564  66.877  1.00  0.00    -0.329 C  
BRANCH   4   5
HETATM    5  C   UNL     1     -11.821  13.504  68.304  1.00  0.00    -0.401 C  
BRANCH   5   6
HETATM    6  C   UNL     1     -11.436  12.205  68.971  1.00  0.00    -0.351 A  
HETATM    7  C   UNL     1     -10.199  11.618  68.704  1.00  0.00    -0.215 A  
HETATM    8  C   UNL     1      -9.867  10.384  69.266  1.00  0.00    -0.225 A  
HETATM    9  C   UNL     1     -10.762   9.668  70.083  1.00  0.00    -0.321 A  
HETATM   10  O   UNL     1      -8.624   9.878  68.994  1.00  0.00    -0.131 OA 
HETATM   11  H   UNL     1     -13.773  10.200  71.387  1.00  0.00     0.000 HD 
HETATM   12  H   UNL     1      -8.398   9.038  69.376  1.00  0.00     0.000 HD 
HETATM   13  C   UNL     1     -11.985  10.303  70.374  1.00  0.00    -0.303 A  
HETATM   14  O   UNL     1     -12.948   9.772  71.191  1.00  0.00    -0.350 OA 
HETATM   15  C   UNL     1     -12.313  11.553  69.839  1.00  0.00    -0.247 A  
BRANCH   9  16
HETATM   16  C   UNL     1     -10.384   8.304  70.684  1.00  0.00    -0.220 C  
HETATM   17  C   UNL     1      -9.830   8.503  72.071  1.00  0.00    -0.383 C  
HETATM   18  C   UNL     1      -8.570   8.234  72.433  1.00  0.00    -0.270 C  
HETATM   19  C   UNL     1      -7.565   7.672  71.476  1.00  0.00    -0.081 C  
HETATM   20  C   UNL     1      -8.063   8.550  73.812  1.00  0.00    -0.071 C  
HETATM   21  C   UNL     1      -8.078   7.112  70.146  1.00  0.00    -0.130 C  
HETATM   22  C   UNL     1      -9.533   7.410  69.718  1.00  0.00    -0.159 C  
BRANCH  22  23
HETATM   23  C   UNL     1     -10.283   6.136  69.290  1.00  0.00    -0.251 C  
HETATM   24  C   UNL     1     -10.323   5.057  70.091  1.00  0.00    -0.306 C  
HETATM   25  C   UNL     1     -10.994   6.110  67.966  1.00  0.00    -0.399 C  
ENDBRANCH  22  23
ENDBRANCH   9  16
ENDBRANCH   5   6
ENDBRANCH   4   5
ENDBRANCH   3   4
ENDBRANCH   2   3
TORSDOF 6
ENDMDL
MODEL      100
REMARK 921   NORMALIZED FREE ENERGY PREDICTED BY IDOCK:   -4.38 KCAL/MOL
REMARK 922        TOTAL FREE ENERGY PREDICTED BY IDOCK:   -6.84 KCAL/MOL
REMARK 923 INTER-LIGAND FREE ENERGY PREDICTED BY IDOCK:   -5.83 KCAL/MOL
REMARK 924 INTRA-LIGAND FREE ENERGY PREDICTED BY IDOCK:   -1.01 KCAL/MOL
REMARK 927      BINDING AFFINITY PREDICTED BY RF-SCORE:    0.00 PKD
ROOT
HETATM    1  C   UNL     1     -10.526  18.530  66.967  1.00  0.00    -0.440 C  
HETATM    2  C   UNL     1     -10.290  17.042  67.161  1.00  0.00    -0.305 C  
ENDROOT
BRANCH   2   3
HETATM    3  C   UNL     1     -10.851  16.563  68.500  1.00  0.00    -0.349 C  
BRANCH   3   4
HETATM    4  C   UNL     1     -11.449  15.167  68.370  1.00  0.00    -0.347 C  
BRANCH   4   5
HETATM    5  C   UNL     1     -11.672  14.788  66.906  1.00  0.00    -0.316 C  
BRANCH   5   6
HETATM    6  C   UNL     1     -11.100  13.422  66.613  1.00  0.00    -0.310 A  
HETATM    7  C   UNL     1     -11.250  12.854  65.348  1.00  0.00    -0.314 A  
HETATM    8  C   UNL     1     -10.781  11.564  65.092  1.00  0.00    -0.289 A  
HETATM    9  C   UNL     1     -10.180  10.774  66.091  1.00  0.00    -0.308 A  
HETATM   10  O   UNL     1     -10.927  11.077  63.821  1.00  0.00    -0.543 OA 
HETATM   11  H   UNL     1      -9.267  11.194  69.258  1.00  0.00     0.000 HD 
HETATM   12  H   UNL     1     -10.608  10.199  63.647  1.00  0.00     0.000 HD 
HETATM   13  C   UNL     1     -10.000  11.386  67.346  1.00  0.00    -0.186 A  
HETATM   14  O   UNL     1      -9.389  10.781  68.412  1.00  0.00    -0.153 OA 
HETATM   15  C   UNL     1     -10.439  12.690  67.601  1.00  0.00    -0.226 A  
BRANCH   9  16
HETATM   16  C   UNL     1      -9.681   9.350  65.795  1.00  0.00    -0.354 C  
HETATM   17  C   UNL     1     -10.474   8.361  66.610  1.00  0.00    -0.221 C  
HETATM   18  C   UNL     1      -9.964   7.593  67.579  1.00  0.00    -0.233 C  
HETATM   19  C   UNL     1      -8.513   7.623  67.946  1.00  0.00    -0.123 C  
HETATM   20  C   UNL     1     -10.837   6.699  68.417  1.00  0.00    -0.320 C  
HETATM   21  C   UNL     1      -7.546   8.322  66.984  1.00  0.00    -0.092 C  
HETATM   22  C   UNL     1      -8.122   9.208  65.856  1.00  0.00    -0.111 C  
BRANCH  22  23
HETATM   23  C   UNL     1      -7.512   8.866  64.485  1.00  0.00    -0.105 C  
HETATM   24  C   UNL     1      -7.410   9.800  63.523  1.00  0.00    -0.123 C  
HETATM   25  C   UNL     1      -7.009   7.474  64.230  1.00  0.00    -0.060 C  
ENDBRANCH  22  23
ENDBRANCH   9  16
ENDBRANCH   5   6
ENDBRANCH   4   5
ENDBRANCH   3   4
ENDBRANCH   2   3
TORSDOF 6
ENDMDL
MODEL      101
REMARK 921   NORMALIZED FREE ENERGY PREDICTED BY IDOCK:   -4.35 KCAL/MOL
REMARK 922        TOTAL FREE ENERGY PREDICTED BY IDOCK:   -6.81 KCAL/MOL
REMARK 923 INTER-LIGAND FREE ENERGY PREDICTED BY IDOCK:   -6.23 KCAL/MOL
REMARK 924 INTRA-LIGAND FREE ENERGY PREDICTED BY IDOCK:   -0.57 KCAL/MOL
REMARK 927      BINDING AFFINITY PREDICTED BY RF-SCORE:    0.00 PKD
ROOT
HETATM    1  C   UNL     1     -10.554  19.899  66.110  1.00  0.00    -0.526 C  
HETATM    2  C   UNL     1      -9.966  20.416  67.412  1.00  0.00    -0.556 C  
ENDROOT
BRANCH   2   3
HETATM    3  C   UNL     1      -8.901  19.463  67.956  1.00  0.00    -0.369 C  
BRANCH   3   4
HETATM    4  C   UNL     1      -9.492  18.086  68.230  1.00  0.00    -0.305 C  
BRANCH   4   5
HETATM    5  C   UNL     1      -8.399  17.031  68.397  1.00  0.00    -0.241 C  
BRANCH   5   6
HETATM    6  C   UNL     1      -8.863  15.691  67.878  1.00  0.00    -0.171 A  
HETATM    7  C   UNL     1      -8.022  14.581  67.948  1.00  0.00    -0.152 A  
HETATM    8  C   UNL     1      -8.420  13.356  67.409  1.00  0.00    -0.196 A  
HETATM    9  C   UNL     1      -9.653  13.196  66.747  1.00  0.00    -0.249 A  
HETATM   10  O   UNL     1      -7.565  12.296  67.541  1.00  0.00    -0.133 OA 
HETATM   11  H   UNL     1     -12.327  15.081  66.162  1.00  0.00     0.000 HD 
HETATM   12  H   UNL     1      -7.837  11.463  67.174  1.00  0.00     0.000 HD 
HETATM   13  C   UNL     1     -10.503  14.319  66.729  1.00  0.00    -0.273 A  
HETATM   14  O   UNL     1     -11.754  14.323  66.174  1.00  0.00    -0.365 OA 
HETATM   15  C   UNL     1     -10.122  15.541  67.295  1.00  0.00    -0.250 A  
BRANCH   9  16
HETATM   16  C   UNL     1     -10.071  11.843  66.148  1.00  0.00    -0.257 C  
HETATM   17  C   UNL     1     -10.354  10.868  67.261  1.00  0.00    -0.255 C  
HETATM   18  C   UNL     1      -9.643   9.758  67.499  1.00  0.00    -0.178 C  
HETATM   19  C   UNL     1      -8.480   9.354  66.647  1.00  0.00    -0.130 C  
HETATM   20  C   UNL     1      -9.925   8.884  68.689  1.00  0.00    -0.192 C  
HETATM   21  C   UNL     1      -8.299  10.062  65.301  1.00  0.00    -0.157 C  
HETATM   22  C   UNL     1      -9.117  11.342  65.010  1.00  0.00    -0.085 C  
BRANCH  22  23
HETATM   23  C   UNL     1      -9.821  11.279  63.643  1.00  0.00    -0.377 C  
HETATM   24  C   UNL     1      -9.394  10.440  62.684  1.00  0.00    -0.335 C  
HETATM   25  C   UNL     1     -11.015  12.157  63.390  1.00  0.00    -0.480 C  
ENDBRANCH  22  23
ENDBRANCH   9  16
ENDBRANCH   5   6
ENDBRANCH   4   5
ENDBRANCH   3   4
ENDBRANCH   2   3
TORSDOF 6
ENDMDL
MODEL      102
REMARK 921   NORMALIZED FREE ENERGY PREDICTED BY IDOCK:   -4.35 KCAL/MOL
REMARK 922        TOTAL FREE ENERGY PREDICTED BY IDOCK:   -6.80 KCAL/MOL
REMARK 923 INTER-LIGAND FREE ENERGY PREDICTED BY IDOCK:   -5.77 KCAL/MOL
REMARK 924 INTRA-LIGAND FREE ENERGY PREDICTED BY IDOCK:   -1.03 KCAL/MOL
REMARK 927      BINDING AFFINITY PREDICTED BY RF-SCORE:    0.00 PKD
ROOT
HETATM    1  C   UNL     1      -9.952   7.653  73.237  1.00  0.00    -0.379 C  
HETATM    2  C   UNL     1     -10.120   6.190  72.862  1.00  0.00    -0.196 C  
ENDROOT
BRANCH   2   3
HETATM    3  C   UNL     1     -11.548   5.897  72.401  1.00  0.00    -0.341 C  
BRANCH   3   4
HETATM    4  C   UNL     1     -11.917   6.756  71.197  1.00  0.00    -0.421 C  
BRANCH   4   5
HETATM    5  C   UNL     1     -11.286   6.220  69.912  1.00  0.00    -0.504 C  
BRANCH   5   6
HETATM    6  C   UNL     1     -10.680   7.342  69.104  1.00  0.00    -0.201 A  
HETATM    7  C   UNL     1     -10.528   8.609  69.665  1.00  0.00    -0.220 A  
HETATM    8  C   UNL     1     -10.031   9.666  68.901  1.00  0.00    -0.178 A  
HETATM    9  C   UNL     1      -9.701   9.515  67.540  1.00  0.00    -0.194 A  
HETATM   10  O   UNL     1      -9.872  10.877  69.519  1.00  0.00    -0.425 OA 
HETATM   11  H   UNL     1      -9.575   7.006  65.364  1.00  0.00     0.000 HD 
HETATM   12  H   UNL     1      -9.534  11.596  68.998  1.00  0.00     0.000 HD 
HETATM   13  C   UNL     1      -9.821   8.216  67.009  1.00  0.00    -0.232 A  
HETATM   14  O   UNL     1      -9.495   7.882  65.722  1.00  0.00    -0.012 OA 
HETATM   15  C   UNL     1     -10.289   7.146  67.779  1.00  0.00    -0.257 A  
BRANCH   9  16
HETATM   16  C   UNL     1      -9.167  10.693  66.709  1.00  0.00    -0.174 C  
HETATM   17  C   UNL     1     -10.274  11.243  65.849  1.00  0.00    -0.298 C  
HETATM   18  C   UNL     1     -10.288  11.207  64.511  1.00  0.00    -0.400 C  
HETATM   19  C   UNL     1      -9.164  10.621  63.714  1.00  0.00    -0.280 C  
HETATM   20  C   UNL     1     -11.474  11.689  63.722  1.00  0.00    -0.457 C  
HETATM   21  C   UNL     1      -7.844  10.340  64.438  1.00  0.00    -0.117 C  
HETATM   22  C   UNL     1      -7.812  10.383  65.984  1.00  0.00    -0.142 C  
BRANCH  22  23
HETATM   23  C   UNL     1      -6.655  11.249  66.514  1.00  0.00    -0.108 C  
HETATM   24  C   UNL     1      -6.842  12.099  67.538  1.00  0.00    -0.127 C  
HETATM   25  C   UNL     1      -5.295  11.122  65.888  1.00  0.00    -0.106 C  
ENDBRANCH  22  23
ENDBRANCH   9  16
ENDBRANCH   5   6
ENDBRANCH   4   5
ENDBRANCH   3   4
ENDBRANCH   2   3
TORSDOF 6
ENDMDL
MODEL      103
REMARK 921   NORMALIZED FREE ENERGY PREDICTED BY IDOCK:   -4.32 KCAL/MOL
REMARK 922        TOTAL FREE ENERGY PREDICTED BY IDOCK:   -6.77 KCAL/MOL
REMARK 923 INTER-LIGAND FREE ENERGY PREDICTED BY IDOCK:   -5.89 KCAL/MOL
REMARK 924 INTRA-LIGAND FREE ENERGY PREDICTED BY IDOCK:   -0.88 KCAL/MOL
REMARK 927      BINDING AFFINITY PREDICTED BY RF-SCORE:    0.00 PKD
ROOT
HETATM    1  C   UNL     1      -8.527   3.844  62.918  1.00  0.00    -0.087 C  
HETATM    2  C   UNL     1      -8.742   4.654  64.185  1.00  0.00    -0.145 C  
ENDROOT
BRANCH   2   3
HETATM    3  C   UNL     1      -7.411   5.125  64.772  1.00  0.00    -0.067 C  
BRANCH   3   4
HETATM    4  C   UNL     1      -7.639   6.055  65.958  1.00  0.00    -0.087 C  
BRANCH   4   5
HETATM    5  C   UNL     1      -8.585   7.201  65.597  1.00  0.00    -0.119 C  
BRANCH   5   6
HETATM    6  C   UNL     1      -9.129   7.859  66.842  1.00  0.00    -0.172 A  
HETATM    7  C   UNL     1      -8.747   9.158  67.175  1.00  0.00    -0.130 A  
HETATM    8  C   UNL     1      -9.194   9.746  68.360  1.00  0.00    -0.130 A  
HETATM    9  C   UNL     1     -10.009   9.054  69.277  1.00  0.00    -0.188 A  
HETATM   10  O   UNL     1      -8.812  11.035  68.612  1.00  0.00    -0.156 OA 
HETATM   11  H   UNL     1     -11.524   6.099  69.389  1.00  0.00     0.000 HD 
HETATM   12  H   UNL     1      -9.117  11.435  69.418  1.00  0.00     0.000 HD 
HETATM   13  C   UNL     1     -10.417   7.761  68.897  1.00  0.00    -0.194 A  
HETATM   14  O   UNL     1     -11.249   6.970  69.645  1.00  0.00    -0.243 OA 
HETATM   15  C   UNL     1      -9.997   7.178  67.697  1.00  0.00    -0.201 A  
BRANCH   9  16
HETATM   16  C   UNL     1     -10.482   9.712  70.583  1.00  0.00    -0.379 C  
HETATM   17  C   UNL     1      -9.969   8.921  71.758  1.00  0.00    -0.397 C  
HETATM   18  C   UNL     1     -10.744   8.257  72.625  1.00  0.00    -0.384 C  
HETATM   19  C   UNL     1     -12.238   8.252  72.523  1.00  0.00    -0.367 C  
HETATM   20  C   UNL     1     -10.155   7.408  73.717  1.00  0.00    -0.329 C  
HETATM   21  C   UNL     1     -12.895   9.278  71.594  1.00  0.00    -0.447 C  
HETATM   22  C   UNL     1     -12.011  10.056  70.591  1.00  0.00    -0.401 C  
BRANCH  22  23
HETATM   23  C   UNL     1     -12.268  11.572  70.651  1.00  0.00    -0.473 C  
HETATM   24  C   UNL     1     -11.909  12.373  69.633  1.00  0.00    -0.380 C  
HETATM   25  C   UNL     1     -12.948  12.157  71.856  1.00  0.00    -0.419 C  
ENDBRANCH  22  23
ENDBRANCH   9  16
ENDBRANCH   5   6
ENDBRANCH   4   5
ENDBRANCH   3   4
ENDBRANCH   2   3
TORSDOF 6
ENDMDL
MODEL      104
REMARK 921   NORMALIZED FREE ENERGY PREDICTED BY IDOCK:   -4.32 KCAL/MOL
REMARK 922        TOTAL FREE ENERGY PREDICTED BY IDOCK:   -6.76 KCAL/MOL
REMARK 923 INTER-LIGAND FREE ENERGY PREDICTED BY IDOCK:   -5.84 KCAL/MOL
REMARK 924 INTRA-LIGAND FREE ENERGY PREDICTED BY IDOCK:   -0.92 KCAL/MOL
REMARK 927      BINDING AFFINITY PREDICTED BY RF-SCORE:    0.00 PKD
ROOT
HETATM    1  C   UNL     1      -5.827   3.828  64.479  1.00  0.00    -0.014 C  
HETATM    2  C   UNL     1      -6.519   4.353  65.725  1.00  0.00    -0.037 C  
ENDROOT
BRANCH   2   3
HETATM    3  C   UNL     1      -7.957   3.841  65.817  1.00  0.00    -0.093 C  
BRANCH   3   4
HETATM    4  C   UNL     1      -8.933   4.857  65.236  1.00  0.00    -0.152 C  
BRANCH   4   5
HETATM    5  C   UNL     1     -10.302   4.767  65.911  1.00  0.00    -0.303 C  
BRANCH   5   6
HETATM    6  C   UNL     1     -10.393   5.730  67.070  1.00  0.00    -0.303 A  
HETATM    7  C   UNL     1     -10.387   7.106  66.842  1.00  0.00    -0.349 A  
HETATM    8  C   UNL     1     -10.403   8.001  67.914  1.00  0.00    -0.222 A  
HETATM    9  C   UNL     1     -10.388   7.564  69.253  1.00  0.00    -0.209 A  
HETATM   10  O   UNL     1     -10.431   9.338  67.624  1.00  0.00    -0.238 OA 
HETATM   11  H   UNL     1     -10.520   4.640  70.827  1.00  0.00     0.000 HD 
HETATM   12  H   UNL     1     -10.442   9.946  68.354  1.00  0.00     0.000 HD 
HETATM   13  C   UNL     1     -10.441   6.172  69.456  1.00  0.00    -0.254 A  
HETATM   14  O   UNL     1     -10.484   5.579  70.690  1.00  0.00    -0.248 OA 
HETATM   15  C   UNL     1     -10.455   5.271  68.386  1.00  0.00    -0.143 A  
BRANCH   9  16
HETATM   16  C   UNL     1     -10.394   8.563  70.422  1.00  0.00    -0.222 C  
HETATM   17  C   UNL     1      -9.123   8.411  71.217  1.00  0.00    -0.226 C  
HETATM   18  C   UNL     1      -9.066   7.990  72.486  1.00  0.00    -0.271 C  
HETATM   19  C   UNL     1     -10.292   7.639  73.270  1.00  0.00    -0.405 C  
HETATM   20  C   UNL     1      -7.752   7.769  73.184  1.00  0.00    -0.153 C  
HETATM   21  C   UNL     1     -11.650   8.067  72.703  1.00  0.00    -0.448 C  
HETATM   22  C   UNL     1     -11.730   8.561  71.241  1.00  0.00    -0.331 C  
BRANCH  22  23
HETATM   23  C   UNL     1     -12.489   9.894  71.122  1.00  0.00    -0.464 C  
HETATM   24  C   UNL     1     -13.641  10.094  71.785  1.00  0.00    -0.304 C  
HETATM   25  C   UNL     1     -11.920  10.992  70.267  1.00  0.00    -0.452 C  
ENDBRANCH  22  23
ENDBRANCH   9  16
ENDBRANCH   5   6
ENDBRANCH   4   5
ENDBRANCH   3   4
ENDBRANCH   2   3
TORSDOF 6
ENDMDL
MODEL      105
REMARK 921   NORMALIZED FREE ENERGY PREDICTED BY IDOCK:   -4.30 KCAL/MOL
REMARK 922        TOTAL FREE ENERGY PREDICTED BY IDOCK:   -6.73 KCAL/MOL
REMARK 923 INTER-LIGAND FREE ENERGY PREDICTED BY IDOCK:   -6.17 KCAL/MOL
REMARK 924 INTRA-LIGAND FREE ENERGY PREDICTED BY IDOCK:   -0.57 KCAL/MOL
REMARK 927      BINDING AFFINITY PREDICTED BY RF-SCORE:    0.00 PKD
ROOT
HETATM    1  C   UNL     1     -12.302  12.633  63.472  1.00  0.00    -0.591 C  
HETATM    2  C   UNL     1     -11.380  12.642  64.678  1.00  0.00    -0.360 C  
ENDROOT
BRANCH   2   3
HETATM    3  C   UNL     1     -12.011  13.391  65.852  1.00  0.00    -0.452 C  
BRANCH   3   4
HETATM    4  C   UNL     1     -11.174  13.226  67.115  1.00  0.00    -0.327 C  
BRANCH   4   5
HETATM    5  C   UNL     1     -11.872  12.324  68.134  1.00  0.00    -0.372 C  
BRANCH   5   6
HETATM    6  C   UNL     1     -11.112  11.032  68.316  1.00  0.00    -0.316 A  
HETATM    7  C   UNL     1     -11.021  10.117  67.268  1.00  0.00    -0.250 A  
HETATM    8  C   UNL     1     -10.377   8.892  67.452  1.00  0.00    -0.269 A  
HETATM    9  C   UNL     1      -9.831   8.513  68.694  1.00  0.00    -0.180 A  
HETATM   10  O   UNL     1     -10.291   8.052  66.375  1.00  0.00    -0.471 OA 
HETATM   11  H   UNL     1      -9.414   9.936  71.668  1.00  0.00     0.000 HD 
HETATM   12  H   UNL     1      -9.853   7.219  66.501  1.00  0.00     0.000 HD 
HETATM   13  C   UNL     1      -9.896   9.472  69.723  1.00  0.00    -0.215 A  
HETATM   14  O   UNL     1      -9.371   9.289  70.974  1.00  0.00    -0.259 OA 
HETATM   15  C   UNL     1     -10.513  10.714  69.536  1.00  0.00    -0.236 A  
BRANCH   9  16
HETATM   16  C   UNL     1      -9.136   7.155  68.883  1.00  0.00    -0.131 C  
HETATM   17  C   UNL     1      -7.927   7.081  67.986  1.00  0.00    -0.115 C  
HETATM   18  C   UNL     1      -7.789   6.228  66.964  1.00  0.00    -0.104 C  
HETATM   19  C   UNL     1      -8.841   5.221  66.614  1.00  0.00    -0.113 C  
HETATM   20  C   UNL     1      -6.595   6.279  66.052  1.00  0.00    -0.048 C  
HETATM   21  C   UNL     1      -9.952   4.962  67.636  1.00  0.00    -0.192 C  
HETATM   22  C   UNL     1     -10.119   5.936  68.824  1.00  0.00    -0.220 C  
BRANCH  22  23
HETATM   23  C   UNL     1     -10.210   5.195  70.170  1.00  0.00    -0.348 C  
HETATM   24  C   UNL     1      -9.675   3.971  70.322  1.00  0.00    -0.263 C  
HETATM   25  C   UNL     1     -10.891   5.861  71.333  1.00  0.00    -0.332 C  
ENDBRANCH  22  23
ENDBRANCH   9  16
ENDBRANCH   5   6
ENDBRANCH   4   5
ENDBRANCH   3   4
ENDBRANCH   2   3
TORSDOF 6
ENDMDL
MODEL      106
REMARK 921   NORMALIZED FREE ENERGY PREDICTED BY IDOCK:   -4.27 KCAL/MOL
REMARK 922        TOTAL FREE ENERGY PREDICTED BY IDOCK:   -6.70 KCAL/MOL
REMARK 923 INTER-LIGAND FREE ENERGY PREDICTED BY IDOCK:   -6.11 KCAL/MOL
REMARK 924 INTRA-LIGAND FREE ENERGY PREDICTED BY IDOCK:   -0.59 KCAL/MOL
REMARK 927      BINDING AFFINITY PREDICTED BY RF-SCORE:    0.00 PKD
ROOT
HETATM    1  C   UNL     1      -5.765   9.664  70.725  1.00  0.00    -0.066 C  
HETATM    2  C   UNL     1      -7.280   9.562  70.714  1.00  0.00    -0.105 C  
ENDROOT
BRANCH   2   3
HETATM    3  C   UNL     1      -7.739   8.192  70.214  1.00  0.00    -0.085 C  
BRANCH   3   4
HETATM    4  C   UNL     1      -9.196   7.939  70.582  1.00  0.00    -0.157 C  
BRANCH   4   5
HETATM    5  C   UNL     1     -10.070   7.789  69.336  1.00  0.00    -0.195 C  
BRANCH   5   6
HETATM    6  C   UNL     1     -10.489   9.139  68.808  1.00  0.00    -0.236 A  
HETATM    7  C   UNL     1     -10.096   9.548  67.534  1.00  0.00    -0.257 A  
HETATM    8  C   UNL     1     -10.424  10.823  67.068  1.00  0.00    -0.247 A  
HETATM    9  C   UNL     1     -11.122  11.754  67.862  1.00  0.00    -0.302 A  
HETATM   10  O   UNL     1     -10.041  11.151  65.796  1.00  0.00    -0.230 OA 
HETATM   11  H   UNL     1     -12.563  11.751  70.857  1.00  0.00     0.000 HD 
HETATM   12  H   UNL     1     -10.264  12.019  65.479  1.00  0.00     0.000 HD 
HETATM   13  C   UNL     1     -11.546  11.301  69.126  1.00  0.00    -0.319 A  
HETATM   14  O   UNL     1     -12.277  12.057  70.004  1.00  0.00    -0.271 OA 
HETATM   15  C   UNL     1     -11.247  10.015  69.588  1.00  0.00    -0.285 A  
BRANCH   9  16
HETATM   16  C   UNL     1     -11.464  13.157  67.337  1.00  0.00    -0.375 C  
HETATM   17  C   UNL     1     -12.207  13.038  66.032  1.00  0.00    -0.463 C  
HETATM   18  C   UNL     1     -11.744  13.465  64.851  1.00  0.00    -0.379 C  
HETATM   19  C   UNL     1     -10.417  14.142  64.709  1.00  0.00    -0.432 C  
HETATM   20  C   UNL     1     -12.501  13.223  63.575  1.00  0.00    -0.328 C  
HETATM   21  C   UNL     1      -9.720  14.627  65.984  1.00  0.00    -0.340 C  
HETATM   22  C   UNL     1     -10.247  14.145  67.355  1.00  0.00    -0.244 C  
BRANCH  22  23
HETATM   23  C   UNL     1     -10.459  15.313  68.336  1.00  0.00    -0.236 C  
HETATM   24  C   UNL     1     -10.575  16.576  67.890  1.00  0.00    -0.329 C  
HETATM   25  C   UNL     1     -10.556  15.030  69.808  1.00  0.00    -0.232 C  
ENDBRANCH  22  23
ENDBRANCH   9  16
ENDBRANCH   5   6
ENDBRANCH   4   5
ENDBRANCH   3   4
ENDBRANCH   2   3
TORSDOF 6
ENDMDL
MODEL      107
REMARK 921   NORMALIZED FREE ENERGY PREDICTED BY IDOCK:   -4.27 KCAL/MOL
REMARK 922        TOTAL FREE ENERGY PREDICTED BY IDOCK:   -6.69 KCAL/MOL
REMARK 923 INTER-LIGAND FREE ENERGY PREDICTED BY IDOCK:   -6.63 KCAL/MOL
REMARK 924 INTRA-LIGAND FREE ENERGY PREDICTED BY IDOCK:   -0.06 KCAL/MOL
REMARK 927      BINDING AFFINITY PREDICTED BY RF-SCORE:    0.00 PKD
ROOT
HETATM    1  C   UNL     1     -13.316   6.831  71.273  1.00  0.00    -0.086 C  
HETATM    2  C   UNL     1     -14.140   7.831  72.066  1.00  0.00    -0.379 C  
ENDROOT
BRANCH   2   3
HETATM    3  C   UNL     1     -14.104   9.216  71.418  1.00  0.00    -0.194 C  
BRANCH   3   4
HETATM    4  C   UNL     1     -13.043  10.094  72.071  1.00  0.00    -0.538 C  
BRANCH   4   5
HETATM    5  C   UNL     1     -13.100  11.527  71.541  1.00  0.00    -0.429 C  
BRANCH   5   6
HETATM    6  C   UNL     1     -12.194  11.693  70.345  1.00  0.00    -0.434 A  
HETATM    7  C   UNL     1     -11.752  12.962  69.970  1.00  0.00    -0.284 A  
HETATM    8  C   UNL     1     -10.969  13.127  68.826  1.00  0.00    -0.262 A  
HETATM    9  C   UNL     1     -10.627  12.047  67.990  1.00  0.00    -0.233 A  
HETATM   10  O   UNL     1     -10.537  14.392  68.531  1.00  0.00    -0.240 OA 
HETATM   11  H   UNL     1     -11.043   8.750  68.036  1.00  0.00     0.000 HD 
HETATM   12  H   UNL     1     -10.004  14.505  67.752  1.00  0.00     0.000 HD 
HETATM   13  C   UNL     1     -11.048  10.772  68.414  1.00  0.00    -0.266 A  
HETATM   14  O   UNL     1     -10.759   9.610  67.749  1.00  0.00    -0.258 OA 
HETATM   15  C   UNL     1     -11.806  10.595  69.576  1.00  0.00    -0.345 A  
BRANCH   9  16
HETATM   16  C   UNL     1      -9.775  12.249  66.726  1.00  0.00    -0.219 C  
HETATM   17  C   UNL     1     -10.637  12.809  65.624  1.00  0.00    -0.297 C  
HETATM   18  C   UNL     1     -10.927  12.168  64.486  1.00  0.00    -0.361 C  
HETATM   19  C   UNL     1     -10.392  10.805  64.175  1.00  0.00    -0.382 C  
HETATM   20  C   UNL     1     -11.875  12.751  63.474  1.00  0.00    -0.618 C  
HETATM   21  C   UNL     1      -9.247  10.271  65.042  1.00  0.00    -0.259 C  
HETATM   22  C   UNL     1      -8.898  11.004  66.357  1.00  0.00    -0.182 C  
BRANCH  22  23
HETATM   23  C   UNL     1      -7.391  11.297  66.473  1.00  0.00    -0.101 C  
HETATM   24  C   UNL     1      -6.941  12.309  67.236  1.00  0.00    -0.142 C  
HETATM   25  C   UNL     1      -6.413  10.426  65.736  1.00  0.00    -0.123 C  
ENDBRANCH  22  23
ENDBRANCH   9  16
ENDBRANCH   5   6
ENDBRANCH   4   5
ENDBRANCH   3   4
ENDBRANCH   2   3
TORSDOF 6
ENDMDL
MODEL      108
REMARK 921   NORMALIZED FREE ENERGY PREDICTED BY IDOCK:   -4.26 KCAL/MOL
REMARK 922        TOTAL FREE ENERGY PREDICTED BY IDOCK:   -6.69 KCAL/MOL
REMARK 923 INTER-LIGAND FREE ENERGY PREDICTED BY IDOCK:   -5.69 KCAL/MOL
REMARK 924 INTRA-LIGAND FREE ENERGY PREDICTED BY IDOCK:   -1.00 KCAL/MOL
REMARK 927      BINDING AFFINITY PREDICTED BY RF-SCORE:    0.00 PKD
ROOT
HETATM    1  C   UNL     1     -11.964  12.748  63.266  1.00  0.00    -0.522 C  
HETATM    2  C   UNL     1     -11.381  11.543  63.985  1.00  0.00    -0.380 C  
ENDROOT
BRANCH   2   3
HETATM    3  C   UNL     1      -9.929  11.792  64.395  1.00  0.00    -0.281 C  
BRANCH   3   4
HETATM    4  C   UNL     1      -9.841  12.215  65.856  1.00  0.00    -0.265 C  
BRANCH   4   5
HETATM    5  C   UNL     1     -11.062  11.748  66.648  1.00  0.00    -0.364 C  
BRANCH   5   6
HETATM    6  C   UNL     1     -10.695  10.623  67.586  1.00  0.00    -0.315 A  
HETATM    7  C   UNL     1     -10.107  10.901  68.820  1.00  0.00    -0.205 A  
HETATM    8  C   UNL     1      -9.704   9.861  69.661  1.00  0.00    -0.229 A  
HETATM    9  C   UNL     1      -9.835   8.508  69.294  1.00  0.00    -0.185 A  
HETATM   10  O   UNL     1      -9.166  10.199  70.873  1.00  0.00    -0.156 OA 
HETATM   11  H   UNL     1     -11.156   6.828  66.750  1.00  0.00     0.000 HD 
HETATM   12  H   UNL     1      -8.892   9.492  71.445  1.00  0.00     0.000 HD 
HETATM   13  C   UNL     1     -10.472   8.254  68.064  1.00  0.00    -0.181 A  
HETATM   14  O   UNL     1     -10.726   6.999  67.579  1.00  0.00    -0.243 OA 
HETATM   15  C   UNL     1     -10.906   9.290  67.230  1.00  0.00    -0.140 A  
BRANCH   9  16
HETATM   16  C   UNL     1      -9.375   7.377  70.227  1.00  0.00    -0.162 C  
HETATM   17  C   UNL     1      -8.164   6.701  69.637  1.00  0.00    -0.127 C  
HETATM   18  C   UNL     1      -8.130   5.431  69.218  1.00  0.00    -0.093 C  
HETATM   19  C   UNL     1      -9.317   4.523  69.316  1.00  0.00    -0.215 C  
HETATM   20  C   UNL     1      -6.913   4.855  68.549  1.00  0.00    -0.056 C  
HETATM   21  C   UNL     1     -10.489   4.971  70.194  1.00  0.00    -0.235 C  
HETATM   22  C   UNL     1     -10.538   6.435  70.690  1.00  0.00    -0.288 C  
BRANCH  22  23
HETATM   23  C   UNL     1     -10.793   6.523  72.205  1.00  0.00    -0.262 C  
HETATM   24  C   UNL     1     -11.231   5.455  72.895  1.00  0.00    -0.372 C  
HETATM   25  C   UNL     1     -10.528   7.817  72.922  1.00  0.00    -0.412 C  
ENDBRANCH  22  23
ENDBRANCH   9  16
ENDBRANCH   5   6
ENDBRANCH   4   5
ENDBRANCH   3   4
ENDBRANCH   2   3
TORSDOF 6
ENDMDL
MODEL      109
REMARK 921   NORMALIZED FREE ENERGY PREDICTED BY IDOCK:   -4.24 KCAL/MOL
REMARK 922        TOTAL FREE ENERGY PREDICTED BY IDOCK:   -6.66 KCAL/MOL
REMARK 923 INTER-LIGAND FREE ENERGY PREDICTED BY IDOCK:   -6.05 KCAL/MOL
REMARK 924 INTRA-LIGAND FREE ENERGY PREDICTED BY IDOCK:   -0.61 KCAL/MOL
REMARK 927      BINDING AFFINITY PREDICTED BY RF-SCORE:    0.00 PKD
ROOT
HETATM    1  C   UNL     1     -14.243  15.568  72.421  1.00  0.00    -0.571 C  
HETATM    2  C   UNL     1     -13.119  15.128  71.498  1.00  0.00    -0.483 C  
ENDROOT
BRANCH   2   3
HETATM    3  C   UNL     1     -11.864  15.974  71.712  1.00  0.00    -0.599 C  
BRANCH   3   4
HETATM    4  C   UNL     1     -11.191  16.293  70.382  1.00  0.00    -0.336 C  
BRANCH   4   5
HETATM    5  C   UNL     1     -11.895  15.597  69.217  1.00  0.00    -0.378 C  
BRANCH   5   6
HETATM    6  C   UNL     1     -11.082  14.426  68.722  1.00  0.00    -0.275 A  
HETATM    7  C   UNL     1     -11.716  13.250  68.321  1.00  0.00    -0.388 A  
HETATM    8  C   UNL     1     -10.966  12.141  67.926  1.00  0.00    -0.229 A  
HETATM    9  C   UNL     1      -9.557  12.144  67.949  1.00  0.00    -0.198 A  
HETATM   10  O   UNL     1     -11.647  11.029  67.511  1.00  0.00    -0.529 OA 
HETATM   11  H   UNL     1      -7.171  14.367  68.586  1.00  0.00     0.000 HD 
HETATM   12  H   UNL     1     -11.136  10.275  67.242  1.00  0.00     0.000 HD 
HETATM   13  C   UNL     1      -8.942  13.357  68.314  1.00  0.00    -0.176 A  
HETATM   14  O   UNL     1      -7.586  13.549  68.340  1.00  0.00    -0.119 OA 
HETATM   15  C   UNL     1      -9.688  14.481  68.682  1.00  0.00    -0.221 A  
BRANCH   9  16
HETATM   16  C   UNL     1      -8.747  10.910  67.523  1.00  0.00    -0.130 C  
HETATM   17  C   UNL     1      -8.703  10.833  66.018  1.00  0.00    -0.190 C  
HETATM   18  C   UNL     1      -9.260   9.859  65.289  1.00  0.00    -0.280 C  
HETATM   19  C   UNL     1      -9.983   8.706  65.913  1.00  0.00     0.044 C  
HETATM   20  C   UNL     1      -9.260   9.902  63.786  1.00  0.00    -0.289 C  
HETATM   21  C   UNL     1      -9.811   8.483  67.418  1.00  0.00    -0.244 C  
HETATM   22  C   UNL     1      -9.163   9.598  68.272  1.00  0.00    -0.131 C  
BRANCH  22  23
HETATM   23  C   UNL     1      -8.038   9.057  69.172  1.00  0.00    -0.109 C  
HETATM   24  C   UNL     1      -6.788   8.906  68.698  1.00  0.00    -0.063 C  
HETATM   25  C   UNL     1      -8.340   8.713  70.603  1.00  0.00    -0.157 C  
ENDBRANCH  22  23
ENDBRANCH   9  16
ENDBRANCH   5   6
ENDBRANCH   4   5
ENDBRANCH   3   4
ENDBRANCH   2   3
TORSDOF 6
ENDMDL
MODEL      110
REMARK 921   NORMALIZED FREE ENERGY PREDICTED BY IDOCK:   -4.24 KCAL/MOL
REMARK 922        TOTAL FREE ENERGY PREDICTED BY IDOCK:   -6.66 KCAL/MOL
REMARK 923 INTER-LIGAND FREE ENERGY PREDICTED BY IDOCK:   -5.51 KCAL/MOL
REMARK 924 INTRA-LIGAND FREE ENERGY PREDICTED BY IDOCK:   -1.15 KCAL/MOL
REMARK 927      BINDING AFFINITY PREDICTED BY RF-SCORE:    0.00 PKD
ROOT
HETATM    1  C   UNL     1     -12.823  12.022  63.464  1.00  0.00    -0.472 C  
HETATM    2  C   UNL     1     -11.755  13.103  63.495  1.00  0.00    -0.472 C  
ENDROOT
BRANCH   2   3
HETATM    3  C   UNL     1     -12.278  14.380  64.153  1.00  0.00    -0.393 C  
BRANCH   3   4
HETATM    4  C   UNL     1     -11.357  14.827  65.281  1.00  0.00    -0.363 C  
BRANCH   4   5
HETATM    5  C   UNL     1     -11.908  14.419  66.648  1.00  0.00    -0.417 C  
BRANCH   5   6
HETATM    6  C   UNL     1     -11.211  13.181  67.159  1.00  0.00    -0.326 A  
HETATM    7  C   UNL     1     -11.841  12.353  68.087  1.00  0.00    -0.372 A  
HETATM    8  C   UNL     1     -11.175  11.244  68.613  1.00  0.00    -0.250 A  
HETATM    9  C   UNL     1      -9.845  10.937  68.266  1.00  0.00    -0.179 A  
HETATM   10  O   UNL     1     -11.860  10.451  69.493  1.00  0.00    -0.412 OA 
HETATM   11  H   UNL     1      -7.578  12.131  66.151  1.00  0.00     0.000 HD 
HETATM   12  H   UNL     1     -11.406   9.696  69.850  1.00  0.00     0.000 HD 
HETATM   13  C   UNL     1      -9.247  11.762  67.294  1.00  0.00    -0.173 A  
HETATM   14  O   UNL     1      -7.981  11.575  66.806  1.00  0.00    -0.156 OA 
HETATM   15  C   UNL     1      -9.920  12.856  66.741  1.00  0.00    -0.243 A  
BRANCH   9  16
HETATM   16  C   UNL     1      -9.122   9.719  68.865  1.00  0.00    -0.148 C  
HETATM   17  C   UNL     1      -8.061  10.189  69.827  1.00  0.00    -0.167 C  
HETATM   18  C   UNL     1      -6.746  10.013  69.653  1.00  0.00    -0.068 C  
HETATM   19  C   UNL     1      -6.183   9.294  68.466  1.00  0.00    -0.049 C  
HETATM   20  C   UNL     1      -5.741  10.596  70.609  1.00  0.00    -0.111 C  
HETATM   21  C   UNL     1      -7.148   8.481  67.599  1.00  0.00    -0.080 C  
HETATM   22  C   UNL     1      -8.671   8.670  67.792  1.00  0.00    -0.137 C  
BRANCH  22  23
HETATM   23  C   UNL     1      -9.405   7.326  67.945  1.00  0.00    -0.131 C  
HETATM   24  C   UNL     1      -9.997   6.738  66.891  1.00  0.00    -0.252 C  
HETATM   25  C   UNL     1      -9.441   6.656  69.290  1.00  0.00    -0.141 C  
ENDBRANCH  22  23
ENDBRANCH   9  16
ENDBRANCH   5   6
ENDBRANCH   4   5
ENDBRANCH   3   4
ENDBRANCH   2   3
TORSDOF 6
ENDMDL
MODEL      111
REMARK 921   NORMALIZED FREE ENERGY PREDICTED BY IDOCK:   -4.23 KCAL/MOL
REMARK 922        TOTAL FREE ENERGY PREDICTED BY IDOCK:   -6.65 KCAL/MOL
REMARK 923 INTER-LIGAND FREE ENERGY PREDICTED BY IDOCK:   -7.32 KCAL/MOL
REMARK 924 INTRA-LIGAND FREE ENERGY PREDICTED BY IDOCK:    0.67 KCAL/MOL
REMARK 927      BINDING AFFINITY PREDICTED BY RF-SCORE:    0.00 PKD
ROOT
HETATM    1  C   UNL     1      -7.800   9.744  66.784  1.00  0.00    -0.102 C  
HETATM    2  C   UNL     1      -9.188  10.099  66.282  1.00  0.00    -0.191 C  
ENDROOT
BRANCH   2   3
HETATM    3  C   UNL     1      -9.769  11.285  67.052  1.00  0.00    -0.208 C  
BRANCH   3   4
HETATM    4  C   UNL     1     -11.288  11.322  66.928  1.00  0.00    -0.231 C  
BRANCH   4   5
HETATM    5  C   UNL     1     -11.737  12.291  65.834  1.00  0.00    -0.451 C  
BRANCH   5   6
HETATM    6  C   UNL     1     -11.000  13.604  65.946  1.00  0.00    -0.284 A  
HETATM    7  C   UNL     1     -10.039  13.789  66.940  1.00  0.00    -0.260 A  
HETATM    8  C   UNL     1      -9.404  15.023  67.090  1.00  0.00    -0.215 A  
HETATM    9  C   UNL     1      -9.724  16.132  66.283  1.00  0.00    -0.332 A  
HETATM   10  O   UNL     1      -8.446  15.130  68.061  1.00  0.00    -0.143 OA 
HETATM   11  H   UNL     1     -11.685  16.708  63.662  1.00  0.00     0.000 HD 
HETATM   12  H   UNL     1      -8.014  15.970  68.162  1.00  0.00     0.000 HD 
HETATM   13  C   UNL     1     -10.664  15.908  65.258  1.00  0.00    -0.424 A  
HETATM   14  O   UNL     1     -11.051  16.860  64.353  1.00  0.00    -1.128 OA 
HETATM   15  C   UNL     1     -11.282  14.665  65.083  1.00  0.00    -0.374 A  
BRANCH   9  16
HETATM   16  C   UNL     1      -9.024  17.488  66.469  1.00  0.00    -0.284 C  
HETATM   17  C   UNL     1      -7.549  17.331  66.204  1.00  0.00    -0.318 C  
HETATM   18  C   UNL     1      -6.589  17.491  67.124  1.00  0.00    -0.194 C  
HETATM   19  C   UNL     1      -6.892  17.875  68.539  1.00  0.00    -0.236 C  
HETATM   20  C   UNL     1      -5.144  17.222  66.809  1.00  0.00    -0.195 C  
HETATM   21  C   UNL     1      -8.300  18.391  68.855  1.00  0.00    -0.177 C  
HETATM   22  C   UNL     1      -9.416  18.217  67.800  1.00  0.00    -0.269 C  
BRANCH  22  23
HETATM   23  C   UNL     1     -10.179  19.529  67.543  1.00  0.00    -0.546 C  
HETATM   24  C   UNL     1     -10.517  20.341  68.559  1.00  0.00    -0.177 C  
HETATM   25  C   UNL     1     -10.529  19.913  66.133  1.00  0.00    -0.581 C  
ENDBRANCH  22  23
ENDBRANCH   9  16
ENDBRANCH   5   6
ENDBRANCH   4   5
ENDBRANCH   3   4
ENDBRANCH   2   3
TORSDOF 6
ENDMDL
MODEL      112
REMARK 921   NORMALIZED FREE ENERGY PREDICTED BY IDOCK:   -4.22 KCAL/MOL
REMARK 922        TOTAL FREE ENERGY PREDICTED BY IDOCK:   -6.63 KCAL/MOL
REMARK 923 INTER-LIGAND FREE ENERGY PREDICTED BY IDOCK:   -5.39 KCAL/MOL
REMARK 924 INTRA-LIGAND FREE ENERGY PREDICTED BY IDOCK:   -1.24 KCAL/MOL
REMARK 927      BINDING AFFINITY PREDICTED BY RF-SCORE:    0.00 PKD
ROOT
HETATM    1  C   UNL     1     -14.084   7.506  71.690  1.00  0.00    -0.562 C  
HETATM    2  C   UNL     1     -13.886   8.948  72.124  1.00  0.00    -0.531 C  
ENDROOT
BRANCH   2   3
HETATM    3  C   UNL     1     -13.651   9.862  70.921  1.00  0.00    -0.084 C  
BRANCH   3   4
HETATM    4  C   UNL     1     -12.478  10.801  71.172  1.00  0.00    -0.519 C  
BRANCH   4   5
HETATM    5  C   UNL     1     -11.259  10.410  70.336  1.00  0.00    -0.399 C  
BRANCH   5   6
HETATM    6  C   UNL     1     -10.741   9.052  70.746  1.00  0.00    -0.301 A  
HETATM    7  C   UNL     1     -10.222   8.855  72.025  1.00  0.00    -0.363 A  
HETATM    8  C   UNL     1      -9.680   7.620  72.386  1.00  0.00    -0.178 A  
HETATM    9  C   UNL     1      -9.600   6.544  71.480  1.00  0.00    -0.169 A  
HETATM   10  O   UNL     1      -9.219   7.479  73.667  1.00  0.00    -0.222 OA 
HETATM   11  H   UNL     1     -10.612   5.943  68.373  1.00  0.00     0.000 HD 
HETATM   12  H   UNL     1      -8.851   6.638  73.912  1.00  0.00     0.000 HD 
HETATM   13  C   UNL     1     -10.172   6.754  70.211  1.00  0.00    -0.195 A  
HETATM   14  O   UNL     1     -10.226   5.801  69.229  1.00  0.00    -0.184 OA 
HETATM   15  C   UNL     1     -10.743   7.980  69.853  1.00  0.00    -0.242 A  
BRANCH   9  16
HETATM   16  C   UNL     1      -8.990   5.195  71.891  1.00  0.00    -0.147 C  
HETATM   17  C   UNL     1      -7.653   5.023  71.216  1.00  0.00    -0.090 C  
HETATM   18  C   UNL     1      -7.378   4.083  70.303  1.00  0.00    -0.042 C  
HETATM   19  C   UNL     1      -8.389   3.069  69.866  1.00  0.00    -0.080 C  
HETATM   20  C   UNL     1      -6.049   4.035  69.600  1.00  0.00    -0.023 C  
HETATM   21  C   UNL     1      -9.660   2.918  70.708  1.00  0.00    -0.195 C  
HETATM   22  C   UNL     1      -9.989   3.993  71.769  1.00  0.00    -0.240 C  
BRANCH  22  23
HETATM   23  C   UNL     1     -10.322   3.371  73.137  1.00  0.00    -0.244 C  
HETATM   24  C   UNL     1     -11.022   4.059  74.056  1.00  0.00    -0.240 C  
HETATM   25  C   UNL     1      -9.874   1.969  73.437  1.00  0.00    -0.141 C  
ENDBRANCH  22  23
ENDBRANCH   9  16
ENDBRANCH   5   6
ENDBRANCH   4   5
ENDBRANCH   3   4
ENDBRANCH   2   3
TORSDOF 6
ENDMDL
MODEL      113
REMARK 921   NORMALIZED FREE ENERGY PREDICTED BY IDOCK:   -4.22 KCAL/MOL
REMARK 922        TOTAL FREE ENERGY PREDICTED BY IDOCK:   -6.63 KCAL/MOL
REMARK 923 INTER-LIGAND FREE ENERGY PREDICTED BY IDOCK:   -5.94 KCAL/MOL
REMARK 924 INTRA-LIGAND FREE ENERGY PREDICTED BY IDOCK:   -0.69 KCAL/MOL
REMARK 927      BINDING AFFINITY PREDICTED BY RF-SCORE:    0.00 PKD
ROOT
HETATM    1  C   UNL     1      -6.297   7.007  72.099  1.00  0.00    -0.045 C  
HETATM    2  C   UNL     1      -6.981   7.556  73.339  1.00  0.00    -0.081 C  
ENDROOT
BRANCH   2   3
HETATM    3  C   UNL     1      -8.446   7.124  73.400  1.00  0.00    -0.157 C  
BRANCH   3   4
HETATM    4  C   UNL     1      -9.373   8.328  73.285  1.00  0.00    -0.244 C  
BRANCH   4   5
HETATM    5  C   UNL     1     -10.453   8.104  72.226  1.00  0.00    -0.371 C  
BRANCH   5   6
HETATM    6  C   UNL     1     -10.255   9.034  71.053  1.00  0.00    -0.347 A  
HETATM    7  C   UNL     1     -11.354   9.489  70.325  1.00  0.00    -0.284 A  
HETATM    8  C   UNL     1     -11.171  10.295  69.199  1.00  0.00    -0.215 A  
HETATM    9  C   UNL     1      -9.890  10.649  68.732  1.00  0.00    -0.196 A  
HETATM   10  O   UNL     1     -12.290  10.738  68.548  1.00  0.00    -0.825 OA 
HETATM   11  H   UNL     1      -6.758  10.218  69.755  1.00  0.00     0.000 HD 
HETATM   12  H   UNL     1     -12.166  11.287  67.782  1.00  0.00     0.000 HD 
HETATM   13  C   UNL     1      -8.800  10.214  69.510  1.00  0.00    -0.182 A  
HETATM   14  O   UNL     1      -7.493  10.511  69.230  1.00  0.00    -0.097 OA 
HETATM   15  C   UNL     1      -8.978   9.432  70.656  1.00  0.00    -0.285 A  
BRANCH   9  16
HETATM   16  C   UNL     1      -9.707  11.527  67.484  1.00  0.00    -0.189 C  
HETATM   17  C   UNL     1     -10.213  12.917  67.769  1.00  0.00    -0.224 C  
HETATM   18  C   UNL     1     -11.264  13.483  67.163  1.00  0.00    -0.324 C  
HETATM   19  C   UNL     1     -12.048  12.782  66.098  1.00  0.00    -0.429 C  
HETATM   20  C   UNL     1     -11.771  14.839  67.571  1.00  0.00    -0.370 C  
HETATM   21  C   UNL     1     -11.444  11.518  65.480  1.00  0.00    -0.074 C  
HETATM   22  C   UNL     1     -10.226  10.856  66.166  1.00  0.00    -0.304 C  
BRANCH  22  23
HETATM   23  C   UNL     1      -9.088  10.567  65.170  1.00  0.00    -0.227 C  
HETATM   24  C   UNL     1      -9.337  10.440  63.855  1.00  0.00    -0.322 C  
HETATM   25  C   UNL     1      -7.680  10.445  65.679  1.00  0.00    -0.150 C  
ENDBRANCH  22  23
ENDBRANCH   9  16
ENDBRANCH   5   6
ENDBRANCH   4   5
ENDBRANCH   3   4
ENDBRANCH   2   3
TORSDOF 6
ENDMDL
MODEL      114
REMARK 921   NORMALIZED FREE ENERGY PREDICTED BY IDOCK:   -4.22 KCAL/MOL
REMARK 922        TOTAL FREE ENERGY PREDICTED BY IDOCK:   -6.63 KCAL/MOL
REMARK 923 INTER-LIGAND FREE ENERGY PREDICTED BY IDOCK:   -5.67 KCAL/MOL
REMARK 924 INTRA-LIGAND FREE ENERGY PREDICTED BY IDOCK:   -0.96 KCAL/MOL
REMARK 927      BINDING AFFINITY PREDICTED BY RF-SCORE:    0.00 PKD
ROOT
HETATM    1  C   UNL     1     -12.560  15.142  71.174  1.00  0.00    -0.433 C  
HETATM    2  C   UNL     1     -12.400  13.643  70.983  1.00  0.00    -0.436 C  
ENDROOT
BRANCH   2   3
HETATM    3  C   UNL     1     -11.845  13.318  69.596  1.00  0.00    -0.391 C  
BRANCH   3   4
HETATM    4  C   UNL     1     -11.766  11.811  69.382  1.00  0.00    -0.405 C  
BRANCH   4   5
HETATM    5  C   UNL     1     -12.482  11.049  70.498  1.00  0.00    -0.432 C  
BRANCH   5   6
HETATM    6  C   UNL     1     -11.749   9.772  70.830  1.00  0.00    -0.407 A  
HETATM    7  C   UNL     1     -11.683   9.323  72.149  1.00  0.00    -0.217 A  
HETATM    8  C   UNL     1     -10.950   8.179  72.470  1.00  0.00    -0.369 A  
HETATM    9  C   UNL     1     -10.225   7.458  71.501  1.00  0.00    -0.205 A  
HETATM   10  O   UNL     1     -10.953   7.769  73.776  1.00  0.00    -0.405 OA 
HETATM   11  H   UNL     1      -9.830   7.595  68.204  1.00  0.00     0.000 HD 
HETATM   12  H   UNL     1     -10.454   6.991  73.994  1.00  0.00     0.000 HD 
HETATM   13  C   UNL     1     -10.345   7.905  70.171  1.00  0.00    -0.215 A  
HETATM   14  O   UNL     1      -9.749   7.293  69.101  1.00  0.00    -0.158 OA 
HETATM   15  C   UNL     1     -11.102   9.033  69.838  1.00  0.00    -0.155 A  
BRANCH   9  16
HETATM   16  C   UNL     1      -9.413   6.207  71.874  1.00  0.00    -0.160 C  
HETATM   17  C   UNL     1      -7.943   6.496  71.711  1.00  0.00    -0.104 C  
HETATM   18  C   UNL     1      -7.145   5.899  70.817  1.00  0.00    -0.071 C  
HETATM   19  C   UNL     1      -7.641   4.840  69.882  1.00  0.00    -0.055 C  
HETATM   20  C   UNL     1      -5.709   6.310  70.646  1.00  0.00    -0.019 C  
HETATM   21  C   UNL     1      -9.011   4.218  70.168  1.00  0.00    -0.144 C  
HETATM   22  C   UNL     1      -9.941   4.894  71.201  1.00  0.00    -0.278 C  
BRANCH  22  23
HETATM   23  C   UNL     1     -10.488   3.890  72.232  1.00  0.00    -0.102 C  
HETATM   24  C   UNL     1     -10.075   2.611  72.235  1.00  0.00    -0.230 C  
HETATM   25  C   UNL     1     -11.481   4.356  73.258  1.00  0.00    -0.282 C  
ENDBRANCH  22  23
ENDBRANCH   9  16
ENDBRANCH   5   6
ENDBRANCH   4   5
ENDBRANCH   3   4
ENDBRANCH   2   3
TORSDOF 6
ENDMDL
MODEL      115
REMARK 921   NORMALIZED FREE ENERGY PREDICTED BY IDOCK:   -4.21 KCAL/MOL
REMARK 922        TOTAL FREE ENERGY PREDICTED BY IDOCK:   -6.62 KCAL/MOL
REMARK 923 INTER-LIGAND FREE ENERGY PREDICTED BY IDOCK:   -5.95 KCAL/MOL
REMARK 924 INTRA-LIGAND FREE ENERGY PREDICTED BY IDOCK:   -0.67 KCAL/MOL
REMARK 927      BINDING AFFINITY PREDICTED BY RF-SCORE:    0.00 PKD
ROOT
HETATM    1  C   UNL     1     -11.949  12.528  64.694  1.00  0.00    -0.468 C  
HETATM    2  C   UNL     1     -12.322  13.513  65.788  1.00  0.00    -0.516 C  
ENDROOT
BRANCH   2   3
HETATM    3  C   UNL     1     -11.530  13.245  67.068  1.00  0.00    -0.378 C  
BRANCH   3   4
HETATM    4  C   UNL     1     -11.439  11.750  67.348  1.00  0.00    -0.375 C  
BRANCH   4   5
HETATM    5  C   UNL     1     -12.139  11.382  68.656  1.00  0.00    -0.214 C  
BRANCH   5   6
HETATM    6  C   UNL     1     -11.284  10.449  69.478  1.00  0.00    -0.325 A  
HETATM    7  C   UNL     1     -10.041  10.032  69.002  1.00  0.00    -0.211 A  
HETATM    8  C   UNL     1      -9.276   9.117  69.728  1.00  0.00    -0.171 A  
HETATM    9  C   UNL     1      -9.731   8.553  70.936  1.00  0.00    -0.231 A  
HETATM   10  O   UNL     1      -8.050   8.775  69.225  1.00  0.00    -0.106 OA 
HETATM   11  H   UNL     1     -12.367   8.938  72.923  1.00  0.00     0.000 HD 
HETATM   12  H   UNL     1      -7.530   8.152  69.719  1.00  0.00     0.000 HD 
HETATM   13  C   UNL     1     -10.968   9.024  71.417  1.00  0.00    -0.324 A  
HETATM   14  O   UNL     1     -11.533   8.620  72.598  1.00  0.00    -0.301 OA 
HETATM   15  C   UNL     1     -11.725   9.963  70.710  1.00  0.00    -0.424 A  
BRANCH   9  16
HETATM   16  C   UNL     1      -8.881   7.537  71.716  1.00  0.00    -0.131 C  
HETATM   17  C   UNL     1      -9.688   6.287  71.955  1.00  0.00    -0.164 C  
HETATM   18  C   UNL     1     -10.070   5.847  73.160  1.00  0.00    -0.199 C  
HETATM   19  C   UNL     1      -9.706   6.561  74.426  1.00  0.00    -0.328 C  
HETATM   20  C   UNL     1     -10.958   4.644  73.314  1.00  0.00    -0.381 C  
HETATM   21  C   UNL     1      -8.620   7.638  74.352  1.00  0.00    -0.237 C  
HETATM   22  C   UNL     1      -8.164   8.151  72.967  1.00  0.00    -0.248 C  
BRANCH  22  23
HETATM   23  C   UNL     1      -6.632   8.144  72.823  1.00  0.00    -0.093 C  
HETATM   24  C   UNL     1      -6.035   8.727  71.769  1.00  0.00    -0.061 C  
HETATM   25  C   UNL     1      -5.795   7.492  73.888  1.00  0.00    -0.063 C  
ENDBRANCH  22  23
ENDBRANCH   9  16
ENDBRANCH   5   6
ENDBRANCH   4   5
ENDBRANCH   3   4
ENDBRANCH   2   3
TORSDOF 6
ENDMDL
MODEL      116
REMARK 921   NORMALIZED FREE ENERGY PREDICTED BY IDOCK:   -4.19 KCAL/MOL
REMARK 922        TOTAL FREE ENERGY PREDICTED BY IDOCK:   -6.59 KCAL/MOL
REMARK 923 INTER-LIGAND FREE ENERGY PREDICTED BY IDOCK:   -5.27 KCAL/MOL
REMARK 924 INTRA-LIGAND FREE ENERGY PREDICTED BY IDOCK:   -1.32 KCAL/MOL
REMARK 927      BINDING AFFINITY PREDICTED BY RF-SCORE:    0.00 PKD
ROOT
HETATM    1  C   UNL     1     -13.799   7.405  71.608  1.00  0.00    -0.490 C  
HETATM    2  C   UNL     1     -13.960   8.755  72.284  1.00  0.00    -0.511 C  
ENDROOT
BRANCH   2   3
HETATM    3  C   UNL     1     -13.880   9.896  71.269  1.00  0.00    -0.050 C  
BRANCH   3   4
HETATM    4  C   UNL     1     -12.799  10.897  71.659  1.00  0.00    -0.554 C  
BRANCH   4   5
HETATM    5  C   UNL     1     -11.728  11.014  70.575  1.00  0.00    -0.416 C  
BRANCH   5   6
HETATM    6  C   UNL     1     -11.030   9.692  70.365  1.00  0.00    -0.356 A  
HETATM    7  C   UNL     1     -10.365   9.073  71.423  1.00  0.00    -0.396 A  
HETATM    8  C   UNL     1      -9.661   7.885  71.218  1.00  0.00    -0.157 A  
HETATM    9  C   UNL     1      -9.560   7.285  69.947  1.00  0.00    -0.163 A  
HETATM   10  O   UNL     1      -9.059   7.308  72.303  1.00  0.00    -0.131 OA 
HETATM   11  H   UNL     1     -10.814   7.846  66.921  1.00  0.00     0.000 HD 
HETATM   12  H   UNL     1      -8.581   6.499  72.163  1.00  0.00     0.000 HD 
HETATM   13  C   UNL     1     -10.278   7.905  68.906  1.00  0.00    -0.205 A  
HETATM   14  O   UNL     1     -10.330   7.428  67.623  1.00  0.00    -0.195 OA 
HETATM   15  C   UNL     1     -11.009   9.079  69.112  1.00  0.00    -0.025 A  
BRANCH   9  16
HETATM   16  C   UNL     1      -8.771   5.983  69.736  1.00  0.00    -0.130 C  
HETATM   17  C   UNL     1      -7.618   6.241  68.801  1.00  0.00    -0.092 C  
HETATM   18  C   UNL     1      -7.491   5.700  67.583  1.00  0.00    -0.077 C  
HETATM   19  C   UNL     1      -8.497   4.742  67.023  1.00  0.00    -0.105 C  
HETATM   20  C   UNL     1      -6.362   6.081  66.667  1.00  0.00    -0.045 C  
HETATM   21  C   UNL     1      -9.524   4.139  67.986  1.00  0.00    -0.215 C  
HETATM   22  C   UNL     1      -9.678   4.750  69.398  1.00  0.00    -0.266 C  
BRANCH  22  23
HETATM   23  C   UNL     1      -9.638   3.676  70.500  1.00  0.00    -0.256 C  
HETATM   24  C   UNL     1      -9.960   3.978  71.770  1.00  0.00    -0.240 C  
HETATM   25  C   UNL     1      -9.252   2.269  70.143  1.00  0.00    -0.189 C  
ENDBRANCH  22  23
ENDBRANCH   9  16
ENDBRANCH   5   6
ENDBRANCH   4   5
ENDBRANCH   3   4
ENDBRANCH   2   3
TORSDOF 6
ENDMDL
MODEL      117
REMARK 921   NORMALIZED FREE ENERGY PREDICTED BY IDOCK:   -4.19 KCAL/MOL
REMARK 922        TOTAL FREE ENERGY PREDICTED BY IDOCK:   -6.58 KCAL/MOL
REMARK 923 INTER-LIGAND FREE ENERGY PREDICTED BY IDOCK:   -7.01 KCAL/MOL
REMARK 924 INTRA-LIGAND FREE ENERGY PREDICTED BY IDOCK:    0.43 KCAL/MOL
REMARK 927      BINDING AFFINITY PREDICTED BY RF-SCORE:    0.00 PKD
ROOT
HETATM    1  C   UNL     1     -12.266  15.041  74.168  1.00  0.00    -0.604 C  
HETATM    2  C   UNL     1     -12.940  15.967  73.169  1.00  0.00    -0.653 C  
ENDROOT
BRANCH   2   3
HETATM    3  C   UNL     1     -14.269  15.386  72.686  1.00  0.00    -0.381 C  
BRANCH   3   4
HETATM    4  C   UNL     1     -14.274  15.227  71.170  1.00  0.00    -0.410 C  
BRANCH   4   5
HETATM    5  C   UNL     1     -12.905  15.549  70.570  1.00  0.00    -0.402 C  
BRANCH   5   6
HETATM    6  C   UNL     1     -12.218  14.291  70.096  1.00  0.00    -0.407 A  
HETATM    7  C   UNL     1     -11.278  14.348  69.067  1.00  0.00    -0.288 A  
HETATM    8  C   UNL     1     -10.690  13.179  68.581  1.00  0.00    -0.250 A  
HETATM    9  C   UNL     1     -11.039  11.906  69.071  1.00  0.00    -0.300 A  
HETATM   10  O   UNL     1      -9.749  13.305  67.595  1.00  0.00    -0.209 OA 
HETATM   11  H   UNL     1     -12.984  10.714  71.488  1.00  0.00     0.000 HD 
HETATM   12  H   UNL     1      -9.349  12.509  67.264  1.00  0.00     0.000 HD 
HETATM   13  C   UNL     1     -11.956  11.878  70.139  1.00  0.00    -0.332 A  
HETATM   14  O   UNL     1     -12.366  10.732  70.767  1.00  0.00    -0.317 OA 
HETATM   15  C   UNL     1     -12.526  13.048  70.652  1.00  0.00    -0.347 A  
BRANCH   9  16
HETATM   16  C   UNL     1     -10.391  10.628  68.515  1.00  0.00    -0.202 C  
HETATM   17  C   UNL     1      -9.973   9.739  69.658  1.00  0.00    -0.244 C  
HETATM   18  C   UNL     1      -8.706   9.423  69.952  1.00  0.00    -0.209 C  
HETATM   19  C   UNL     1      -7.548   9.917  69.141  1.00  0.00    -0.090 C  
HETATM   20  C   UNL     1      -8.360   8.610  71.168  1.00  0.00    -0.201 C  
HETATM   21  C   UNL     1      -7.847  10.538  67.773  1.00  0.00    -0.104 C  
HETATM   22  C   UNL     1      -9.306  10.903  67.417  1.00  0.00    -0.166 C  
BRANCH  22  23
HETATM   23  C   UNL     1      -9.719  10.356  66.039  1.00  0.00    -0.265 C  
HETATM   24  C   UNL     1     -10.287  11.157  65.121  1.00  0.00    -0.354 C  
HETATM   25  C   UNL     1      -9.464   8.912  65.714  1.00  0.00    -0.272 C  
ENDBRANCH  22  23
ENDBRANCH   9  16
ENDBRANCH   5   6
ENDBRANCH   4   5
ENDBRANCH   3   4
ENDBRANCH   2   3
TORSDOF 6
ENDMDL
MODEL      118
REMARK 921   NORMALIZED FREE ENERGY PREDICTED BY IDOCK:   -4.18 KCAL/MOL
REMARK 922        TOTAL FREE ENERGY PREDICTED BY IDOCK:   -6.58 KCAL/MOL
REMARK 923 INTER-LIGAND FREE ENERGY PREDICTED BY IDOCK:   -5.72 KCAL/MOL
REMARK 924 INTRA-LIGAND FREE ENERGY PREDICTED BY IDOCK:   -0.86 KCAL/MOL
REMARK 927      BINDING AFFINITY PREDICTED BY RF-SCORE:    0.00 PKD
ROOT
HETATM    1  C   UNL     1     -13.976  13.790  72.310  1.00  0.00    -0.672 C  
HETATM    2  C   UNL     1     -13.122  14.260  71.145  1.00  0.00    -0.412 C  
ENDROOT
BRANCH   2   3
HETATM    3  C   UNL     1     -12.241  13.130  70.613  1.00  0.00    -0.402 C  
BRANCH   3   4
HETATM    4  C   UNL     1     -12.546  11.820  71.328  1.00  0.00    -0.401 C  
BRANCH   4   5
HETATM    5  C   UNL     1     -12.700  10.664  70.339  1.00  0.00    -0.340 C  
BRANCH   5   6
HETATM    6  C   UNL     1     -11.785   9.520  70.704  1.00  0.00    -0.330 A  
HETATM    7  C   UNL     1     -10.985   8.923  69.730  1.00  0.00    -0.164 A  
HETATM    8  C   UNL     1     -10.188   7.821  70.049  1.00  0.00    -0.210 A  
HETATM    9  C   UNL     1     -10.182   7.248  71.336  1.00  0.00    -0.199 A  
HETATM   10  O   UNL     1      -9.398   7.302  69.059  1.00  0.00    -0.148 OA 
HETATM   11  H   UNL     1     -11.561   7.943  74.278  1.00  0.00     0.000 HD 
HETATM   12  H   UNL     1      -8.856   6.553  69.276  1.00  0.00     0.000 HD 
HETATM   13  C   UNL     1     -10.964   7.897  72.311  1.00  0.00    -0.300 A  
HETATM   14  O   UNL     1     -11.034   7.505  73.621  1.00  0.00    -0.322 OA 
HETATM   15  C   UNL     1     -11.741   9.020  72.006  1.00  0.00    -0.417 A  
BRANCH   9  16
HETATM   16  C   UNL     1      -9.308   6.028  71.666  1.00  0.00    -0.160 C  
HETATM   17  C   UNL     1     -10.191   4.855  72.003  1.00  0.00    -0.263 C  
HETATM   18  C   UNL     1     -10.250   4.268  73.204  1.00  0.00    -0.219 C  
HETATM   19  C   UNL     1      -9.406   4.716  74.357  1.00  0.00    -0.129 C  
HETATM   20  C   UNL     1     -11.228   3.163  73.494  1.00  0.00    -0.286 C  
HETATM   21  C   UNL     1      -8.237   5.660  74.063  1.00  0.00    -0.109 C  
HETATM   22  C   UNL     1      -8.153   6.341  72.677  1.00  0.00    -0.106 C  
BRANCH  22  23
HETATM   23  C   UNL     1      -6.761   6.186  72.040  1.00  0.00    -0.064 C  
HETATM   24  C   UNL     1      -6.152   4.988  71.995  1.00  0.00    -0.025 C  
HETATM   25  C   UNL     1      -6.086   7.389  71.444  1.00  0.00    -0.036 C  
ENDBRANCH  22  23
ENDBRANCH   9  16
ENDBRANCH   5   6
ENDBRANCH   4   5
ENDBRANCH   3   4
ENDBRANCH   2   3
TORSDOF 6
ENDMDL
MODEL      119
REMARK 921   NORMALIZED FREE ENERGY PREDICTED BY IDOCK:   -4.18 KCAL/MOL
REMARK 922        TOTAL FREE ENERGY PREDICTED BY IDOCK:   -6.58 KCAL/MOL
REMARK 923 INTER-LIGAND FREE ENERGY PREDICTED BY IDOCK:   -5.92 KCAL/MOL
REMARK 924 INTRA-LIGAND FREE ENERGY PREDICTED BY IDOCK:   -0.66 KCAL/MOL
REMARK 927      BINDING AFFINITY PREDICTED BY RF-SCORE:    0.00 PKD
ROOT
HETATM    1  C   UNL     1      -7.870  19.782  66.473  1.00  0.00    -0.318 C  
HETATM    2  C   UNL     1      -9.337  19.927  66.104  1.00  0.00    -0.442 C  
ENDROOT
BRANCH   2   3
HETATM    3  C   UNL     1     -10.219  19.987  67.351  1.00  0.00    -0.546 C  
BRANCH   3   4
HETATM    4  C   UNL     1     -10.839  18.626  67.645  1.00  0.00    -0.347 C  
BRANCH   4   5
HETATM    5  C   UNL     1     -10.148  17.939  68.823  1.00  0.00    -0.384 C  
BRANCH   5   6
HETATM    6  C   UNL     1      -9.857  16.492  68.504  1.00  0.00    -0.243 A  
HETATM    7  C   UNL     1     -10.827  15.699  67.892  1.00  0.00    -0.306 A  
HETATM    8  C   UNL     1     -10.587  14.343  67.657  1.00  0.00    -0.260 A  
HETATM    9  C   UNL     1      -9.389  13.716  68.052  1.00  0.00    -0.208 A  
HETATM   10  O   UNL     1     -11.564  13.627  67.022  1.00  0.00    -0.323 OA 
HETATM   11  H   UNL     1      -6.510  14.675  69.407  1.00  0.00     0.000 HD 
HETATM   12  H   UNL     1     -11.400  12.705  66.861  1.00  0.00     0.000 HD 
HETATM   13  C   UNL     1      -8.409  14.548  68.626  1.00  0.00    -0.164 A  
HETATM   14  O   UNL     1      -7.171  14.114  69.020  1.00  0.00    -0.116 OA 
HETATM   15  C   UNL     1      -8.632  15.913  68.837  1.00  0.00    -0.221 A  
BRANCH   9  16
HETATM   16  C   UNL     1      -9.146  12.220  67.796  1.00  0.00    -0.191 C  
HETATM   17  C   UNL     1      -8.923  11.993  66.323  1.00  0.00    -0.129 C  
HETATM   18  C   UNL     1      -9.738  11.287  65.530  1.00  0.00    -0.268 C  
HETATM   19  C   UNL     1     -10.973  10.616  66.045  1.00  0.00     0.050 C  
HETATM   20  C   UNL     1      -9.502  11.186  64.049  1.00  0.00    -0.241 C  
HETATM   21  C   UNL     1     -11.135  10.482  67.563  1.00  0.00    -0.358 C  
HETATM   22  C   UNL     1     -10.197  11.288  68.491  1.00  0.00    -0.214 C  
BRANCH  22  23
HETATM   23  C   UNL     1      -9.563  10.404  69.580  1.00  0.00    -0.182 C  
HETATM   24  C   UNL     1     -10.329   9.697  70.429  1.00  0.00    -0.350 C  
HETATM   25  C   UNL     1      -8.066  10.318  69.679  1.00  0.00    -0.157 C  
ENDBRANCH  22  23
ENDBRANCH   9  16
ENDBRANCH   5   6
ENDBRANCH   4   5
ENDBRANCH   3   4
ENDBRANCH   2   3
TORSDOF 6
ENDMDL
MODEL      120
REMARK 921   NORMALIZED FREE ENERGY PREDICTED BY IDOCK:   -4.16 KCAL/MOL
REMARK 922        TOTAL FREE ENERGY PREDICTED BY IDOCK:   -6.55 KCAL/MOL
REMARK 923 INTER-LIGAND FREE ENERGY PREDICTED BY IDOCK:   -5.88 KCAL/MOL
REMARK 924 INTRA-LIGAND FREE ENERGY PREDICTED BY IDOCK:   -0.67 KCAL/MOL
REMARK 927      BINDING AFFINITY PREDICTED BY RF-SCORE:    0.00 PKD
ROOT
HETATM    1  C   UNL     1      -7.489   6.286  65.387  1.00  0.00    -0.083 C  
HETATM    2  C   UNL     1      -7.431   7.762  65.739  1.00  0.00    -0.078 C  
ENDROOT
BRANCH   2   3
HETATM    3  C   UNL     1      -8.771   8.449  65.469  1.00  0.00    -0.196 C  
BRANCH   3   4
HETATM    4  C   UNL     1      -8.574   9.729  64.667  1.00  0.00    -0.199 C  
BRANCH   4   5
HETATM    5  C   UNL     1      -9.912  10.368  64.295  1.00  0.00    -0.368 C  
BRANCH   5   6
HETATM    6  C   UNL     1     -10.201  11.559  65.177  1.00  0.00    -0.322 A  
HETATM    7  C   UNL     1     -11.469  12.139  65.181  1.00  0.00    -0.376 A  
HETATM    8  C   UNL     1     -11.722  13.281  65.943  1.00  0.00    -0.365 A  
HETATM    9  C   UNL     1     -10.717  13.912  66.702  1.00  0.00    -0.281 A  
HETATM   10  O   UNL     1     -12.995  13.782  65.932  1.00  0.00    -0.407 OA 
HETATM   11  H   UNL     1      -7.537  13.304  67.451  1.00  0.00     0.000 HD 
HETATM   12  H   UNL     1     -13.167  14.559  66.451  1.00  0.00     0.000 HD 
HETATM   13  C   UNL     1      -9.458  13.281  66.717  1.00  0.00    -0.257 A  
HETATM   14  O   UNL     1      -8.385  13.730  67.441  1.00  0.00    -0.174 OA 
HETATM   15  C   UNL     1      -9.206  12.119  65.979  1.00  0.00    -0.119 A  
BRANCH   9  16
HETATM   16  C   UNL     1     -11.009  15.176  67.526  1.00  0.00    -0.310 C  
HETATM   17  C   UNL     1     -10.641  16.396  66.721  1.00  0.00    -0.238 C  
HETATM   18  C   UNL     1      -9.664  17.253  67.042  1.00  0.00    -0.267 C  
HETATM   19  C   UNL     1      -8.832  17.093  68.277  1.00  0.00    -0.245 C  
HETATM   20  C   UNL     1      -9.290  18.394  66.138  1.00  0.00    -0.147 C  
HETATM   21  C   UNL     1      -9.317  16.106  69.343  1.00  0.00    -0.186 C  
HETATM   22  C   UNL     1     -10.449  15.114  68.988  1.00  0.00    -0.248 C  
BRANCH  22  23
HETATM   23  C   UNL     1     -11.569  15.113  70.043  1.00  0.00    -0.326 C  
HETATM   24  C   UNL     1     -12.624  14.288  69.930  1.00  0.00    -0.214 C  
HETATM   25  C   UNL     1     -11.468  16.037  71.224  1.00  0.00    -0.475 C  
ENDBRANCH  22  23
ENDBRANCH   9  16
ENDBRANCH   5   6
ENDBRANCH   4   5
ENDBRANCH   3   4
ENDBRANCH   2   3
TORSDOF 6
ENDMDL
MODEL      121
REMARK 921   NORMALIZED FREE ENERGY PREDICTED BY IDOCK:   -4.13 KCAL/MOL
REMARK 922        TOTAL FREE ENERGY PREDICTED BY IDOCK:   -6.51 KCAL/MOL
REMARK 923 INTER-LIGAND FREE ENERGY PREDICTED BY IDOCK:   -5.50 KCAL/MOL
REMARK 924 INTRA-LIGAND FREE ENERGY PREDICTED BY IDOCK:   -1.02 KCAL/MOL
REMARK 927      BINDING AFFINITY PREDICTED BY RF-SCORE:    0.00 PKD
ROOT
HETATM    1  C   UNL     1     -10.063   5.513  70.902  1.00  0.00    -0.276 C  
HETATM    2  C   UNL     1     -11.070   5.352  72.028  1.00  0.00    -0.204 C  
ENDROOT
BRANCH   2   3
HETATM    3  C   UNL     1     -11.391   6.697  72.680  1.00  0.00    -0.262 C  
BRANCH   3   4
HETATM    4  C   UNL     1     -12.438   7.456  71.873  1.00  0.00    -0.334 C  
BRANCH   4   5
HETATM    5  C   UNL     1     -12.322   8.965  72.086  1.00  0.00    -0.449 C  
BRANCH   5   6
HETATM    6  C   UNL     1     -11.537   9.606  70.967  1.00  0.00    -0.436 A  
HETATM    7  C   UNL     1     -12.190  10.360  69.992  1.00  0.00    -0.262 A  
HETATM    8  C   UNL     1     -11.477  10.897  68.918  1.00  0.00    -0.300 A  
HETATM    9  C   UNL     1     -10.096  10.677  68.752  1.00  0.00    -0.203 A  
HETATM   10  O   UNL     1     -12.169  11.657  68.014  1.00  0.00    -0.551 OA 
HETATM   11  H   UNL     1      -7.674   9.201  70.483  1.00  0.00     0.000 HD 
HETATM   12  H   UNL     1     -11.684  12.023  67.284  1.00  0.00     0.000 HD 
HETATM   13  C   UNL     1      -9.452   9.951  69.772  1.00  0.00    -0.226 A  
HETATM   14  O   UNL     1      -8.108   9.690  69.794  1.00  0.00    -0.119 OA 
HETATM   15  C   UNL     1     -10.155   9.436  70.866  1.00  0.00    -0.366 A  
BRANCH   9  16
HETATM   16  C   UNL     1      -9.329  11.266  67.557  1.00  0.00    -0.166 C  
HETATM   17  C   UNL     1      -8.899  10.152  66.638  1.00  0.00    -0.145 C  
HETATM   18  C   UNL     1      -7.627   9.812  66.398  1.00  0.00    -0.099 C  
HETATM   19  C   UNL     1      -6.473  10.537  67.018  1.00  0.00    -0.076 C  
HETATM   20  C   UNL     1      -7.278   8.624  65.544  1.00  0.00    -0.084 C  
HETATM   21  C   UNL     1      -6.754  11.884  67.692  1.00  0.00    -0.105 C  
HETATM   22  C   UNL     1      -8.219  12.292  67.970  1.00  0.00    -0.163 C  
BRANCH  22  23
HETATM   23  C   UNL     1      -8.526  13.716  67.474  1.00  0.00    -0.190 C  
HETATM   24  C   UNL     1      -7.604  14.690  67.557  1.00  0.00    -0.215 C  
HETATM   25  C   UNL     1      -9.870  14.011  66.870  1.00  0.00    -0.267 C  
ENDBRANCH  22  23
ENDBRANCH   9  16
ENDBRANCH   5   6
ENDBRANCH   4   5
ENDBRANCH   3   4
ENDBRANCH   2   3
TORSDOF 6
ENDMDL
MODEL      122
REMARK 921   NORMALIZED FREE ENERGY PREDICTED BY IDOCK:   -4.13 KCAL/MOL
REMARK 922        TOTAL FREE ENERGY PREDICTED BY IDOCK:   -6.51 KCAL/MOL
REMARK 923 INTER-LIGAND FREE ENERGY PREDICTED BY IDOCK:   -6.74 KCAL/MOL
REMARK 924 INTRA-LIGAND FREE ENERGY PREDICTED BY IDOCK:    0.24 KCAL/MOL
REMARK 927      BINDING AFFINITY PREDICTED BY RF-SCORE:    0.00 PKD
ROOT
HETATM    1  C   UNL     1     -12.164  16.686  73.648  1.00  0.00    -0.395 C  
HETATM    2  C   UNL     1     -13.424  15.907  73.308  1.00  0.00    -0.599 C  
ENDROOT
BRANCH   2   3
HETATM    3  C   UNL     1     -13.159  14.401  73.302  1.00  0.00    -0.352 C  
BRANCH   3   4
HETATM    4  C   UNL     1     -14.017  13.703  72.254  1.00  0.00    -0.661 C  
BRANCH   4   5
HETATM    5  C   UNL     1     -13.381  12.390  71.795  1.00  0.00    -0.368 C  
BRANCH   5   6
HETATM    6  C   UNL     1     -12.489  12.615  70.598  1.00  0.00    -0.323 A  
HETATM    7  C   UNL     1     -11.819  11.543  70.010  1.00  0.00    -0.435 A  
HETATM    8  C   UNL     1     -10.941  11.757  68.945  1.00  0.00    -0.239 A  
HETATM    9  C   UNL     1     -10.667  13.046  68.448  1.00  0.00    -0.273 A  
HETATM   10  O   UNL     1     -10.341  10.660  68.388  1.00  0.00    -0.162 OA 
HETATM   11  H   UNL     1     -11.773  16.126  69.024  1.00  0.00     0.000 HD 
HETATM   12  H   UNL     1      -9.744  10.806  67.664  1.00  0.00     0.000 HD 
HETATM   13  C   UNL     1     -11.390  14.106  69.029  1.00  0.00    -0.275 A  
HETATM   14  O   UNL     1     -11.285  15.412  68.632  1.00  0.00    -0.272 OA 
HETATM   15  C   UNL     1     -12.294  13.895  70.076  1.00  0.00    -0.378 A  
BRANCH   9  16
HETATM   16  C   UNL     1      -9.688  13.264  67.283  1.00  0.00    -0.231 C  
HETATM   17  C   UNL     1      -8.349  12.671  67.636  1.00  0.00    -0.174 C  
HETATM   18  C   UNL     1      -7.224  13.377  67.802  1.00  0.00    -0.156 C  
HETATM   19  C   UNL     1      -7.178  14.864  67.628  1.00  0.00    -0.207 C  
HETATM   20  C   UNL     1      -5.945  12.726  68.250  1.00  0.00    -0.075 C  
HETATM   21  C   UNL     1      -8.371  15.541  66.947  1.00  0.00    -0.290 C  
HETATM   22  C   UNL     1      -9.675  14.736  66.744  1.00  0.00    -0.264 C  
BRANCH  22  23
HETATM   23  C   UNL     1     -10.195  14.832  65.298  1.00  0.00    -0.415 C  
HETATM   24  C   UNL     1     -10.378  13.726  64.556  1.00  0.00    -0.311 C  
HETATM   25  C   UNL     1     -10.517  16.181  64.720  1.00  0.00     0.113 C  
ENDBRANCH  22  23
ENDBRANCH   9  16
ENDBRANCH   5   6
ENDBRANCH   4   5
ENDBRANCH   3   4
ENDBRANCH   2   3
TORSDOF 6
ENDMDL
MODEL      123
REMARK 921   NORMALIZED FREE ENERGY PREDICTED BY IDOCK:   -4.12 KCAL/MOL
REMARK 922        TOTAL FREE ENERGY PREDICTED BY IDOCK:   -6.50 KCAL/MOL
REMARK 923 INTER-LIGAND FREE ENERGY PREDICTED BY IDOCK:   -5.20 KCAL/MOL
REMARK 924 INTRA-LIGAND FREE ENERGY PREDICTED BY IDOCK:   -1.30 KCAL/MOL
REMARK 927      BINDING AFFINITY PREDICTED BY RF-SCORE:    0.00 PKD
ROOT
HETATM    1  C   UNL     1     -14.317   7.261  71.556  1.00  0.00    -0.558 C  
HETATM    2  C   UNL     1     -14.401   8.627  72.216  1.00  0.00    -0.486 C  
ENDROOT
BRANCH   2   3
HETATM    3  C   UNL     1     -14.001   9.737  71.244  1.00  0.00     0.022 C  
BRANCH   3   4
HETATM    4  C   UNL     1     -12.754  10.465  71.733  1.00  0.00    -0.525 C  
BRANCH   4   5
HETATM    5  C   UNL     1     -11.586  10.288  70.762  1.00  0.00    -0.446 C  
BRANCH   5   6
HETATM    6  C   UNL     1     -10.887   8.971  70.998  1.00  0.00    -0.345 A  
HETATM    7  C   UNL     1     -10.369   8.248  69.924  1.00  0.00    -0.218 A  
HETATM    8  C   UNL     1      -9.781   6.999  70.131  1.00  0.00    -0.175 A  
HETATM    9  C   UNL     1      -9.719   6.402  71.405  1.00  0.00    -0.187 A  
HETATM   10  O   UNL     1      -9.260   6.355  69.041  1.00  0.00    -0.130 OA 
HETATM   11  H   UNL     1     -10.508   7.285  74.510  1.00  0.00     0.000 HD 
HETATM   12  H   UNL     1      -8.860   5.505  69.182  1.00  0.00     0.000 HD 
HETATM   13  C   UNL     1     -10.208   7.171  72.479  1.00  0.00    -0.194 A  
HETATM   14  O   UNL     1     -10.178   6.766  73.786  1.00  0.00    -0.281 OA 
HETATM   15  C   UNL     1     -10.771   8.437  72.283  1.00  0.00    -0.417 A  
BRANCH   9  16
HETATM   16  C   UNL     1      -9.080   5.020  71.612  1.00  0.00    -0.166 C  
HETATM   17  C   UNL     1     -10.147   4.025  71.988  1.00  0.00    -0.227 C  
HETATM   18  C   UNL     1     -10.222   3.399  73.169  1.00  0.00    -0.231 C  
HETATM   19  C   UNL     1      -9.214   3.615  74.255  1.00  0.00    -0.103 C  
HETATM   20  C   UNL     1     -11.373   2.492  73.508  1.00  0.00    -0.295 C  
HETATM   21  C   UNL     1      -7.909   4.328  73.889  1.00  0.00    -0.085 C  
HETATM   22  C   UNL     1      -7.806   5.050  72.526  1.00  0.00    -0.097 C  
BRANCH  22  23
HETATM   23  C   UNL     1      -6.530   4.660  71.759  1.00  0.00    -0.023 C  
HETATM   24  C   UNL     1      -6.218   5.249  70.592  1.00  0.00    -0.023 C  
HETATM   25  C   UNL     1      -5.613   3.620  72.339  1.00  0.00    -0.007 C  
ENDBRANCH  22  23
ENDBRANCH   9  16
ENDBRANCH   5   6
ENDBRANCH   4   5
ENDBRANCH   3   4
ENDBRANCH   2   3
TORSDOF 6
ENDMDL
MODEL      124
REMARK 921   NORMALIZED FREE ENERGY PREDICTED BY IDOCK:   -4.11 KCAL/MOL
REMARK 922        TOTAL FREE ENERGY PREDICTED BY IDOCK:   -6.48 KCAL/MOL
REMARK 923 INTER-LIGAND FREE ENERGY PREDICTED BY IDOCK:   -5.92 KCAL/MOL
REMARK 924 INTRA-LIGAND FREE ENERGY PREDICTED BY IDOCK:   -0.57 KCAL/MOL
REMARK 927      BINDING AFFINITY PREDICTED BY RF-SCORE:    0.00 PKD
ROOT
HETATM    1  C   UNL     1     -14.340  15.543  72.104  1.00  0.00    -0.598 C  
HETATM    2  C   UNL     1     -13.189  15.150  71.193  1.00  0.00    -0.535 C  
ENDROOT
BRANCH   2   3
HETATM    3  C   UNL     1     -11.934  15.966  71.505  1.00  0.00    -0.537 C  
BRANCH   3   4
HETATM    4  C   UNL     1     -11.133  16.237  70.237  1.00  0.00    -0.340 C  
BRANCH   4   5
HETATM    5  C   UNL     1     -11.773  15.573  69.018  1.00  0.00    -0.392 C  
BRANCH   5   6
HETATM    6  C   UNL     1     -11.058  14.290  68.669  1.00  0.00    -0.273 A  
HETATM    7  C   UNL     1      -9.667  14.267  68.564  1.00  0.00    -0.225 A  
HETATM    8  C   UNL     1      -9.007  13.100  68.175  1.00  0.00    -0.195 A  
HETATM    9  C   UNL     1      -9.703  11.922  67.841  1.00  0.00    -0.192 A  
HETATM   10  O   UNL     1      -7.639  13.132  68.125  1.00  0.00    -0.117 OA 
HETATM   11  H   UNL     1     -12.868  10.912  67.875  1.00  0.00     0.000 HD 
HETATM   12  H   UNL     1      -7.190  12.337  67.860  1.00  0.00     0.000 HD 
HETATM   13  C   UNL     1     -11.101  11.957  67.999  1.00  0.00    -0.240 A  
HETATM   14  O   UNL     1     -11.925  10.888  67.768  1.00  0.00    -0.553 OA 
HETATM   15  C   UNL     1     -11.767  13.114  68.417  1.00  0.00    -0.386 A  
BRANCH   9  16
HETATM   16  C   UNL     1      -8.960  10.649  67.403  1.00  0.00    -0.138 C  
HETATM   17  C   UNL     1      -8.427   9.936  68.619  1.00  0.00    -0.114 C  
HETATM   18  C   UNL     1      -7.128   9.767  68.893  1.00  0.00    -0.067 C  
HETATM   19  C   UNL     1      -6.046  10.262  67.983  1.00  0.00    -0.051 C  
HETATM   20  C   UNL     1      -6.670   9.130  70.176  1.00  0.00    -0.050 C  
HETATM   21  C   UNL     1      -6.443  10.695  66.569  1.00  0.00    -0.106 C  
HETATM   22  C   UNL     1      -7.941  10.889  66.237  1.00  0.00    -0.161 C  
BRANCH  22  23
HETATM   23  C   UNL     1      -8.347  10.155  64.947  1.00  0.00    -0.166 C  
HETATM   24  C   UNL     1      -9.642   9.989  64.625  1.00  0.00    -0.363 C  
HETATM   25  C   UNL     1      -7.278   9.637  64.027  1.00  0.00    -0.118 C  
ENDBRANCH  22  23
ENDBRANCH   9  16
ENDBRANCH   5   6
ENDBRANCH   4   5
ENDBRANCH   3   4
ENDBRANCH   2   3
TORSDOF 6
ENDMDL
MODEL      125
REMARK 921   NORMALIZED FREE ENERGY PREDICTED BY IDOCK:   -4.11 KCAL/MOL
REMARK 922        TOTAL FREE ENERGY PREDICTED BY IDOCK:   -6.48 KCAL/MOL
REMARK 923 INTER-LIGAND FREE ENERGY PREDICTED BY IDOCK:   -5.76 KCAL/MOL
REMARK 924 INTRA-LIGAND FREE ENERGY PREDICTED BY IDOCK:   -0.72 KCAL/MOL
REMARK 927      BINDING AFFINITY PREDICTED BY RF-SCORE:    0.00 PKD
ROOT
HETATM    1  C   UNL     1     -11.002   5.973  70.576  1.00  0.00    -0.388 C  
HETATM    2  C   UNL     1     -11.751   6.499  71.788  1.00  0.00    -0.373 C  
ENDROOT
BRANCH   2   3
HETATM    3  C   UNL     1     -13.120   7.054  71.395  1.00  0.00    -0.375 C  
BRANCH   3   4
HETATM    4  C   UNL     1     -13.198   8.552  71.665  1.00  0.00    -0.371 C  
BRANCH   4   5
HETATM    5  C   UNL     1     -11.835   9.120  72.061  1.00  0.00    -0.407 C  
BRANCH   5   6
HETATM    6  C   UNL     1     -11.198   9.844  70.900  1.00  0.00    -0.433 A  
HETATM    7  C   UNL     1      -9.888   9.551  70.522  1.00  0.00    -0.331 A  
HETATM    8  C   UNL     1      -9.272  10.265  69.492  1.00  0.00    -0.170 A  
HETATM    9  C   UNL     1      -9.919  11.321  68.823  1.00  0.00    -0.203 A  
HETATM   10  O   UNL     1      -7.998   9.905  69.145  1.00  0.00    -0.094 OA 
HETATM   11  H   UNL     1     -12.948  12.687  68.857  1.00  0.00     0.000 HD 
HETATM   12  H   UNL     1      -7.579  10.391  68.444  1.00  0.00     0.000 HD 
HETATM   13  C   UNL     1     -11.256  11.568  69.191  1.00  0.00    -0.274 A  
HETATM   14  O   UNL     1     -12.047  12.522  68.608  1.00  0.00    -0.266 OA 
HETATM   15  C   UNL     1     -11.889  10.836  70.202  1.00  0.00    -0.427 A  
BRANCH   9  16
HETATM   16  C   UNL     1      -9.222  12.105  67.699  1.00  0.00    -0.181 C  
HETATM   17  C   UNL     1      -9.224  11.281  66.437  1.00  0.00    -0.206 C  
HETATM   18  C   UNL     1      -8.127  10.802  65.840  1.00  0.00    -0.148 C  
HETATM   19  C   UNL     1      -6.749  11.061  66.367  1.00  0.00    -0.123 C  
HETATM   20  C   UNL     1      -8.214   9.905  64.636  1.00  0.00    -0.153 C  
HETATM   21  C   UNL     1      -6.584  12.150  67.431  1.00  0.00    -0.147 C  
HETATM   22  C   UNL     1      -7.844  12.717  68.126  1.00  0.00    -0.145 C  
BRANCH  22  23
HETATM   23  C   UNL     1      -7.863  14.256  68.122  1.00  0.00    -0.139 C  
HETATM   24  C   UNL     1      -7.432  14.954  69.187  1.00  0.00    -0.158 C  
HETATM   25  C   UNL     1      -8.352  14.983  66.901  1.00  0.00    -0.247 C  
ENDBRANCH  22  23
ENDBRANCH   9  16
ENDBRANCH   5   6
ENDBRANCH   4   5
ENDBRANCH   3   4
ENDBRANCH   2   3
TORSDOF 6
ENDMDL
MODEL      126
REMARK 921   NORMALIZED FREE ENERGY PREDICTED BY IDOCK:   -4.10 KCAL/MOL
REMARK 922        TOTAL FREE ENERGY PREDICTED BY IDOCK:   -6.47 KCAL/MOL
REMARK 923 INTER-LIGAND FREE ENERGY PREDICTED BY IDOCK:   -5.69 KCAL/MOL
REMARK 924 INTRA-LIGAND FREE ENERGY PREDICTED BY IDOCK:   -0.78 KCAL/MOL
REMARK 927      BINDING AFFINITY PREDICTED BY RF-SCORE:    0.00 PKD
ROOT
HETATM    1  C   UNL     1      -6.730  10.063  62.885  1.00  0.00    -0.127 C  
HETATM    2  C   UNL     1      -8.010   9.751  63.643  1.00  0.00    -0.144 C  
ENDROOT
BRANCH   2   3
HETATM    3  C   UNL     1      -9.231   9.837  62.726  1.00  0.00    -0.247 C  
BRANCH   3   4
HETATM    4  C   UNL     1      -9.869  11.219  62.800  1.00  0.00    -0.241 C  
BRANCH   4   5
HETATM    5  C   UNL     1     -10.693  11.388  64.077  1.00  0.00    -0.450 C  
BRANCH   5   6
HETATM    6  C   UNL     1     -10.110  12.470  64.952  1.00  0.00    -0.249 A  
HETATM    7  C   UNL     1      -9.446  12.138  66.133  1.00  0.00    -0.231 A  
HETATM    8  C   UNL     1      -8.964  13.138  66.979  1.00  0.00    -0.228 A  
HETATM    9  C   UNL     1      -9.155  14.506  66.705  1.00  0.00    -0.283 A  
HETATM   10  O   UNL     1      -8.291  12.747  68.105  1.00  0.00    -0.158 OA 
HETATM   11  H   UNL     1     -10.433  16.301  64.218  1.00  0.00     0.000 HD 
HETATM   12  H   UNL     1      -7.963  13.428  68.680  1.00  0.00     0.000 HD 
HETATM   13  C   UNL     1      -9.787  14.816  65.486  1.00  0.00    -0.301 A  
HETATM   14  O   UNL     1     -10.007  16.092  65.040  1.00  0.00    -0.410 OA 
HETATM   15  C   UNL     1     -10.246  13.819  64.619  1.00  0.00    -0.313 A  
BRANCH   9  16
HETATM   16  C   UNL     1      -8.628  15.595  67.655  1.00  0.00    -0.177 C  
HETATM   17  C   UNL     1      -9.699  16.632  67.871  1.00  0.00    -0.244 C  
HETATM   18  C   UNL     1      -9.612  17.909  67.478  1.00  0.00    -0.269 C  
HETATM   19  C   UNL     1      -8.401  18.453  66.785  1.00  0.00    -0.271 C  
HETATM   20  C   UNL     1     -10.763  18.863  67.641  1.00  0.00    -0.469 C  
HETATM   21  C   UNL     1      -7.124  17.607  66.807  1.00  0.00    -0.239 C  
HETATM   22  C   UNL     1      -7.209  16.133  67.264  1.00  0.00    -0.232 C  
BRANCH  22  23
HETATM   23  C   UNL     1      -6.145  15.794  68.323  1.00  0.00    -0.116 C  
HETATM   24  C   UNL     1      -6.004  16.549  69.426  1.00  0.00    -0.173 C  
HETATM   25  C   UNL     1      -5.267  14.590  68.126  1.00  0.00    -0.118 C  
ENDBRANCH  22  23
ENDBRANCH   9  16
ENDBRANCH   5   6
ENDBRANCH   4   5
ENDBRANCH   3   4
ENDBRANCH   2   3
TORSDOF 6
ENDMDL
MODEL      127
REMARK 921   NORMALIZED FREE ENERGY PREDICTED BY IDOCK:   -4.10 KCAL/MOL
REMARK 922        TOTAL FREE ENERGY PREDICTED BY IDOCK:   -6.47 KCAL/MOL
REMARK 923 INTER-LIGAND FREE ENERGY PREDICTED BY IDOCK:   -5.80 KCAL/MOL
REMARK 924 INTRA-LIGAND FREE ENERGY PREDICTED BY IDOCK:   -0.67 KCAL/MOL
REMARK 927      BINDING AFFINITY PREDICTED BY RF-SCORE:    0.00 PKD
ROOT
HETATM    1  C   UNL     1      -9.287   6.457  68.441  1.00  0.00    -0.121 C  
HETATM    2  C   UNL     1     -10.768   6.758  68.594  1.00  0.00    -0.279 C  
ENDROOT
BRANCH   2   3
HETATM    3  C   UNL     1     -11.303   6.239  69.929  1.00  0.00    -0.504 C  
BRANCH   3   4
HETATM    4  C   UNL     1     -11.115   7.275  71.030  1.00  0.00    -0.281 C  
BRANCH   4   5
HETATM    5  C   UNL     1     -12.438   7.943  71.403  1.00  0.00    -0.330 C  
BRANCH   5   6
HETATM    6  C   UNL     1     -12.343   9.442  71.251  1.00  0.00    -0.422 A  
HETATM    7  C   UNL     1     -11.426  10.001  70.361  1.00  0.00    -0.389 A  
HETATM    8  C   UNL     1     -11.288  11.388  70.267  1.00  0.00    -0.025 A  
HETATM    9  C   UNL     1     -12.028  12.271  71.078  1.00  0.00     0.192 A  
HETATM   10  O   UNL     1     -10.397  11.875  69.350  1.00  0.00    -0.427 OA 
HETATM   11  H   UNL     1     -14.455  11.998  73.330  1.00  0.00     0.000 HD 
HETATM   12  H   UNL     1     -10.303  12.818  69.285  1.00  0.00     0.000 HD 
HETATM   13  C   UNL     1     -12.978  11.683  71.935  1.00  0.00    -0.337 A  
HETATM   14  O   UNL     1     -13.814  12.395  72.753  1.00  0.00    -0.127 OA 
HETATM   15  C   UNL     1     -13.143  10.296  72.012  1.00  0.00    -0.529 A  
BRANCH   9  16
HETATM   16  C   UNL     1     -11.854  13.794  70.969  1.00  0.00    -0.063 C  
HETATM   17  C   UNL     1     -11.793  14.392  72.351  1.00  0.00     0.180 C  
HETATM   18  C   UNL     1     -12.706  15.229  72.858  1.00  0.00    -0.524 C  
HETATM   19  C   UNL     1     -13.898  15.684  72.075  1.00  0.00    -0.521 C  
HETATM   20  C   UNL     1     -12.630  15.708  74.282  1.00  0.00    -0.732 C  
HETATM   21  C   UNL     1     -13.902  15.428  70.565  1.00  0.00     0.261 C  
HETATM   22  C   UNL     1     -12.850  14.467  69.964  1.00  0.00    -0.067 C  
BRANCH  22  23
HETATM   23  C   UNL     1     -12.129  15.085  68.753  1.00  0.00    -0.215 C  
HETATM   24  C   UNL     1     -12.112  14.455  67.565  1.00  0.00    -0.327 C  
HETATM   25  C   UNL     1     -11.454  16.419  68.899  1.00  0.00    -0.216 C  
ENDBRANCH  22  23
ENDBRANCH   9  16
ENDBRANCH   5   6
ENDBRANCH   4   5
ENDBRANCH   3   4
ENDBRANCH   2   3
TORSDOF 6
ENDMDL
MODEL      128
REMARK 921   NORMALIZED FREE ENERGY PREDICTED BY IDOCK:   -4.07 KCAL/MOL
REMARK 922        TOTAL FREE ENERGY PREDICTED BY IDOCK:   -6.43 KCAL/MOL
REMARK 923 INTER-LIGAND FREE ENERGY PREDICTED BY IDOCK:   -5.52 KCAL/MOL
REMARK 924 INTRA-LIGAND FREE ENERGY PREDICTED BY IDOCK:   -0.91 KCAL/MOL
REMARK 927      BINDING AFFINITY PREDICTED BY RF-SCORE:    0.00 PKD
ROOT
HETATM    1  C   UNL     1     -11.668  14.566  64.459  1.00  0.00    -0.421 C  
HETATM    2  C   UNL     1     -12.111  13.167  64.851  1.00  0.00    -0.448 C  
ENDROOT
BRANCH   2   3
HETATM    3  C   UNL     1     -11.670  12.135  63.812  1.00  0.00    -0.576 C  
BRANCH   3   4
HETATM    4  C   UNL     1     -10.699  11.131  64.421  1.00  0.00    -0.388 C  
BRANCH   4   5
HETATM    5  C   UNL     1      -9.867  11.763  65.538  1.00  0.00    -0.262 C  
BRANCH   5   6
HETATM    6  C   UNL     1      -9.783  10.842  66.730  1.00  0.00    -0.221 A  
HETATM    7  C   UNL     1     -10.819  10.803  67.663  1.00  0.00    -0.332 A  
HETATM    8  C   UNL     1     -10.715  10.003  68.803  1.00  0.00    -0.223 A  
HETATM    9  C   UNL     1      -9.564   9.239  69.079  1.00  0.00    -0.159 A  
HETATM   10  O   UNL     1     -11.780   9.982  69.662  1.00  0.00    -0.425 OA 
HETATM   11  H   UNL     1      -6.709   8.552  67.523  1.00  0.00     0.000 HD 
HETATM   12  H   UNL     1     -11.709   9.437  70.437  1.00  0.00     0.000 HD 
HETATM   13  C   UNL     1      -8.552   9.260  68.100  1.00  0.00    -0.125 A  
HETATM   14  O   UNL     1      -7.391   8.538  68.184  1.00  0.00    -0.088 OA 
HETATM   15  C   UNL     1      -8.663  10.036  66.941  1.00  0.00    -0.135 A  
BRANCH   9  16
HETATM   16  C   UNL     1      -9.461   8.373  70.345  1.00  0.00    -0.179 C  
HETATM   17  C   UNL     1      -8.393   8.931  71.249  1.00  0.00    -0.223 C  
HETATM   18  C   UNL     1      -7.256   8.299  71.563  1.00  0.00    -0.087 C  
HETATM   19  C   UNL     1      -6.933   6.930  71.052  1.00  0.00    -0.066 C  
HETATM   20  C   UNL     1      -6.191   8.961  72.394  1.00  0.00    -0.024 C  
HETATM   21  C   UNL     1      -8.064   6.120  70.410  1.00  0.00    -0.112 C  
HETATM   22  C   UNL     1      -9.386   6.836  70.047  1.00  0.00    -0.158 C  
BRANCH  22  23
HETATM   23  C   UNL     1     -10.618   6.079  70.574  1.00  0.00    -0.329 C  
HETATM   24  C   UNL     1     -10.491   4.869  71.146  1.00  0.00    -0.161 C  
HETATM   25  C   UNL     1     -11.975   6.713  70.462  1.00  0.00    -0.377 C  
ENDBRANCH  22  23
ENDBRANCH   9  16
ENDBRANCH   5   6
ENDBRANCH   4   5
ENDBRANCH   3   4
ENDBRANCH   2   3
TORSDOF 6
ENDMDL
MODEL      129
REMARK 921   NORMALIZED FREE ENERGY PREDICTED BY IDOCK:   -4.05 KCAL/MOL
REMARK 922        TOTAL FREE ENERGY PREDICTED BY IDOCK:   -6.40 KCAL/MOL
REMARK 923 INTER-LIGAND FREE ENERGY PREDICTED BY IDOCK:   -5.77 KCAL/MOL
REMARK 924 INTRA-LIGAND FREE ENERGY PREDICTED BY IDOCK:   -0.62 KCAL/MOL
REMARK 927      BINDING AFFINITY PREDICTED BY RF-SCORE:    0.00 PKD
ROOT
HETATM    1  C   UNL     1     -11.570  14.453  68.872  1.00  0.00    -0.340 C  
HETATM    2  C   UNL     1     -11.127  15.603  67.983  1.00  0.00    -0.335 C  
ENDROOT
BRANCH   2   3
HETATM    3  C   UNL     1     -10.103  15.138  66.947  1.00  0.00    -0.256 C  
BRANCH   3   4
HETATM    4  C   UNL     1     -10.188  13.631  66.737  1.00  0.00    -0.268 C  
BRANCH   4   5
HETATM    5  C   UNL     1      -8.818  12.968  66.884  1.00  0.00    -0.184 C  
BRANCH   5   6
HETATM    6  C   UNL     1      -8.923  11.696  67.690  1.00  0.00    -0.166 A  
HETATM    7  C   UNL     1      -9.910  10.756  67.395  1.00  0.00    -0.204 A  
HETATM    8  C   UNL     1     -10.053   9.610  68.180  1.00  0.00    -0.175 A  
HETATM    9  C   UNL     1      -9.247   9.371  69.310  1.00  0.00    -0.159 A  
HETATM   10  O   UNL     1     -11.017   8.709  67.817  1.00  0.00    -0.497 OA 
HETATM   11  H   UNL     1      -6.639  10.842  70.752  1.00  0.00     0.000 HD 
HETATM   12  H   UNL     1     -11.114   7.929  68.351  1.00  0.00     0.000 HD 
HETATM   13  C   UNL     1      -8.229  10.312  69.560  1.00  0.00    -0.155 A  
HETATM   14  O   UNL     1      -7.326  10.207  70.584  1.00  0.00    -0.306 OA 
HETATM   15  C   UNL     1      -8.061  11.447  68.759  1.00  0.00    -0.112 A  
BRANCH   9  16
HETATM   16  C   UNL     1      -9.426   8.110  70.170  1.00  0.00    -0.167 C  
HETATM   17  C   UNL     1      -8.681   6.962  69.539  1.00  0.00    -0.133 C  
HETATM   18  C   UNL     1      -9.259   5.863  69.041  1.00  0.00    -0.132 C  
HETATM   19  C   UNL     1     -10.741   5.648  69.081  1.00  0.00    -0.325 C  
HETATM   20  C   UNL     1      -8.458   4.802  68.337  1.00  0.00    -0.096 C  
HETATM   21  C   UNL     1     -11.572   6.563  69.985  1.00  0.00    -0.455 C  
HETATM   22  C   UNL     1     -10.916   7.834  70.572  1.00  0.00    -0.251 C  
BRANCH  22  23
HETATM   23  C   UNL     1     -11.142   7.953  72.090  1.00  0.00    -0.351 C  
HETATM   24  C   UNL     1     -12.267   8.502  72.579  1.00  0.00    -0.383 C  
HETATM   25  C   UNL     1     -10.096   7.428  73.033  1.00  0.00    -0.323 C  
ENDBRANCH  22  23
ENDBRANCH   9  16
ENDBRANCH   5   6
ENDBRANCH   4   5
ENDBRANCH   3   4
ENDBRANCH   2   3
TORSDOF 6
ENDMDL
MODEL      130
REMARK 921   NORMALIZED FREE ENERGY PREDICTED BY IDOCK:   -4.04 KCAL/MOL
REMARK 922        TOTAL FREE ENERGY PREDICTED BY IDOCK:   -6.39 KCAL/MOL
REMARK 923 INTER-LIGAND FREE ENERGY PREDICTED BY IDOCK:   -5.53 KCAL/MOL
REMARK 924 INTRA-LIGAND FREE ENERGY PREDICTED BY IDOCK:   -0.86 KCAL/MOL
REMARK 927      BINDING AFFINITY PREDICTED BY RF-SCORE:    0.00 PKD
ROOT
HETATM    1  C   UNL     1      -8.764  14.143  68.059  1.00  0.00    -0.177 C  
HETATM    2  C   UNL     1     -10.105  14.817  68.292  1.00  0.00    -0.221 C  
ENDROOT
BRANCH   2   3
HETATM    3  C   UNL     1     -10.730  15.277  66.975  1.00  0.00    -0.313 C  
BRANCH   3   4
HETATM    4  C   UNL     1     -12.137  14.714  66.815  1.00  0.00    -0.223 C  
BRANCH   4   5
HETATM    5  C   UNL     1     -12.195  13.661  65.708  1.00  0.00    -0.503 C  
BRANCH   5   6
HETATM    6  C   UNL     1     -11.437  12.419  66.108  1.00  0.00    -0.430 A  
HETATM    7  C   UNL     1     -11.842  11.676  67.217  1.00  0.00    -0.133 A  
HETATM    8  C   UNL     1     -11.105  10.565  67.631  1.00  0.00    -0.309 A  
HETATM    9  C   UNL     1      -9.918  10.170  66.983  1.00  0.00    -0.249 A  
HETATM   10  O   UNL     1     -11.573   9.857  68.705  1.00  0.00    -0.496 OA 
HETATM   11  H   UNL     1      -8.219  11.128  64.293  1.00  0.00     0.000 HD 
HETATM   12  H   UNL     1     -11.071   9.101  68.986  1.00  0.00     0.000 HD 
HETATM   13  C   UNL     1      -9.556  10.909  65.840  1.00  0.00    -0.216 A  
HETATM   14  O   UNL     1      -8.463  10.630  65.064  1.00  0.00    -0.177 OA 
HETATM   15  C   UNL     1     -10.307  12.005  65.402  1.00  0.00    -0.301 A  
BRANCH   9  16
HETATM   16  C   UNL     1      -9.112   8.952  67.460  1.00  0.00    -0.146 C  
HETATM   17  C   UNL     1      -9.610   7.715  66.759  1.00  0.00    -0.269 C  
HETATM   18  C   UNL     1     -10.211   6.685  67.367  1.00  0.00    -0.243 C  
HETATM   19  C   UNL     1     -10.433   6.648  68.848  1.00  0.00    -0.239 C  
HETATM   20  C   UNL     1     -10.770   5.527  66.588  1.00  0.00    -0.332 C  
HETATM   21  C   UNL     1      -9.683   7.668  69.709  1.00  0.00    -0.171 C  
HETATM   22  C   UNL     1      -8.980   8.860  69.019  1.00  0.00    -0.137 C  
BRANCH  22  23
HETATM   23  C   UNL     1      -7.524   9.025  69.492  1.00  0.00    -0.076 C  
HETATM   24  C   UNL     1      -7.230   9.115  70.801  1.00  0.00    -0.112 C  
HETATM   25  C   UNL     1      -6.420   9.067  68.474  1.00  0.00    -0.054 C  
ENDBRANCH  22  23
ENDBRANCH   9  16
ENDBRANCH   5   6
ENDBRANCH   4   5
ENDBRANCH   3   4
ENDBRANCH   2   3
TORSDOF 6
ENDMDL
MODEL      131
REMARK 921   NORMALIZED FREE ENERGY PREDICTED BY IDOCK:   -4.04 KCAL/MOL
REMARK 922        TOTAL FREE ENERGY PREDICTED BY IDOCK:   -6.39 KCAL/MOL
REMARK 923 INTER-LIGAND FREE ENERGY PREDICTED BY IDOCK:   -5.49 KCAL/MOL
REMARK 924 INTRA-LIGAND FREE ENERGY PREDICTED BY IDOCK:   -0.90 KCAL/MOL
REMARK 927      BINDING AFFINITY PREDICTED BY RF-SCORE:    0.00 PKD
ROOT
HETATM    1  C   UNL     1     -10.906   6.884  68.443  1.00  0.00    -0.238 C  
HETATM    2  C   UNL     1     -11.193   6.193  69.766  1.00  0.00    -0.494 C  
ENDROOT
BRANCH   2   3
HETATM    3  C   UNL     1     -10.237   6.671  70.859  1.00  0.00    -0.219 C  
BRANCH   3   4
HETATM    4  C   UNL     1      -8.961   7.243  70.253  1.00  0.00    -0.151 C  
BRANCH   4   5
HETATM    5  C   UNL     1      -8.773   8.713  70.630  1.00  0.00    -0.188 C  
BRANCH   5   6
HETATM    6  C   UNL     1      -9.124   9.613  69.470  1.00  0.00    -0.209 A  
HETATM    7  C   UNL     1      -8.142   9.996  68.556  1.00  0.00    -0.103 A  
HETATM    8  C   UNL     1      -8.446  10.882  67.521  1.00  0.00    -0.123 A  
HETATM    9  C   UNL     1      -9.727  11.451  67.375  1.00  0.00    -0.196 A  
HETATM   10  O   UNL     1      -7.449  11.191  66.637  1.00  0.00    -0.139 OA 
HETATM   11  H   UNL     1     -12.680  11.130  68.863  1.00  0.00     0.000 HD 
HETATM   12  H   UNL     1      -7.656  11.794  65.932  1.00  0.00     0.000 HD 
HETATM   13  C   UNL     1     -10.711  11.014  68.282  1.00  0.00    -0.196 A  
HETATM   14  O   UNL     1     -12.017  11.425  68.251  1.00  0.00    -0.566 OA 
HETATM   15  C   UNL     1     -10.420  10.103  69.303  1.00  0.00    -0.246 A  
BRANCH   9  16
HETATM   16  C   UNL     1     -10.041  12.434  66.236  1.00  0.00    -0.257 C  
HETATM   17  C   UNL     1     -10.161  13.828  66.796  1.00  0.00    -0.268 C  
HETATM   18  C   UNL     1     -11.287  14.552  66.800  1.00  0.00    -0.358 C  
HETATM   19  C   UNL     1     -12.568  14.044  66.213  1.00  0.00    -0.352 C  
HETATM   20  C   UNL     1     -11.355  15.899  67.466  1.00  0.00    -0.098 C  
HETATM   21  C   UNL     1     -12.503  12.801  65.321  1.00  0.00    -0.528 C  
HETATM   22  C   UNL     1     -11.206  11.959  65.302  1.00  0.00    -0.351 C  
BRANCH  22  23
HETATM   23  C   UNL     1     -10.725  11.670  63.869  1.00  0.00    -0.459 C  
HETATM   24  C   UNL     1      -9.504  11.155  63.641  1.00  0.00    -0.278 C  
HETATM   25  C   UNL     1     -11.643  11.953  62.713  1.00  0.00     0.527 C  
ENDBRANCH  22  23
ENDBRANCH   9  16
ENDBRANCH   5   6
ENDBRANCH   4   5
ENDBRANCH   3   4
ENDBRANCH   2   3
TORSDOF 6
ENDMDL
MODEL      132
REMARK 921   NORMALIZED FREE ENERGY PREDICTED BY IDOCK:   -4.04 KCAL/MOL
REMARK 922        TOTAL FREE ENERGY PREDICTED BY IDOCK:   -6.39 KCAL/MOL
REMARK 923 INTER-LIGAND FREE ENERGY PREDICTED BY IDOCK:   -5.26 KCAL/MOL
REMARK 924 INTRA-LIGAND FREE ENERGY PREDICTED BY IDOCK:   -1.13 KCAL/MOL
REMARK 927      BINDING AFFINITY PREDICTED BY RF-SCORE:    0.00 PKD
ROOT
HETATM    1  C   UNL     1     -10.985  11.841  63.504  1.00  0.00    -0.499 C  
HETATM    2  C   UNL     1     -11.647  12.941  64.316  1.00  0.00    -0.434 C  
ENDROOT
BRANCH   2   3
HETATM    3  C   UNL     1     -10.625  13.982  64.774  1.00  0.00    -0.441 C  
BRANCH   3   4
HETATM    4  C   UNL     1     -10.342  13.847  66.265  1.00  0.00    -0.293 C  
BRANCH   4   5
HETATM    5  C   UNL     1     -11.341  12.909  66.942  1.00  0.00    -0.358 C  
BRANCH   5   6
HETATM    6  C   UNL     1     -10.650  11.667  67.452  1.00  0.00    -0.257 A  
HETATM    7  C   UNL     1      -9.612  11.772  68.378  1.00  0.00    -0.191 A  
HETATM    8  C   UNL     1      -8.925  10.633  68.802  1.00  0.00    -0.172 A  
HETATM    9  C   UNL     1      -9.218   9.351  68.296  1.00  0.00    -0.133 A  
HETATM   10  O   UNL     1      -7.941  10.797  69.738  1.00  0.00    -0.370 OA 
HETATM   11  H   UNL     1     -11.479   8.038  66.245  1.00  0.00     0.000 HD 
HETATM   12  H   UNL     1      -7.474  10.021  70.027  1.00  0.00     0.000 HD 
HETATM   13  C   UNL     1     -10.299   9.266  67.398  1.00  0.00    -0.263 A  
HETATM   14  O   UNL     1     -10.750   8.094  66.851  1.00  0.00    -0.309 OA 
HETATM   15  C   UNL     1     -11.011  10.400  66.992  1.00  0.00    -0.222 A  
BRANCH   9  16
HETATM   16  C   UNL     1      -8.444   8.109  68.765  1.00  0.00    -0.126 C  
HETATM   17  C   UNL     1      -7.598   7.587  67.632  1.00  0.00    -0.113 C  
HETATM   18  C   UNL     1      -7.771   6.401  67.037  1.00  0.00    -0.100 C  
HETATM   19  C   UNL     1      -8.835   5.438  67.465  1.00  0.00    -0.105 C  
HETATM   20  C   UNL     1      -6.949   5.990  65.847  1.00  0.00    -0.062 C  
HETATM   21  C   UNL     1      -9.533   5.692  68.804  1.00  0.00    -0.155 C  
HETATM   22  C   UNL     1      -9.338   7.056  69.505  1.00  0.00    -0.148 C  
BRANCH  22  23
HETATM   23  C   UNL     1      -8.947   6.895  70.985  1.00  0.00    -0.151 C  
HETATM   24  C   UNL     1      -8.556   5.704  71.470  1.00  0.00    -0.132 C  
HETATM   25  C   UNL     1      -8.985   8.093  71.891  1.00  0.00    -0.225 C  
ENDBRANCH  22  23
ENDBRANCH   9  16
ENDBRANCH   5   6
ENDBRANCH   4   5
ENDBRANCH   3   4
ENDBRANCH   2   3
TORSDOF 6
ENDMDL
MODEL      133
REMARK 921   NORMALIZED FREE ENERGY PREDICTED BY IDOCK:   -4.01 KCAL/MOL
REMARK 922        TOTAL FREE ENERGY PREDICTED BY IDOCK:   -6.34 KCAL/MOL
REMARK 923 INTER-LIGAND FREE ENERGY PREDICTED BY IDOCK:   -6.07 KCAL/MOL
REMARK 924 INTRA-LIGAND FREE ENERGY PREDICTED BY IDOCK:   -0.27 KCAL/MOL
REMARK 927      BINDING AFFINITY PREDICTED BY RF-SCORE:    0.00 PKD
ROOT
HETATM    1  C   UNL     1     -13.186  15.044  72.956  1.00  0.00    -0.596 C  
HETATM    2  C   UNL     1     -13.743  15.509  71.621  1.00  0.00    -0.562 C  
ENDROOT
BRANCH   2   3
HETATM    3  C   UNL     1     -12.793  15.161  70.474  1.00  0.00    -0.395 C  
BRANCH   3   4
HETATM    4  C   UNL     1     -12.402  13.689  70.519  1.00  0.00    -0.425 C  
BRANCH   4   5
HETATM    5  C   UNL     1     -12.199  13.121  69.114  1.00  0.00    -0.137 C  
BRANCH   5   6
HETATM    6  C   UNL     1     -11.692  11.700  69.179  1.00  0.00    -0.390 A  
HETATM    7  C   UNL     1     -11.541  11.063  70.411  1.00  0.00    -0.389 A  
HETATM    8  C   UNL     1     -11.010   9.774  70.480  1.00  0.00    -0.321 A  
HETATM    9  C   UNL     1     -10.574   9.082  69.333  1.00  0.00    -0.231 A  
HETATM   10  O   UNL     1     -10.920   9.190  71.714  1.00  0.00    -0.353 OA 
HETATM   11  H   UNL     1     -10.599   9.614  66.053  1.00  0.00     0.000 HD 
HETATM   12  H   UNL     1     -10.558   8.313  71.761  1.00  0.00     0.000 HD 
HETATM   13  C   UNL     1     -10.779   9.728  68.099  1.00  0.00    -0.233 A  
HETATM   14  O   UNL     1     -10.461   9.178  66.885  1.00  0.00    -0.253 OA 
HETATM   15  C   UNL     1     -11.339  11.007  68.020  1.00  0.00    -0.374 A  
BRANCH   9  16
HETATM   16  C   UNL     1      -9.979   7.668  69.429  1.00  0.00    -0.180 C  
HETATM   17  C   UNL     1     -10.929   6.774  70.184  1.00  0.00    -0.340 C  
HETATM   18  C   UNL     1     -10.666   6.215  71.371  1.00  0.00    -0.308 C  
HETATM   19  C   UNL     1      -9.359   6.408  72.075  1.00  0.00    -0.151 C  
HETATM   20  C   UNL     1     -11.702   5.414  72.110  1.00  0.00     0.060 C  
HETATM   21  C   UNL     1      -8.196   7.003  71.275  1.00  0.00    -0.113 C  
HETATM   22  C   UNL     1      -8.485   7.648  69.900  1.00  0.00    -0.137 C  
BRANCH  22  23
HETATM   23  C   UNL     1      -7.535   7.126  68.806  1.00  0.00    -0.102 C  
HETATM   24  C   UNL     1      -7.997   6.376  67.791  1.00  0.00    -0.114 C  
HETATM   25  C   UNL     1      -6.076   7.481  68.869  1.00  0.00    -0.031 C  
ENDBRANCH  22  23
ENDBRANCH   9  16
ENDBRANCH   5   6
ENDBRANCH   4   5
ENDBRANCH   3   4
ENDBRANCH   2   3
TORSDOF 6
ENDMDL
MODEL      134
REMARK 921   NORMALIZED FREE ENERGY PREDICTED BY IDOCK:   -4.01 KCAL/MOL
REMARK 922        TOTAL FREE ENERGY PREDICTED BY IDOCK:   -6.34 KCAL/MOL
REMARK 923 INTER-LIGAND FREE ENERGY PREDICTED BY IDOCK:   -5.66 KCAL/MOL
REMARK 924 INTRA-LIGAND FREE ENERGY PREDICTED BY IDOCK:   -0.68 KCAL/MOL
REMARK 927      BINDING AFFINITY PREDICTED BY RF-SCORE:    0.00 PKD
ROOT
HETATM    1  C   UNL     1     -14.336   7.104  71.401  1.00  0.00    -0.417 C  
HETATM    2  C   UNL     1     -13.653   8.236  72.149  1.00  0.00    -0.313 C  
ENDROOT
BRANCH   2   3
HETATM    3  C   UNL     1     -13.602   9.508  71.301  1.00  0.00    -0.298 C  
BRANCH   3   4
HETATM    4  C   UNL     1     -13.095  10.688  72.122  1.00  0.00    -0.382 C  
BRANCH   4   5
HETATM    5  C   UNL     1     -12.464  11.758  71.232  1.00  0.00    -0.351 C  
BRANCH   5   6
HETATM    6  C   UNL     1     -11.672  11.126  70.113  1.00  0.00    -0.439 A  
HETATM    7  C   UNL     1     -11.921  11.483  68.787  1.00  0.00    -0.335 A  
HETATM    8  C   UNL     1     -11.238  10.853  67.745  1.00  0.00    -0.317 A  
HETATM    9  C   UNL     1     -10.309   9.819  67.976  1.00  0.00    -0.250 A  
HETATM   10  O   UNL     1     -11.501  11.272  66.469  1.00  0.00    -0.335 OA 
HETATM   11  H   UNL     1      -8.954   8.359  70.636  1.00  0.00     0.000 HD 
HETATM   12  H   UNL     1     -11.036  10.843  65.761  1.00  0.00     0.000 HD 
HETATM   13  C   UNL     1     -10.043   9.509  69.324  1.00  0.00    -0.198 A  
HETATM   14  O   UNL     1      -9.134   8.568  69.727  1.00  0.00    -0.149 OA 
HETATM   15  C   UNL     1     -10.702  10.158  70.374  1.00  0.00    -0.329 A  
BRANCH   9  16
HETATM   16  C   UNL     1      -9.576   9.127  66.816  1.00  0.00    -0.253 C  
HETATM   17  C   UNL     1     -10.019   7.689  66.729  1.00  0.00    -0.317 C  
HETATM   18  C   UNL     1      -9.225   6.634  66.945  1.00  0.00    -0.158 C  
HETATM   19  C   UNL     1      -7.773   6.780  67.284  1.00  0.00    -0.109 C  
HETATM   20  C   UNL     1      -9.762   5.230  66.936  1.00  0.00    -0.170 C  
HETATM   21  C   UNL     1      -7.124   8.151  67.073  1.00  0.00    -0.079 C  
HETATM   22  C   UNL     1      -8.029   9.378  66.816  1.00  0.00    -0.108 C  
BRANCH  22  23
HETATM   23  C   UNL     1      -7.569  10.189  65.591  1.00  0.00    -0.144 C  
HETATM   24  C   UNL     1      -8.455  10.620  64.677  1.00  0.00    -0.088 C  
HETATM   25  C   UNL     1      -6.112  10.517  65.431  1.00  0.00    -0.122 C  
ENDBRANCH  22  23
ENDBRANCH   9  16
ENDBRANCH   5   6
ENDBRANCH   4   5
ENDBRANCH   3   4
ENDBRANCH   2   3
TORSDOF 6
ENDMDL
MODEL      135
REMARK 921   NORMALIZED FREE ENERGY PREDICTED BY IDOCK:   -4.00 KCAL/MOL
REMARK 922        TOTAL FREE ENERGY PREDICTED BY IDOCK:   -6.33 KCAL/MOL
REMARK 923 INTER-LIGAND FREE ENERGY PREDICTED BY IDOCK:   -6.60 KCAL/MOL
REMARK 924 INTRA-LIGAND FREE ENERGY PREDICTED BY IDOCK:    0.26 KCAL/MOL
REMARK 927      BINDING AFFINITY PREDICTED BY RF-SCORE:    0.00 PKD
ROOT
HETATM    1  C   UNL     1     -13.167  14.989  72.960  1.00  0.00    -0.596 C  
HETATM    2  C   UNL     1     -13.590  15.464  71.580  1.00  0.00    -0.604 C  
ENDROOT
BRANCH   2   3
HETATM    3  C   UNL     1     -12.531  15.127  70.530  1.00  0.00    -0.429 C  
BRANCH   3   4
HETATM    4  C   UNL     1     -12.245  13.630  70.507  1.00  0.00    -0.438 C  
BRANCH   4   5
HETATM    5  C   UNL     1     -11.741  13.178  69.136  1.00  0.00    -0.376 C  
BRANCH   5   6
HETATM    6  C   UNL     1     -11.422  11.703  69.142  1.00  0.00    -0.364 A  
HETATM    7  C   UNL     1     -11.113  11.045  67.951  1.00  0.00    -0.347 A  
HETATM    8  C   UNL     1     -10.884   9.668  67.943  1.00  0.00    -0.215 A  
HETATM    9  C   UNL     1     -10.988   8.885  69.109  1.00  0.00     0.000 A  
HETATM   10  O   UNL     1     -10.551   9.088  66.749  1.00  0.00    -0.228 OA 
HETATM   11  H   UNL     1     -11.520   9.448  72.340  1.00  0.00     0.000 HD 
HETATM   12  H   UNL     1     -10.395   8.151  66.743  1.00  0.00     0.000 HD 
HETATM   13  C   UNL     1     -11.256   9.578  70.305  1.00  0.00    -0.261 A  
HETATM   14  O   UNL     1     -11.340   8.980  71.534  1.00  0.00    -0.292 OA 
HETATM   15  C   UNL     1     -11.457  10.962  70.325  1.00  0.00    -0.391 A  
BRANCH   9  16
HETATM   16  C   UNL     1     -10.744   7.367  69.079  1.00  0.00    -0.164 C  
HETATM   17  C   UNL     1     -11.414   6.728  70.267  1.00  0.00    -0.414 C  
HETATM   18  C   UNL     1     -10.768   6.112  71.265  1.00  0.00    -0.310 C  
HETATM   19  C   UNL     1      -9.277   5.975  71.289  1.00  0.00    -0.156 C  
HETATM   20  C   UNL     1     -11.499   5.583  72.468  1.00  0.00    -0.303 C  
HETATM   21  C   UNL     1      -8.510   6.273  69.997  1.00  0.00    -0.134 C  
HETATM   22  C   UNL     1      -9.246   6.979  68.835  1.00  0.00    -0.136 C  
BRANCH  22  23
HETATM   23  C   UNL     1      -9.043   6.249  67.495  1.00  0.00    -0.110 C  
HETATM   24  C   UNL     1     -10.064   5.616  66.892  1.00  0.00    -0.230 C  
HETATM   25  C   UNL     1      -7.687   6.265  66.846  1.00  0.00    -0.100 C  
ENDBRANCH  22  23
ENDBRANCH   9  16
ENDBRANCH   5   6
ENDBRANCH   4   5
ENDBRANCH   3   4
ENDBRANCH   2   3
TORSDOF 6
ENDMDL
MODEL      136
REMARK 921   NORMALIZED FREE ENERGY PREDICTED BY IDOCK:   -3.99 KCAL/MOL
REMARK 922        TOTAL FREE ENERGY PREDICTED BY IDOCK:   -6.32 KCAL/MOL
REMARK 923 INTER-LIGAND FREE ENERGY PREDICTED BY IDOCK:   -5.54 KCAL/MOL
REMARK 924 INTRA-LIGAND FREE ENERGY PREDICTED BY IDOCK:   -0.78 KCAL/MOL
REMARK 927      BINDING AFFINITY PREDICTED BY RF-SCORE:    0.00 PKD
ROOT
HETATM    1  C   UNL     1      -8.031  17.166  66.342  1.00  0.00    -0.346 C  
HETATM    2  C   UNL     1      -8.857  18.424  66.550  1.00  0.00    -0.289 C  
ENDROOT
BRANCH   2   3
HETATM    3  C   UNL     1     -10.288  18.084  66.968  1.00  0.00    -0.377 C  
BRANCH   3   4
HETATM    4  C   UNL     1     -10.316  17.462  68.358  1.00  0.00    -0.379 C  
BRANCH   4   5
HETATM    5  C   UNL     1     -11.467  16.467  68.503  1.00  0.00    -0.209 C  
BRANCH   5   6
HETATM    6  C   UNL     1     -10.980  15.051  68.308  1.00  0.00    -0.274 A  
HETATM    7  C   UNL     1      -9.667  14.709  68.632  1.00  0.00    -0.220 A  
HETATM    8  C   UNL     1      -9.192  13.419  68.390  1.00  0.00    -0.149 A  
HETATM    9  C   UNL     1      -9.991  12.429  67.785  1.00  0.00    -0.205 A  
HETATM   10  O   UNL     1      -7.906  13.136  68.762  1.00  0.00    -0.277 OA 
HETATM   11  H   UNL     1     -13.149  12.172  66.785  1.00  0.00     0.000 HD 
HETATM   12  H   UNL     1      -7.583  12.257  68.598  1.00  0.00     0.000 HD 
HETATM   13  C   UNL     1     -11.325  12.785  67.510  1.00  0.00    -0.312 A  
HETATM   14  O   UNL     1     -12.249  11.931  66.970  1.00  0.00    -0.492 OA 
HETATM   15  C   UNL     1     -11.815  14.068  67.777  1.00  0.00    -0.419 A  
BRANCH   9  16
HETATM   16  C   UNL     1      -9.448  11.016  67.515  1.00  0.00    -0.175 C  
HETATM   17  C   UNL     1      -9.156  10.332  68.825  1.00  0.00    -0.159 C  
HETATM   18  C   UNL     1      -7.936   9.970  69.239  1.00  0.00    -0.130 C  
HETATM   19  C   UNL     1      -6.709  10.195  68.411  1.00  0.00    -0.054 C  
HETATM   20  C   UNL     1      -7.710   9.380  70.604  1.00  0.00    -0.172 C  
HETATM   21  C   UNL     1      -6.900  10.565  66.936  1.00  0.00    -0.091 C  
HETATM   22  C   UNL     1      -8.305  10.979  66.443  1.00  0.00    -0.165 C  
BRANCH  22  23
HETATM   23  C   UNL     1      -8.721  10.215  65.173  1.00  0.00    -0.189 C  
HETATM   24  C   UNL     1      -8.505   8.893  65.062  1.00  0.00    -0.194 C  
HETATM   25  C   UNL     1      -9.395  10.958  64.054  1.00  0.00    -0.266 C  
ENDBRANCH  22  23
ENDBRANCH   9  16
ENDBRANCH   5   6
ENDBRANCH   4   5
ENDBRANCH   3   4
ENDBRANCH   2   3
TORSDOF 6
ENDMDL
MODEL      137
REMARK 921   NORMALIZED FREE ENERGY PREDICTED BY IDOCK:   -3.99 KCAL/MOL
REMARK 922        TOTAL FREE ENERGY PREDICTED BY IDOCK:   -6.32 KCAL/MOL
REMARK 923 INTER-LIGAND FREE ENERGY PREDICTED BY IDOCK:   -5.13 KCAL/MOL
REMARK 924 INTRA-LIGAND FREE ENERGY PREDICTED BY IDOCK:   -1.19 KCAL/MOL
REMARK 927      BINDING AFFINITY PREDICTED BY RF-SCORE:    0.00 PKD
ROOT
HETATM    1  C   UNL     1     -11.369  14.389  68.515  1.00  0.00    -0.307 C  
HETATM    2  C   UNL     1     -11.014  15.536  67.585  1.00  0.00    -0.315 C  
ENDROOT
BRANCH   2   3
HETATM    3  C   UNL     1     -11.106  15.109  66.120  1.00  0.00    -0.311 C  
BRANCH   3   4
HETATM    4  C   UNL     1     -12.309  14.202  65.893  1.00  0.00    -0.486 C  
BRANCH   4   5
HETATM    5  C   UNL     1     -12.058  13.213  64.754  1.00  0.00    -0.459 C  
BRANCH   5   6
HETATM    6  C   UNL     1     -11.122  12.113  65.197  1.00  0.00    -0.369 A  
HETATM    7  C   UNL     1     -10.024  11.767  64.410  1.00  0.00    -0.281 A  
HETATM    8  C   UNL     1      -9.195  10.706  64.782  1.00  0.00    -0.220 A  
HETATM    9  C   UNL     1      -9.446   9.925  65.927  1.00  0.00    -0.272 A  
HETATM   10  O   UNL     1      -8.113  10.439  63.987  1.00  0.00    -0.207 OA 
HETATM   11  H   UNL     1     -11.622   9.978  68.438  1.00  0.00     0.000 HD 
HETATM   12  H   UNL     1      -7.549   9.717  64.240  1.00  0.00     0.000 HD 
HETATM   13  C   UNL     1     -10.534  10.324  66.727  1.00  0.00    -0.214 A  
HETATM   14  O   UNL     1     -10.888   9.709  67.898  1.00  0.00    -0.259 OA 
HETATM   15  C   UNL     1     -11.350  11.404  66.377  1.00  0.00    -0.168 A  
BRANCH   9  16
HETATM   16  C   UNL     1      -8.530   8.753  66.314  1.00  0.00    -0.130 C  
HETATM   17  C   UNL     1      -9.297   7.461  66.206  1.00  0.00    -0.166 C  
HETATM   18  C   UNL     1      -9.595   6.664  67.239  1.00  0.00    -0.157 C  
HETATM   19  C   UNL     1      -9.165   6.974  68.639  1.00  0.00    -0.131 C  
HETATM   20  C   UNL     1     -10.449   5.438  67.068  1.00  0.00    -0.319 C  
HETATM   21  C   UNL     1      -8.105   8.062  68.838  1.00  0.00    -0.124 C  
HETATM   22  C   UNL     1      -7.747   8.986  67.651  1.00  0.00    -0.097 C  
BRANCH  22  23
HETATM   23  C   UNL     1      -6.227   9.079  67.428  1.00  0.00    -0.059 C  
HETATM   24  C   UNL     1      -5.454   7.981  67.477  1.00  0.00    -0.037 C  
HETATM   25  C   UNL     1      -5.607  10.416  67.134  1.00  0.00    -0.041 C  
ENDBRANCH  22  23
ENDBRANCH   9  16
ENDBRANCH   5   6
ENDBRANCH   4   5
ENDBRANCH   3   4
ENDBRANCH   2   3
TORSDOF 6
ENDMDL
MODEL      138
REMARK 921   NORMALIZED FREE ENERGY PREDICTED BY IDOCK:   -3.99 KCAL/MOL
REMARK 922        TOTAL FREE ENERGY PREDICTED BY IDOCK:   -6.31 KCAL/MOL
REMARK 923 INTER-LIGAND FREE ENERGY PREDICTED BY IDOCK:   -5.94 KCAL/MOL
REMARK 924 INTRA-LIGAND FREE ENERGY PREDICTED BY IDOCK:   -0.37 KCAL/MOL
REMARK 927      BINDING AFFINITY PREDICTED BY RF-SCORE:    0.00 PKD
ROOT
HETATM    1  C   UNL     1      -9.006   4.740  63.304  1.00  0.00    -0.080 C  
HETATM    2  C   UNL     1      -7.664   4.608  64.005  1.00  0.00    -0.077 C  
ENDROOT
BRANCH   2   3
HETATM    3  C   UNL     1      -7.691   3.488  65.045  1.00  0.00    -0.081 C  
BRANCH   3   4
HETATM    4  C   UNL     1      -8.003   4.040  66.430  1.00  0.00    -0.097 C  
BRANCH   4   5
HETATM    5  C   UNL     1      -9.149   3.273  67.093  1.00  0.00    -0.200 C  
BRANCH   5   6
HETATM    6  C   UNL     1      -9.640   4.000  68.321  1.00  0.00    -0.188 A  
HETATM    7  C   UNL     1     -10.236   5.256  68.203  1.00  0.00    -0.204 A  
HETATM    8  C   UNL     1     -10.631   5.961  69.342  1.00  0.00    -0.309 A  
HETATM    9  C   UNL     1     -10.416   5.463  70.642  1.00  0.00    -0.329 A  
HETATM   10  O   UNL     1     -11.242   7.171  69.158  1.00  0.00    -0.451 OA 
HETATM   11  H   UNL     1      -9.246   2.653  71.975  1.00  0.00     0.000 HD 
HETATM   12  H   UNL     1     -11.511   7.651  69.933  1.00  0.00     0.000 HD 
HETATM   13  C   UNL     1      -9.854   4.175  70.732  1.00  0.00    -0.178 A  
HETATM   14  O   UNL     1      -9.625   3.522  71.914  1.00  0.00    -0.128 OA 
HETATM   15  C   UNL     1      -9.484   3.451  69.594  1.00  0.00    -0.223 A  
BRANCH   9  16
HETATM   16  C   UNL     1     -10.846   6.259  71.885  1.00  0.00    -0.286 C  
HETATM   17  C   UNL     1     -12.328   6.524  71.823  1.00  0.00    -0.340 C  
HETATM   18  C   UNL     1     -12.880   7.738  71.709  1.00  0.00    -0.352 C  
HETATM   19  C   UNL     1     -12.059   8.989  71.653  1.00  0.00    -0.422 C  
HETATM   20  C   UNL     1     -14.365   7.916  71.554  1.00  0.00    -0.563 C  
HETATM   21  C   UNL     1     -10.581   8.892  72.043  1.00  0.00    -0.388 C  
HETATM   22  C   UNL     1      -9.932   7.496  72.183  1.00  0.00    -0.218 C  
BRANCH  22  23
HETATM   23  C   UNL     1      -9.162   7.347  73.508  1.00  0.00    -0.275 C  
HETATM   24  C   UNL     1      -9.664   6.618  74.520  1.00  0.00    -0.315 C  
HETATM   25  C   UNL     1      -7.823   8.011  73.660  1.00  0.00    -0.234 C  
ENDBRANCH  22  23
ENDBRANCH   9  16
ENDBRANCH   5   6
ENDBRANCH   4   5
ENDBRANCH   3   4
ENDBRANCH   2   3
TORSDOF 6
ENDMDL
MODEL      139
REMARK 921   NORMALIZED FREE ENERGY PREDICTED BY IDOCK:   -3.98 KCAL/MOL
REMARK 922        TOTAL FREE ENERGY PREDICTED BY IDOCK:   -6.31 KCAL/MOL
REMARK 923 INTER-LIGAND FREE ENERGY PREDICTED BY IDOCK:   -5.33 KCAL/MOL
REMARK 924 INTRA-LIGAND FREE ENERGY PREDICTED BY IDOCK:   -0.98 KCAL/MOL
REMARK 927      BINDING AFFINITY PREDICTED BY RF-SCORE:    0.00 PKD
ROOT
HETATM    1  C   UNL     1     -10.416  18.693  66.063  1.00  0.00    -0.456 C  
HETATM    2  C   UNL     1      -9.920  17.758  67.153  1.00  0.00    -0.322 C  
ENDROOT
BRANCH   2   3
HETATM    3  C   UNL     1     -10.471  18.162  68.521  1.00  0.00    -0.267 C  
BRANCH   3   4
HETATM    4  C   UNL     1     -10.541  16.960  69.455  1.00  0.00    -0.239 C  
BRANCH   4   5
HETATM    5  C   UNL     1     -11.642  15.987  69.034  1.00  0.00    -0.350 C  
BRANCH   5   6
HETATM    6  C   UNL     1     -11.070  14.619  68.752  1.00  0.00    -0.274 A  
HETATM    7  C   UNL     1     -11.910  13.508  68.676  1.00  0.00    -0.404 A  
HETATM    8  C   UNL     1     -11.378  12.231  68.483  1.00  0.00    -0.286 A  
HETATM    9  C   UNL     1      -9.991  12.004  68.394  1.00  0.00    -0.209 A  
HETATM   10  O   UNL     1     -12.257  11.187  68.381  1.00  0.00    -0.703 OA 
HETATM   11  H   UNL     1      -7.250  13.881  68.328  1.00  0.00     0.000 HD 
HETATM   12  H   UNL     1     -11.895  10.318  68.250  1.00  0.00     0.000 HD 
HETATM   13  C   UNL     1      -9.168  13.146  68.428  1.00  0.00    -0.141 A  
HETATM   14  O   UNL     1      -7.805  13.110  68.305  1.00  0.00    -0.129 OA 
HETATM   15  C   UNL     1      -9.696  14.431  68.591  1.00  0.00    -0.216 A  
BRANCH   9  16
HETATM   16  C   UNL     1      -9.422  10.590  68.193  1.00  0.00    -0.157 C  
HETATM   17  C   UNL     1      -8.751  10.134  69.463  1.00  0.00    -0.189 C  
HETATM   18  C   UNL     1      -7.441   9.893  69.587  1.00  0.00    -0.122 C  
HETATM   19  C   UNL     1      -6.488  10.035  68.440  1.00  0.00    -0.054 C  
HETATM   20  C   UNL     1      -6.827   9.536  70.912  1.00  0.00    -0.083 C  
HETATM   21  C   UNL     1      -7.078  10.158  67.032  1.00  0.00    -0.090 C  
HETATM   22  C   UNL     1      -8.592  10.431  66.874  1.00  0.00    -0.127 C  
BRANCH  22  23
HETATM   23  C   UNL     1      -9.254   9.459  65.881  1.00  0.00    -0.269 C  
HETATM   24  C   UNL     1     -10.380   8.800  66.207  1.00  0.00    -0.029 C  
HETATM   25  C   UNL     1      -8.641   9.262  64.523  1.00  0.00    -0.217 C  
ENDBRANCH  22  23
ENDBRANCH   9  16
ENDBRANCH   5   6
ENDBRANCH   4   5
ENDBRANCH   3   4
ENDBRANCH   2   3
TORSDOF 6
ENDMDL
MODEL      140
REMARK 921   NORMALIZED FREE ENERGY PREDICTED BY IDOCK:   -3.98 KCAL/MOL
REMARK 922        TOTAL FREE ENERGY PREDICTED BY IDOCK:   -6.30 KCAL/MOL
REMARK 923 INTER-LIGAND FREE ENERGY PREDICTED BY IDOCK:   -5.33 KCAL/MOL
REMARK 924 INTRA-LIGAND FREE ENERGY PREDICTED BY IDOCK:   -0.97 KCAL/MOL
REMARK 927      BINDING AFFINITY PREDICTED BY RF-SCORE:    0.00 PKD
ROOT
HETATM    1  C   UNL     1     -10.460  11.411  63.580  1.00  0.00    -0.477 C  
HETATM    2  C   UNL     1      -9.417  10.484  62.980  1.00  0.00    -0.364 C  
ENDROOT
BRANCH   2   3
HETATM    3  C   UNL     1      -8.827   9.554  64.040  1.00  0.00    -0.243 C  
BRANCH   3   4
HETATM    4  C   UNL     1      -7.608  10.187  64.700  1.00  0.00    -0.135 C  
BRANCH   4   5
HETATM    5  C   UNL     1      -7.729  10.181  66.224  1.00  0.00    -0.110 C  
BRANCH   5   6
HETATM    6  C   UNL     1      -7.967  11.576  66.748  1.00  0.00    -0.152 A  
HETATM    7  C   UNL     1      -6.909  12.321  67.269  1.00  0.00    -0.140 A  
HETATM    8  C   UNL     1      -7.136  13.585  67.816  1.00  0.00    -0.159 A  
HETATM    9  C   UNL     1      -8.427  14.143  67.902  1.00  0.00    -0.167 A  
HETATM   10  O   UNL     1      -6.052  14.281  68.278  1.00  0.00    -0.097 OA 
HETATM   11  H   UNL     1     -11.479  13.298  66.895  1.00  0.00     0.000 HD 
HETATM   12  H   UNL     1      -6.207  15.141  68.651  1.00  0.00     0.000 HD 
HETATM   13  C   UNL     1      -9.471  13.390  67.330  1.00  0.00    -0.222 A  
HETATM   14  O   UNL     1     -10.775  13.805  67.282  1.00  0.00    -0.279 OA 
HETATM   15  C   UNL     1      -9.245  12.137  66.752  1.00  0.00    -0.207 A  
BRANCH   9  16
HETATM   16  C   UNL     1      -8.661  15.531  68.520  1.00  0.00    -0.176 C  
HETATM   17  C   UNL     1      -9.613  15.409  69.681  1.00  0.00    -0.233 C  
HETATM   18  C   UNL     1     -10.837  15.950  69.722  1.00  0.00    -0.328 C  
HETATM   19  C   UNL     1     -11.388  16.770  68.596  1.00  0.00    -0.062 C  
HETATM   20  C   UNL     1     -11.769  15.703  70.876  1.00  0.00    -0.423 C  
HETATM   21  C   UNL     1     -10.412  17.250  67.517  1.00  0.00    -0.356 C  
HETATM   22  C   UNL     1      -8.994  16.638  67.462  1.00  0.00    -0.204 C  
BRANCH  22  23
HETATM   23  C   UNL     1      -7.900  17.719  67.385  1.00  0.00    -0.217 C  
HETATM   24  C   UNL     1      -7.577  18.291  66.213  1.00  0.00    -0.291 C  
HETATM   25  C   UNL     1      -7.202  18.150  68.644  1.00  0.00    -0.288 C  
ENDBRANCH  22  23
ENDBRANCH   9  16
ENDBRANCH   5   6
ENDBRANCH   4   5
ENDBRANCH   3   4
ENDBRANCH   2   3
TORSDOF 6
ENDMDL
MODEL      141
REMARK 921   NORMALIZED FREE ENERGY PREDICTED BY IDOCK:   -3.95 KCAL/MOL
REMARK 922        TOTAL FREE ENERGY PREDICTED BY IDOCK:   -6.26 KCAL/MOL
REMARK 923 INTER-LIGAND FREE ENERGY PREDICTED BY IDOCK:   -5.72 KCAL/MOL
REMARK 924 INTRA-LIGAND FREE ENERGY PREDICTED BY IDOCK:   -0.54 KCAL/MOL
REMARK 927      BINDING AFFINITY PREDICTED BY RF-SCORE:    0.00 PKD
ROOT
HETATM    1  C   UNL     1     -10.673  10.988  67.895  1.00  0.00    -0.263 C  
HETATM    2  C   UNL     1     -11.208  11.689  69.132  1.00  0.00    -0.325 C  
ENDROOT
BRANCH   2   3
HETATM    3  C   UNL     1     -12.407  10.942  69.716  1.00  0.00    -0.326 C  
BRANCH   3   4
HETATM    4  C   UNL     1     -12.111  10.458  71.130  1.00  0.00    -0.487 C  
BRANCH   4   5
HETATM    5  C   UNL     1     -12.890   9.185  71.461  1.00  0.00    -0.412 C  
BRANCH   5   6
HETATM    6  C   UNL     1     -11.951   8.026  71.696  1.00  0.00    -0.336 A  
HETATM    7  C   UNL     1     -11.662   7.136  70.662  1.00  0.00    -0.348 A  
HETATM    8  C   UNL     1     -10.847   6.026  70.892  1.00  0.00    -0.285 A  
HETATM    9  C   UNL     1     -10.320   5.736  72.166  1.00  0.00    -0.249 A  
HETATM   10  O   UNL     1     -10.572   5.210  69.829  1.00  0.00    -0.272 OA 
HETATM   11  H   UNL     1     -10.295   7.205  75.146  1.00  0.00     0.000 HD 
HETATM   12  H   UNL     1     -10.018   4.454  69.986  1.00  0.00     0.000 HD 
HETATM   13  C   UNL     1     -10.590   6.673  73.181  1.00  0.00    -0.273 A  
HETATM   14  O   UNL     1     -10.113   6.573  74.461  1.00  0.00    -0.344 OA 
HETATM   15  C   UNL     1     -11.380   7.804  72.950  1.00  0.00    -0.406 A  
BRANCH   9  16
HETATM   16  C   UNL     1      -9.435   4.501  72.404  1.00  0.00    -0.176 C  
HETATM   17  C   UNL     1      -8.083   4.725  71.779  1.00  0.00    -0.108 C  
HETATM   18  C   UNL     1      -7.592   4.019  70.753  1.00  0.00    -0.047 C  
HETATM   19  C   UNL     1      -8.349   2.891  70.123  1.00  0.00    -0.077 C  
HETATM   20  C   UNL     1      -6.274   4.365  70.118  1.00  0.00    -0.022 C  
HETATM   21  C   UNL     1      -9.570   2.344  70.868  1.00  0.00    -0.188 C  
HETATM   22  C   UNL     1     -10.144   3.147  72.058  1.00  0.00    -0.178 C  
BRANCH  22  23
HETATM   23  C   UNL     1     -10.356   2.265  73.302  1.00  0.00    -0.212 C  
HETATM   24  C   UNL     1     -11.590   1.883  73.674  1.00  0.00    -0.308 C  
HETATM   25  C   UNL     1      -9.163   1.812  74.095  1.00  0.00    -0.075 C  
ENDBRANCH  22  23
ENDBRANCH   9  16
ENDBRANCH   5   6
ENDBRANCH   4   5
ENDBRANCH   3   4
ENDBRANCH   2   3
TORSDOF 6
ENDMDL
MODEL      142
REMARK 921   NORMALIZED FREE ENERGY PREDICTED BY IDOCK:   -3.94 KCAL/MOL
REMARK 922        TOTAL FREE ENERGY PREDICTED BY IDOCK:   -6.26 KCAL/MOL
REMARK 923 INTER-LIGAND FREE ENERGY PREDICTED BY IDOCK:   -5.39 KCAL/MOL
REMARK 924 INTRA-LIGAND FREE ENERGY PREDICTED BY IDOCK:   -0.86 KCAL/MOL
REMARK 927      BINDING AFFINITY PREDICTED BY RF-SCORE:    0.00 PKD
ROOT
HETATM    1  C   UNL     1      -6.158  19.898  64.737  1.00  0.00    -0.306 C  
HETATM    2  C   UNL     1      -6.201  20.714  66.018  1.00  0.00    -0.266 C  
ENDROOT
BRANCH   2   3
HETATM    3  C   UNL     1      -6.505  19.830  67.228  1.00  0.00    -0.216 C  
BRANCH   3   4
HETATM    4  C   UNL     1      -7.136  18.513  66.794  1.00  0.00    -0.231 C  
BRANCH   4   5
HETATM    5  C   UNL     1      -6.495  17.323  67.507  1.00  0.00    -0.161 C  
BRANCH   5   6
HETATM    6  C   UNL     1      -7.276  16.057  67.247  1.00  0.00    -0.241 A  
HETATM    7  C   UNL     1      -8.482  16.107  66.549  1.00  0.00    -0.346 A  
HETATM    8  C   UNL     1      -9.241  14.949  66.365  1.00  0.00    -0.284 A  
HETATM    9  C   UNL     1      -8.850  13.705  66.897  1.00  0.00    -0.201 A  
HETATM   10  O   UNL     1     -10.397  15.057  65.641  1.00  0.00    -0.303 OA 
HETATM   11  H   UNL     1      -6.215  12.517  68.536  1.00  0.00     0.000 HD 
HETATM   12  H   UNL     1     -10.913  14.269  65.515  1.00  0.00     0.000 HD 
HETATM   13  C   UNL     1      -7.607  13.673  67.558  1.00  0.00    -0.170 A  
HETATM   14  O   UNL     1      -7.053  12.539  68.091  1.00  0.00    -0.084 OA 
HETATM   15  C   UNL     1      -6.827  14.823  67.720  1.00  0.00    -0.195 A  
BRANCH   9  16
HETATM   16  C   UNL     1      -9.704  12.443  66.695  1.00  0.00    -0.229 C  
HETATM   17  C   UNL     1     -10.140  11.913  68.036  1.00  0.00    -0.199 C  
HETATM   18  C   UNL     1      -9.763  10.735  68.548  1.00  0.00    -0.184 C  
HETATM   19  C   UNL     1      -8.864   9.792  67.809  1.00  0.00    -0.129 C  
HETATM   20  C   UNL     1     -10.160  10.315  69.936  1.00  0.00    -0.219 C  
HETATM   21  C   UNL     1      -8.626  10.050  66.318  1.00  0.00    -0.137 C  
HETATM   22  C   UNL     1      -9.062  11.404  65.713  1.00  0.00    -0.195 C  
BRANCH  22  23
HETATM   23  C   UNL     1      -9.893  11.224  64.430  1.00  0.00    -0.316 C  
HETATM   24  C   UNL     1      -9.458  10.437  63.431  1.00  0.00    -0.356 C  
HETATM   25  C   UNL     1     -11.217  11.923  64.307  1.00  0.00    -0.424 C  
ENDBRANCH  22  23
ENDBRANCH   9  16
ENDBRANCH   5   6
ENDBRANCH   4   5
ENDBRANCH   3   4
ENDBRANCH   2   3
TORSDOF 6
ENDMDL
MODEL      143
REMARK 921   NORMALIZED FREE ENERGY PREDICTED BY IDOCK:   -3.94 KCAL/MOL
REMARK 922        TOTAL FREE ENERGY PREDICTED BY IDOCK:   -6.25 KCAL/MOL
REMARK 923 INTER-LIGAND FREE ENERGY PREDICTED BY IDOCK:   -5.26 KCAL/MOL
REMARK 924 INTRA-LIGAND FREE ENERGY PREDICTED BY IDOCK:   -0.99 KCAL/MOL
REMARK 927      BINDING AFFINITY PREDICTED BY RF-SCORE:    0.00 PKD
ROOT
HETATM    1  C   UNL     1     -10.393  18.601  66.110  1.00  0.00    -0.481 C  
HETATM    2  C   UNL     1     -10.037  17.467  67.056  1.00  0.00    -0.323 C  
ENDROOT
BRANCH   2   3
HETATM    3  C   UNL     1     -10.809  17.581  68.371  1.00  0.00    -0.190 C  
BRANCH   3   4
HETATM    4  C   UNL     1     -11.008  16.209  69.004  1.00  0.00    -0.312 C  
BRANCH   4   5
HETATM    5  C   UNL     1     -11.884  15.312  68.130  1.00  0.00    -0.217 C  
BRANCH   5   6
HETATM    6  C   UNL     1     -11.210  13.985  67.878  1.00  0.00    -0.295 A  
HETATM    7  C   UNL     1     -10.975  13.105  68.935  1.00  0.00    -0.270 A  
HETATM    8  C   UNL     1     -10.291  11.907  68.718  1.00  0.00    -0.165 A  
HETATM    9  C   UNL     1      -9.782  11.553  67.453  1.00  0.00    -0.191 A  
HETATM   10  O   UNL     1     -10.123  11.070  69.788  1.00  0.00    -0.422 OA 
HETATM   11  H   UNL     1      -9.894  12.817  64.382  1.00  0.00     0.000 HD 
HETATM   12  H   UNL     1      -9.658  10.255  69.641  1.00  0.00     0.000 HD 
HETATM   13  C   UNL     1     -10.072  12.436  66.396  1.00  0.00    -0.236 A  
HETATM   14  O   UNL     1      -9.698  12.221  65.096  1.00  0.00    -0.203 OA 
HETATM   15  C   UNL     1     -10.783  13.623  66.600  1.00  0.00    -0.280 A  
BRANCH   9  16
HETATM   16  C   UNL     1      -9.021  10.236  67.236  1.00  0.00    -0.140 C  
HETATM   17  C   UNL     1      -7.604  10.537  66.821  1.00  0.00    -0.115 C  
HETATM   18  C   UNL     1      -7.080  10.232  65.628  1.00  0.00    -0.137 C  
HETATM   19  C   UNL     1      -7.862   9.521  64.567  1.00  0.00    -0.126 C  
HETATM   20  C   UNL     1      -5.687  10.653  65.249  1.00  0.00    -0.126 C  
HETATM   21  C   UNL     1      -9.184   8.863  64.973  1.00  0.00    -0.033 C  
HETATM   22  C   UNL     1      -9.799   9.202  66.350  1.00  0.00    -0.350 C  
BRANCH  22  23
HETATM   23  C   UNL     1     -10.190   7.938  67.136  1.00  0.00    -0.360 C  
HETATM   24  C   UNL     1     -10.652   8.024  68.396  1.00  0.00    -0.150 C  
HETATM   25  C   UNL     1     -10.070   6.594  66.475  1.00  0.00    -0.140 C  
ENDBRANCH  22  23
ENDBRANCH   9  16
ENDBRANCH   5   6
ENDBRANCH   4   5
ENDBRANCH   3   4
ENDBRANCH   2   3
TORSDOF 6
ENDMDL
MODEL      144
REMARK 921   NORMALIZED FREE ENERGY PREDICTED BY IDOCK:   -3.91 KCAL/MOL
REMARK 922        TOTAL FREE ENERGY PREDICTED BY IDOCK:   -6.21 KCAL/MOL
REMARK 923 INTER-LIGAND FREE ENERGY PREDICTED BY IDOCK:   -5.39 KCAL/MOL
REMARK 924 INTRA-LIGAND FREE ENERGY PREDICTED BY IDOCK:   -0.82 KCAL/MOL
REMARK 927      BINDING AFFINITY PREDICTED BY RF-SCORE:    0.00 PKD
ROOT
HETATM    1  C   UNL     1      -6.255   7.813  73.783  1.00  0.00    -0.076 C  
HETATM    2  C   UNL     1      -7.179   7.060  72.841  1.00  0.00    -0.073 C  
ENDROOT
BRANCH   2   3
HETATM    3  C   UNL     1      -8.645   7.398  73.114  1.00  0.00    -0.178 C  
BRANCH   3   4
HETATM    4  C   UNL     1      -9.119   8.531  72.212  1.00  0.00    -0.318 C  
BRANCH   4   5
HETATM    5  C   UNL     1     -10.127   8.035  71.175  1.00  0.00    -0.221 C  
BRANCH   5   6
HETATM    6  C   UNL     1      -9.928   8.739  69.854  1.00  0.00    -0.193 A  
HETATM    7  C   UNL     1      -8.748   8.558  69.133  1.00  0.00    -0.134 A  
HETATM    8  C   UNL     1      -8.532   9.259  67.945  1.00  0.00    -0.117 A  
HETATM    9  C   UNL     1      -9.461  10.193  67.447  1.00  0.00    -0.175 A  
HETATM   10  O   UNL     1      -7.370   9.011  67.265  1.00  0.00    -0.083 OA 
HETATM   11  H   UNL     1     -12.504  11.234  68.286  1.00  0.00     0.000 HD 
HETATM   12  H   UNL     1      -7.223   9.488  66.456  1.00  0.00     0.000 HD 
HETATM   13  C   UNL     1     -10.663  10.323  68.169  1.00  0.00    -0.246 A  
HETATM   14  O   UNL     1     -11.693  11.146  67.798  1.00  0.00    -0.560 OA 
HETATM   15  C   UNL     1     -10.899   9.602  69.344  1.00  0.00    -0.239 A  
BRANCH   9  16
HETATM   16  C   UNL     1      -9.201  10.965  66.143  1.00  0.00    -0.205 C  
HETATM   17  C   UNL     1      -9.168  12.443  66.433  1.00  0.00    -0.192 C  
HETATM   18  C   UNL     1     -10.055  13.330  65.967  1.00  0.00    -0.301 C  
HETATM   19  C   UNL     1     -11.186  12.935  65.069  1.00  0.00    -0.324 C  
HETATM   20  C   UNL     1     -10.014  14.775  66.380  1.00  0.00    -0.291 C  
HETATM   21  C   UNL     1     -11.140  11.544  64.429  1.00  0.00    -0.359 C  
HETATM   22  C   UNL     1     -10.116  10.511  64.954  1.00  0.00    -0.403 C  
BRANCH  22  23
HETATM   23  C   UNL     1      -9.312   9.864  63.813  1.00  0.00    -0.250 C  
HETATM   24  C   UNL     1      -9.409  10.322  62.553  1.00  0.00    -0.322 C  
HETATM   25  C   UNL     1      -8.392   8.716  64.120  1.00  0.00    -0.133 C  
ENDBRANCH  22  23
ENDBRANCH   9  16
ENDBRANCH   5   6
ENDBRANCH   4   5
ENDBRANCH   3   4
ENDBRANCH   2   3
TORSDOF 6
ENDMDL
MODEL      145
REMARK 921   NORMALIZED FREE ENERGY PREDICTED BY IDOCK:   -3.90 KCAL/MOL
REMARK 922        TOTAL FREE ENERGY PREDICTED BY IDOCK:   -6.19 KCAL/MOL
REMARK 923 INTER-LIGAND FREE ENERGY PREDICTED BY IDOCK:   -5.45 KCAL/MOL
REMARK 924 INTRA-LIGAND FREE ENERGY PREDICTED BY IDOCK:   -0.74 KCAL/MOL
REMARK 927      BINDING AFFINITY PREDICTED BY RF-SCORE:    0.00 PKD
ROOT
HETATM    1  C   UNL     1     -11.483  12.205  63.347  1.00  0.00    -0.501 C  
HETATM    2  C   UNL     1     -12.052  13.345  64.173  1.00  0.00    -0.491 C  
ENDROOT
BRANCH   2   3
HETATM    3  C   UNL     1     -10.957  14.329  64.587  1.00  0.00    -0.379 C  
BRANCH   3   4
HETATM    4  C   UNL     1     -10.499  14.063  66.016  1.00  0.00    -0.307 C  
BRANCH   4   5
HETATM    5  C   UNL     1     -11.503  13.194  66.773  1.00  0.00    -0.386 C  
BRANCH   5   6
HETATM    6  C   UNL     1     -10.831  11.966  67.339  1.00  0.00    -0.289 A  
HETATM    7  C   UNL     1     -11.529  11.114  68.195  1.00  0.00    -0.373 A  
HETATM    8  C   UNL     1     -10.891  10.015  68.773  1.00  0.00    -0.219 A  
HETATM    9  C   UNL     1      -9.527   9.741  68.554  1.00  0.00    -0.148 A  
HETATM   10  O   UNL     1     -11.640   9.198  69.576  1.00  0.00    -0.419 OA 
HETATM   11  H   UNL     1      -7.095  11.007  66.678  1.00  0.00     0.000 HD 
HETATM   12  H   UNL     1     -11.206   8.450  69.969  1.00  0.00     0.000 HD 
HETATM   13  C   UNL     1      -8.857  10.589  67.652  1.00  0.00    -0.131 A  
HETATM   14  O   UNL     1      -7.546  10.435  67.287  1.00  0.00    -0.094 OA 
HETATM   15  C   UNL     1      -9.499  11.674  67.045  1.00  0.00    -0.191 A  
BRANCH   9  16
HETATM   16  C   UNL     1      -8.838   8.533  69.209  1.00  0.00    -0.142 C  
HETATM   17  C   UNL     1      -9.288   7.267  68.527  1.00  0.00    -0.141 C  
HETATM   18  C   UNL     1     -10.002   6.299  69.113  1.00  0.00    -0.181 C  
HETATM   19  C   UNL     1     -10.417   6.369  70.550  1.00  0.00    -0.270 C  
HETATM   20  C   UNL     1     -10.499   5.109  68.340  1.00  0.00    -0.084 C  
HETATM   21  C   UNL     1      -9.747   7.421  71.438  1.00  0.00    -0.175 C  
HETATM   22  C   UNL     1      -8.914   8.542  70.775  1.00  0.00    -0.193 C  
BRANCH  22  23
HETATM   23  C   UNL     1      -7.528   8.696  71.426  1.00  0.00    -0.124 C  
HETATM   24  C   UNL     1      -6.568   9.431  70.839  1.00  0.00    -0.098 C  
HETATM   25  C   UNL     1      -7.257   8.028  72.744  1.00  0.00    -0.116 C  
ENDBRANCH  22  23
ENDBRANCH   9  16
ENDBRANCH   5   6
ENDBRANCH   4   5
ENDBRANCH   3   4
ENDBRANCH   2   3
TORSDOF 6
ENDMDL
MODEL      146
REMARK 921   NORMALIZED FREE ENERGY PREDICTED BY IDOCK:   -3.89 KCAL/MOL
REMARK 922        TOTAL FREE ENERGY PREDICTED BY IDOCK:   -6.18 KCAL/MOL
REMARK 923 INTER-LIGAND FREE ENERGY PREDICTED BY IDOCK:   -5.14 KCAL/MOL
REMARK 924 INTRA-LIGAND FREE ENERGY PREDICTED BY IDOCK:   -1.04 KCAL/MOL
REMARK 927      BINDING AFFINITY PREDICTED BY RF-SCORE:    0.00 PKD
ROOT
HETATM    1  C   UNL     1     -10.125  18.265  68.169  1.00  0.00    -0.397 C  
HETATM    2  C   UNL     1      -9.854  16.770  68.209  1.00  0.00    -0.257 C  
ENDROOT
BRANCH   2   3
HETATM    3  C   UNL     1     -11.113  15.971  67.868  1.00  0.00    -0.307 C  
BRANCH   3   4
HETATM    4  C   UNL     1     -10.962  15.266  66.525  1.00  0.00    -0.295 C  
BRANCH   4   5
HETATM    5  C   UNL     1      -9.561  14.677  66.357  1.00  0.00    -0.323 C  
BRANCH   5   6
HETATM    6  C   UNL     1      -9.460  13.331  67.032  1.00  0.00    -0.243 A  
HETATM    7  C   UNL     1      -8.441  13.080  67.950  1.00  0.00    -0.185 A  
HETATM    8  C   UNL     1      -8.304  11.815  68.526  1.00  0.00    -0.131 A  
HETATM    9  C   UNL     1      -9.150  10.742  68.185  1.00  0.00    -0.151 A  
HETATM   10  O   UNL     1      -7.306  11.642  69.446  1.00  0.00    -0.315 OA 
HETATM   11  H   UNL     1     -11.846  10.318  66.290  1.00  0.00     0.000 HD 
HETATM   12  H   UNL     1      -7.213  10.781  69.838  1.00  0.00     0.000 HD 
HETATM   13  C   UNL     1     -10.198  11.033  67.291  1.00  0.00    -0.199 A  
HETATM   14  O   UNL     1     -11.139  10.122  66.893  1.00  0.00    -0.116 OA 
HETATM   15  C   UNL     1     -10.359  12.306  66.733  1.00  0.00    -0.238 A  
BRANCH   9  16
HETATM   16  C   UNL     1      -8.977   9.352  68.820  1.00  0.00    -0.132 C  
HETATM   17  C   UNL     1      -8.499   8.379  67.774  1.00  0.00    -0.131 C  
HETATM   18  C   UNL     1      -9.202   7.327  67.336  1.00  0.00    -0.140 C  
HETATM   19  C   UNL     1     -10.559   6.992  67.872  1.00  0.00    -0.276 C  
HETATM   20  C   UNL     1      -8.701   6.456  66.218  1.00  0.00    -0.146 C  
HETATM   21  C   UNL     1     -11.012   7.687  69.160  1.00  0.00     0.002 C  
HETATM   22  C   UNL     1     -10.206   8.900  69.680  1.00  0.00    -0.209 C  
BRANCH  22  23
HETATM   23  C   UNL     1      -9.856   8.764  71.173  1.00  0.00    -0.313 C  
HETATM   24  C   UNL     1     -10.818   8.581  72.094  1.00  0.00    -0.427 C  
HETATM   25  C   UNL     1      -8.416   8.816  71.598  1.00  0.00    -0.209 C  
ENDBRANCH  22  23
ENDBRANCH   9  16
ENDBRANCH   5   6
ENDBRANCH   4   5
ENDBRANCH   3   4
ENDBRANCH   2   3
TORSDOF 6
ENDMDL
MODEL      147
REMARK 921   NORMALIZED FREE ENERGY PREDICTED BY IDOCK:   -3.88 KCAL/MOL
REMARK 922        TOTAL FREE ENERGY PREDICTED BY IDOCK:   -6.17 KCAL/MOL
REMARK 923 INTER-LIGAND FREE ENERGY PREDICTED BY IDOCK:   -5.40 KCAL/MOL
REMARK 924 INTRA-LIGAND FREE ENERGY PREDICTED BY IDOCK:   -0.77 KCAL/MOL
REMARK 927      BINDING AFFINITY PREDICTED BY RF-SCORE:    0.00 PKD
ROOT
HETATM    1  C   UNL     1     -10.097   4.254  71.400  1.00  0.00    -0.187 C  
HETATM    2  C   UNL     1     -10.209   5.742  71.684  1.00  0.00    -0.253 C  
ENDROOT
BRANCH   2   3
HETATM    3  C   UNL     1     -11.654   6.224  71.550  1.00  0.00    -0.345 C  
BRANCH   3   4
HETATM    4  C   UNL     1     -11.743   7.733  71.744  1.00  0.00    -0.323 C  
BRANCH   4   5
HETATM    5  C   UNL     1     -10.358   8.380  71.747  1.00  0.00    -0.333 C  
BRANCH   5   6
HETATM    6  C   UNL     1     -10.018   8.927  70.382  1.00  0.00    -0.230 A  
HETATM    7  C   UNL     1      -8.763   8.689  69.822  1.00  0.00    -0.132 A  
HETATM    8  C   UNL     1      -8.421   9.250  68.590  1.00  0.00    -0.123 A  
HETATM    9  C   UNL     1      -9.297  10.098  67.884  1.00  0.00    -0.151 A  
HETATM   10  O   UNL     1      -7.188   8.950  68.077  1.00  0.00    -0.081 OA 
HETATM   11  H   UNL     1     -12.423  11.164  68.253  1.00  0.00     0.000 HD 
HETATM   12  H   UNL     1      -6.956   9.332  67.238  1.00  0.00     0.000 HD 
HETATM   13  C   UNL     1     -10.573  10.286  68.449  1.00  0.00    -0.216 A  
HETATM   14  O   UNL     1     -11.562  11.038  67.872  1.00  0.00    -0.483 OA 
HETATM   15  C   UNL     1     -10.933   9.703  69.669  1.00  0.00    -0.253 A  
BRANCH   9  16
HETATM   16  C   UNL     1      -8.899  10.717  66.535  1.00  0.00    -0.162 C  
HETATM   17  C   UNL     1      -9.175  12.198  66.561  1.00  0.00    -0.216 C  
HETATM   18  C   UNL     1     -10.079  12.817  65.792  1.00  0.00    -0.296 C  
HETATM   19  C   UNL     1     -10.912  12.084  64.787  1.00  0.00    -0.361 C  
HETATM   20  C   UNL     1     -10.369  14.285  65.944  1.00  0.00    -0.325 C  
HETATM   21  C   UNL     1     -10.499  10.655  64.422  1.00  0.00    -0.247 C  
HETATM   22  C   UNL     1      -9.452   9.930  65.298  1.00  0.00    -0.331 C  
BRANCH  22  23
HETATM   23  C   UNL     1      -8.327   9.303  64.455  1.00  0.00    -0.170 C  
HETATM   24  C   UNL     1      -7.465  10.074  63.771  1.00  0.00    -0.141 C  
HETATM   25  C   UNL     1      -8.184   7.807  64.415  1.00  0.00    -0.041 C  
ENDBRANCH  22  23
ENDBRANCH   9  16
ENDBRANCH   5   6
ENDBRANCH   4   5
ENDBRANCH   3   4
ENDBRANCH   2   3
TORSDOF 6
ENDMDL
MODEL      148
REMARK 921   NORMALIZED FREE ENERGY PREDICTED BY IDOCK:   -3.87 KCAL/MOL
REMARK 922        TOTAL FREE ENERGY PREDICTED BY IDOCK:   -6.15 KCAL/MOL
REMARK 923 INTER-LIGAND FREE ENERGY PREDICTED BY IDOCK:   -5.53 KCAL/MOL
REMARK 924 INTRA-LIGAND FREE ENERGY PREDICTED BY IDOCK:   -0.63 KCAL/MOL
REMARK 927      BINDING AFFINITY PREDICTED BY RF-SCORE:    0.00 PKD
ROOT
HETATM    1  C   UNL     1     -11.519  15.875  64.492  1.00  0.00    -0.287 C  
HETATM    2  C   UNL     1     -12.193  14.513  64.516  1.00  0.00    -0.483 C  
ENDROOT
BRANCH   2   3
HETATM    3  C   UNL     1     -11.301  13.466  65.183  1.00  0.00    -0.316 C  
BRANCH   3   4
HETATM    4  C   UNL     1     -11.188  13.723  66.680  1.00  0.00    -0.327 C  
BRANCH   4   5
HETATM    5  C   UNL     1     -12.232  12.929  67.465  1.00  0.00    -0.077 C  
BRANCH   5   6
HETATM    6  C   UNL     1     -11.598  11.746  68.156  1.00  0.00    -0.391 A  
HETATM    7  C   UNL     1     -12.011  11.376  69.436  1.00  0.00    -0.407 A  
HETATM    8  C   UNL     1     -11.382  10.325  70.106  1.00  0.00    -0.316 A  
HETATM    9  C   UNL     1     -10.295   9.625  69.546  1.00  0.00    -0.235 A  
HETATM   10  O   UNL     1     -11.856   9.988  71.345  1.00  0.00    -0.370 OA 
HETATM   11  H   UNL     1      -8.681   9.621  66.642  1.00  0.00     0.000 HD 
HETATM   12  H   UNL     1     -11.428   9.272  71.800  1.00  0.00     0.000 HD 
HETATM   13  C   UNL     1      -9.928   9.987  68.236  1.00  0.00    -0.153 A  
HETATM   14  O   UNL     1      -8.929   9.377  67.525  1.00  0.00    -0.122 OA 
HETATM   15  C   UNL     1     -10.574  11.019  67.548  1.00  0.00    -0.266 A  
BRANCH   9  16
HETATM   16  C   UNL     1      -9.606   8.478  70.303  1.00  0.00    -0.177 C  
HETATM   17  C   UNL     1      -8.385   9.006  71.010  1.00  0.00    -0.237 C  
HETATM   18  C   UNL     1      -7.127   8.649  70.726  1.00  0.00    -0.061 C  
HETATM   19  C   UNL     1      -6.799   7.646  69.663  1.00  0.00    -0.044 C  
HETATM   20  C   UNL     1      -5.952   9.293  71.409  1.00  0.00    -0.075 C  
HETATM   21  C   UNL     1      -7.944   6.791  69.110  1.00  0.00    -0.112 C  
HETATM   22  C   UNL     1      -9.402   7.189  69.435  1.00  0.00    -0.147 C  
BRANCH  22  23
HETATM   23  C   UNL     1     -10.223   5.997  69.959  1.00  0.00    -0.264 C  
HETATM   24  C   UNL     1     -11.310   6.191  70.726  1.00  0.00    -0.364 C  
HETATM   25  C   UNL     1      -9.812   4.600  69.588  1.00  0.00    -0.293 C  
ENDBRANCH  22  23
ENDBRANCH   9  16
ENDBRANCH   5   6
ENDBRANCH   4   5
ENDBRANCH   3   4
ENDBRANCH   2   3
TORSDOF 6
ENDMDL
MODEL      149
REMARK 921   NORMALIZED FREE ENERGY PREDICTED BY IDOCK:   -3.86 KCAL/MOL
REMARK 922        TOTAL FREE ENERGY PREDICTED BY IDOCK:   -6.14 KCAL/MOL
REMARK 923 INTER-LIGAND FREE ENERGY PREDICTED BY IDOCK:   -7.26 KCAL/MOL
REMARK 924 INTRA-LIGAND FREE ENERGY PREDICTED BY IDOCK:    1.12 KCAL/MOL
REMARK 927      BINDING AFFINITY PREDICTED BY RF-SCORE:    0.00 PKD
ROOT
HETATM    1  C   UNL     1      -9.754   4.424  65.973  1.00  0.00    -0.218 C  
HETATM    2  C   UNL     1      -9.844   5.881  66.396  1.00  0.00    -0.161 C  
ENDROOT
BRANCH   2   3
HETATM    3  C   UNL     1     -10.031   6.008  67.908  1.00  0.00    -0.151 C  
BRANCH   3   4
HETATM    4  C   UNL     1     -10.721   7.319  68.262  1.00  0.00    -0.174 C  
BRANCH   4   5
HETATM    5  C   UNL     1     -10.193   8.476  67.414  1.00  0.00    -0.329 C  
BRANCH   5   6
HETATM    6  C   UNL     1     -10.786   9.788  67.869  1.00  0.00    -0.312 A  
HETATM    7  C   UNL     1     -10.981  10.825  66.956  1.00  0.00    -0.292 A  
HETATM    8  C   UNL     1     -11.466  12.062  67.385  1.00  0.00    -0.336 A  
HETATM    9  C   UNL     1     -11.740  12.330  68.740  1.00  0.00    -0.390 A  
HETATM   10  O   UNL     1     -11.669  13.027  66.436  1.00  0.00    -0.351 OA 
HETATM   11  H   UNL     1     -11.739  10.600  71.577  1.00  0.00     0.000 HD 
HETATM   12  H   UNL     1     -11.999  13.869  66.727  1.00  0.00     0.000 HD 
HETATM   13  C   UNL     1     -11.578  11.254  69.634  1.00  0.00    -0.330 A  
HETATM   14  O   UNL     1     -11.849  11.326  70.975  1.00  0.00    -0.217 OA 
HETATM   15  C   UNL     1     -11.122  10.003  69.206  1.00  0.00    -0.248 A  
BRANCH   9  16
HETATM   16  C   UNL     1     -12.262  13.702  69.196  1.00  0.00    -0.265 C  
HETATM   17  C   UNL     1     -11.839  14.754  68.204  1.00  0.00    -0.318 C  
HETATM   18  C   UNL     1     -10.996  15.759  68.472  1.00  0.00    -0.312 C  
HETATM   19  C   UNL     1     -10.391  15.955  69.828  1.00  0.00    -0.290 C  
HETATM   20  C   UNL     1     -10.544  16.714  67.403  1.00  0.00    -0.295 C  
HETATM   21  C   UNL     1     -10.991  15.172  71.000  1.00  0.00    -0.216 C  
HETATM   22  C   UNL     1     -11.970  14.013  70.704  1.00  0.00    -0.376 C  
BRANCH  22  23
HETATM   23  C   UNL     1     -13.259  14.118  71.538  1.00  0.00    -0.423 C  
HETATM   24  C   UNL     1     -13.600  13.151  72.407  1.00  0.00    -0.667 C  
HETATM   25  C   UNL     1     -14.135  15.330  71.390  1.00  0.00    -0.595 C  
ENDBRANCH  22  23
ENDBRANCH   9  16
ENDBRANCH   5   6
ENDBRANCH   4   5
ENDBRANCH   3   4
ENDBRANCH   2   3
TORSDOF 6
ENDMDL
MODEL      150
REMARK 921   NORMALIZED FREE ENERGY PREDICTED BY IDOCK:   -3.84 KCAL/MOL
REMARK 922        TOTAL FREE ENERGY PREDICTED BY IDOCK:   -6.12 KCAL/MOL
REMARK 923 INTER-LIGAND FREE ENERGY PREDICTED BY IDOCK:   -5.71 KCAL/MOL
REMARK 924 INTRA-LIGAND FREE ENERGY PREDICTED BY IDOCK:   -0.41 KCAL/MOL
REMARK 927      BINDING AFFINITY PREDICTED BY RF-SCORE:    0.00 PKD
ROOT
HETATM    1  C   UNL     1     -12.437  13.363  65.191  1.00  0.00    -0.509 C  
HETATM    2  C   UNL     1     -12.284  14.011  66.556  1.00  0.00    -0.485 C  
ENDROOT
BRANCH   2   3
HETATM    3  C   UNL     1     -11.222  13.298  67.392  1.00  0.00    -0.316 C  
BRANCH   3   4
HETATM    4  C   UNL     1     -11.649  11.871  67.712  1.00  0.00    -0.393 C  
BRANCH   4   5
HETATM    5  C   UNL     1     -11.801  11.656  69.218  1.00  0.00    -0.396 C  
BRANCH   5   6
HETATM    6  C   UNL     1     -11.194  10.339  69.636  1.00  0.00    -0.322 A  
HETATM    7  C   UNL     1     -11.197   9.959  70.978  1.00  0.00    -0.435 A  
HETATM    8  C   UNL     1     -10.576   8.774  71.379  1.00  0.00    -0.279 A  
HETATM    9  C   UNL     1      -9.898   7.940  70.469  1.00  0.00    -0.186 A  
HETATM   10  O   UNL     1     -10.644   8.439  72.704  1.00  0.00    -0.332 OA 
HETATM   11  H   UNL     1      -9.420   7.860  67.181  1.00  0.00     0.000 HD 
HETATM   12  H   UNL     1     -10.222   7.632  72.976  1.00  0.00     0.000 HD 
HETATM   13  C   UNL     1      -9.948   8.323  69.115  1.00  0.00    -0.196 A  
HETATM   14  O   UNL     1      -9.386   7.602  68.095  1.00  0.00    -0.144 OA 
HETATM   15  C   UNL     1     -10.594   9.493  68.703  1.00  0.00    -0.239 A  
BRANCH   9  16
HETATM   16  C   UNL     1      -9.209   6.645  70.929  1.00  0.00    -0.157 C  
HETATM   17  C   UNL     1     -10.233   5.721  71.535  1.00  0.00    -0.255 C  
HETATM   18  C   UNL     1     -10.255   5.347  72.820  1.00  0.00    -0.222 C  
HETATM   19  C   UNL     1      -9.223   5.804  73.805  1.00  0.00    -0.126 C  
HETATM   20  C   UNL     1     -11.366   4.499  73.375  1.00  0.00    -0.376 C  
HETATM   21  C   UNL     1      -7.952   6.460  73.256  1.00  0.00    -0.104 C  
HETATM   22  C   UNL     1      -7.912   6.892  71.772  1.00  0.00    -0.100 C  
BRANCH  22  23
HETATM   23  C   UNL     1      -6.646   6.386  71.057  1.00  0.00    -0.053 C  
HETATM   24  C   UNL     1      -5.470   6.311  71.705  1.00  0.00    -0.027 C  
HETATM   25  C   UNL     1      -6.736   5.953  69.621  1.00  0.00    -0.055 C  
ENDBRANCH  22  23
ENDBRANCH   9  16
ENDBRANCH   5   6
ENDBRANCH   4   5
ENDBRANCH   3   4
ENDBRANCH   2   3
TORSDOF 6
ENDMDL
MODEL      151
REMARK 921   NORMALIZED FREE ENERGY PREDICTED BY IDOCK:   -3.84 KCAL/MOL
REMARK 922        TOTAL FREE ENERGY PREDICTED BY IDOCK:   -6.12 KCAL/MOL
REMARK 923 INTER-LIGAND FREE ENERGY PREDICTED BY IDOCK:   -5.35 KCAL/MOL
REMARK 924 INTRA-LIGAND FREE ENERGY PREDICTED BY IDOCK:   -0.77 KCAL/MOL
REMARK 927      BINDING AFFINITY PREDICTED BY RF-SCORE:    0.00 PKD
ROOT
HETATM    1  C   UNL     1      -5.301  19.635  70.984  1.00  0.00    -0.282 C  
HETATM    2  C   UNL     1      -6.297  20.145  69.956  1.00  0.00    -0.358 C  
ENDROOT
BRANCH   2   3
HETATM    3  C   UNL     1      -6.184  19.369  68.644  1.00  0.00    -0.272 C  
BRANCH   3   4
HETATM    4  C   UNL     1      -7.060  18.122  68.673  1.00  0.00    -0.274 C  
BRANCH   4   5
HETATM    5  C   UNL     1      -6.219  16.850  68.785  1.00  0.00    -0.157 C  
BRANCH   5   6
HETATM    6  C   UNL     1      -7.038  15.633  68.431  1.00  0.00    -0.115 A  
HETATM    7  C   UNL     1      -6.425  14.386  68.301  1.00  0.00    -0.115 A  
HETATM    8  C   UNL     1      -7.167  13.271  67.908  1.00  0.00    -0.137 A  
HETATM    9  C   UNL     1      -8.537  13.357  67.592  1.00  0.00    -0.193 A  
HETATM   10  O   UNL     1      -6.515  12.070  67.833  1.00  0.00    -0.060 OA 
HETATM   11  H   UNL     1     -10.880  15.711  67.686  1.00  0.00     0.000 HD 
HETATM   12  H   UNL     1      -7.020  11.311  67.566  1.00  0.00     0.000 HD 
HETATM   13  C   UNL     1      -9.142  14.615  67.774  1.00  0.00    -0.191 A  
HETATM   14  O   UNL     1     -10.472  14.862  67.563  1.00  0.00    -0.249 OA 
HETATM   15  C   UNL     1      -8.411  15.730  68.197  1.00  0.00    -0.160 A  
BRANCH   9  16
HETATM   16  C   UNL     1      -9.335  12.120  67.148  1.00  0.00    -0.193 C  
HETATM   17  C   UNL     1      -9.565  12.179  65.660  1.00  0.00    -0.177 C  
HETATM   18  C   UNL     1     -10.765  12.304  65.080  1.00  0.00    -0.336 C  
HETATM   19  C   UNL     1     -12.034  12.377  65.871  1.00  0.00    -0.434 C  
HETATM   20  C   UNL     1     -10.907  12.454  63.590  1.00  0.00    -0.509 C  
HETATM   21  C   UNL     1     -11.976  11.992  67.352  1.00  0.00    -0.125 C  
HETATM   22  C   UNL     1     -10.597  11.839  68.034  1.00  0.00    -0.235 C  
BRANCH  22  23
HETATM   23  C   UNL     1     -10.480  10.516  68.812  1.00  0.00    -0.216 C  
HETATM   24  C   UNL     1      -9.845   9.457  68.281  1.00  0.00    -0.180 C  
HETATM   25  C   UNL     1     -11.069  10.419  70.191  1.00  0.00    -0.383 C  
ENDBRANCH  22  23
ENDBRANCH   9  16
ENDBRANCH   5   6
ENDBRANCH   4   5
ENDBRANCH   3   4
ENDBRANCH   2   3
TORSDOF 6
ENDMDL
MODEL      152
REMARK 921   NORMALIZED FREE ENERGY PREDICTED BY IDOCK:   -3.84 KCAL/MOL
REMARK 922        TOTAL FREE ENERGY PREDICTED BY IDOCK:   -6.12 KCAL/MOL
REMARK 923 INTER-LIGAND FREE ENERGY PREDICTED BY IDOCK:   -5.46 KCAL/MOL
REMARK 924 INTRA-LIGAND FREE ENERGY PREDICTED BY IDOCK:   -0.66 KCAL/MOL
REMARK 927      BINDING AFFINITY PREDICTED BY RF-SCORE:    0.00 PKD
ROOT
HETATM    1  C   UNL     1      -7.853  18.728  67.383  1.00  0.00    -0.245 C  
HETATM    2  C   UNL     1      -9.071  19.625  67.245  1.00  0.00    -0.396 C  
ENDROOT
BRANCH   2   3
HETATM    3  C   UNL     1     -10.119  18.997  66.326  1.00  0.00    -0.479 C  
BRANCH   3   4
HETATM    4  C   UNL     1     -10.554  17.633  66.849  1.00  0.00    -0.235 C  
BRANCH   4   5
HETATM    5  C   UNL     1     -10.865  16.669  65.704  1.00  0.00    -0.142 C  
BRANCH   5   6
HETATM    6  C   UNL     1     -10.251  15.314  65.962  1.00  0.00    -0.335 A  
HETATM    7  C   UNL     1     -10.963  14.152  65.668  1.00  0.00    -0.308 A  
HETATM    8  C   UNL     1     -10.426  12.898  65.968  1.00  0.00    -0.276 A  
HETATM    9  C   UNL     1      -9.178  12.752  66.604  1.00  0.00    -0.212 A  
HETATM   10  O   UNL     1     -11.159  11.795  65.623  1.00  0.00    -0.305 OA 
HETATM   11  H   UNL     1      -6.726  14.773  67.576  1.00  0.00     0.000 HD 
HETATM   12  H   UNL     1     -10.793  10.942  65.827  1.00  0.00     0.000 HD 
HETATM   13  C   UNL     1      -8.459  13.937  66.848  1.00  0.00    -0.069 A  
HETATM   14  O   UNL     1      -7.211  13.973  67.411  1.00  0.00    -0.178 OA 
HETATM   15  C   UNL     1      -8.978  15.195  66.523  1.00  0.00    -0.326 A  
BRANCH   9  16
HETATM   16  C   UNL     1      -8.607  11.364  66.937  1.00  0.00    -0.154 C  
HETATM   17  C   UNL     1      -8.204  10.668  65.663  1.00  0.00    -0.154 C  
HETATM   18  C   UNL     1      -8.777   9.554  65.191  1.00  0.00    -0.200 C  
HETATM   19  C   UNL     1      -9.889   8.858  65.912  1.00  0.00    -0.200 C  
HETATM   20  C   UNL     1      -8.387   8.971  63.861  1.00  0.00    -0.178 C  
HETATM   21  C   UNL     1     -10.161   9.259  67.365  1.00  0.00    -0.304 C  
HETATM   22  C   UNL     1      -9.502  10.540  67.925  1.00  0.00    -0.157 C  
BRANCH  22  23
HETATM   23  C   UNL     1      -8.804  10.289  69.274  1.00  0.00    -0.186 C  
HETATM   24  C   UNL     1      -7.552  10.726  69.495  1.00  0.00    -0.094 C  
HETATM   25  C   UNL     1      -9.543   9.562  70.361  1.00  0.00    -0.326 C  
ENDBRANCH  22  23
ENDBRANCH   9  16
ENDBRANCH   5   6
ENDBRANCH   4   5
ENDBRANCH   3   4
ENDBRANCH   2   3
TORSDOF 6
ENDMDL
MODEL      153
REMARK 921   NORMALIZED FREE ENERGY PREDICTED BY IDOCK:   -3.84 KCAL/MOL
REMARK 922        TOTAL FREE ENERGY PREDICTED BY IDOCK:   -6.11 KCAL/MOL
REMARK 923 INTER-LIGAND FREE ENERGY PREDICTED BY IDOCK:   -5.29 KCAL/MOL
REMARK 924 INTRA-LIGAND FREE ENERGY PREDICTED BY IDOCK:   -0.83 KCAL/MOL
REMARK 927      BINDING AFFINITY PREDICTED BY RF-SCORE:    0.00 PKD
ROOT
HETATM    1  C   UNL     1     -13.818  14.816  71.883  1.00  0.00    -0.541 C  
HETATM    2  C   UNL     1     -13.268  13.430  71.591  1.00  0.00    -0.449 C  
ENDROOT
BRANCH   2   3
HETATM    3  C   UNL     1     -12.405  13.432  70.329  1.00  0.00    -0.354 C  
BRANCH   3   4
HETATM    4  C   UNL     1     -11.746  12.074  70.119  1.00  0.00    -0.316 C  
BRANCH   4   5
HETATM    5  C   UNL     1     -12.208  11.060  71.166  1.00  0.00    -0.415 C  
BRANCH   5   6
HETATM    6  C   UNL     1     -11.405   9.785  71.069  1.00  0.00    -0.460 A  
HETATM    7  C   UNL     1     -11.961   8.572  71.472  1.00  0.00    -0.354 A  
HETATM    8  C   UNL     1     -11.200   7.402  71.447  1.00  0.00    -0.246 A  
HETATM    9  C   UNL     1      -9.847   7.397  71.056  1.00  0.00    -0.179 A  
HETATM   10  O   UNL     1     -11.814   6.238  71.822  1.00  0.00    -0.316 OA 
HETATM   11  H   UNL     1      -7.690   9.617  69.847  1.00  0.00     0.000 HD 
HETATM   12  H   UNL     1     -11.296   5.441  71.805  1.00  0.00     0.000 HD 
HETATM   13  C   UNL     1      -9.323   8.626  70.610  1.00  0.00    -0.185 A  
HETATM   14  O   UNL     1      -8.044   8.789  70.148  1.00  0.00    -0.100 OA 
HETATM   15  C   UNL     1     -10.089   9.796  70.604  1.00  0.00    -0.252 A  
BRANCH   9  16
HETATM   16  C   UNL     1      -9.020   6.101  71.046  1.00  0.00    -0.144 C  
HETATM   17  C   UNL     1      -8.066   6.107  72.212  1.00  0.00    -0.109 C  
HETATM   18  C   UNL     1      -6.732   6.139  72.103  1.00  0.00    -0.068 C  
HETATM   19  C   UNL     1      -6.037   6.152  70.777  1.00  0.00    -0.038 C  
HETATM   20  C   UNL     1      -5.846   6.242  73.314  1.00  0.00    -0.046 C  
HETATM   21  C   UNL     1      -6.862   5.810  69.533  1.00  0.00    -0.061 C  
HETATM   22  C   UNL     1      -8.404   5.763  69.646  1.00  0.00    -0.112 C  
BRANCH  22  23
HETATM   23  C   UNL     1      -8.988   4.471  69.047  1.00  0.00    -0.151 C  
HETATM   24  C   UNL     1      -9.254   4.378  67.733  1.00  0.00    -0.166 C  
HETATM   25  C   UNL     1      -9.244   3.294  69.946  1.00  0.00    -0.222 C  
ENDBRANCH  22  23
ENDBRANCH   9  16
ENDBRANCH   5   6
ENDBRANCH   4   5
ENDBRANCH   3   4
ENDBRANCH   2   3
TORSDOF 6
ENDMDL
MODEL      154
REMARK 921   NORMALIZED FREE ENERGY PREDICTED BY IDOCK:   -3.83 KCAL/MOL
REMARK 922        TOTAL FREE ENERGY PREDICTED BY IDOCK:   -6.10 KCAL/MOL
REMARK 923 INTER-LIGAND FREE ENERGY PREDICTED BY IDOCK:   -5.51 KCAL/MOL
REMARK 924 INTRA-LIGAND FREE ENERGY PREDICTED BY IDOCK:   -0.59 KCAL/MOL
REMARK 927      BINDING AFFINITY PREDICTED BY RF-SCORE:    0.00 PKD
ROOT
HETATM    1  C   UNL     1     -11.929   6.876  72.383  1.00  0.00    -0.170 C  
HETATM    2  C   UNL     1     -10.682   6.809  73.248  1.00  0.00    -0.330 C  
ENDROOT
BRANCH   2   3
HETATM    3  C   UNL     1     -10.092   5.398  73.262  1.00  0.00    -0.198 C  
BRANCH   3   4
HETATM    4  C   UNL     1     -10.190   4.754  71.885  1.00  0.00    -0.261 C  
BRANCH   4   5
HETATM    5  C   UNL     1      -9.007   5.144  70.999  1.00  0.00    -0.159 C  
BRANCH   5   6
HETATM    6  C   UNL     1      -9.382   6.274  70.070  1.00  0.00    -0.164 A  
HETATM    7  C   UNL     1     -10.352   6.082  69.087  1.00  0.00    -0.289 A  
HETATM    8  C   UNL     1     -10.654   7.103  68.183  1.00  0.00    -0.192 A  
HETATM    9  C   UNL     1      -9.978   8.338  68.196  1.00  0.00    -0.224 A  
HETATM   10  O   UNL     1     -11.641   6.865  67.264  1.00  0.00    -0.668 OA 
HETATM   11  H   UNL     1      -7.690   9.803  70.110  1.00  0.00     0.000 HD 
HETATM   12  H   UNL     1     -11.846   7.560  66.649  1.00  0.00     0.000 HD 
HETATM   13  C   UNL     1      -9.035   8.523  69.225  1.00  0.00    -0.146 A  
HETATM   14  O   UNL     1      -8.326   9.679  69.415  1.00  0.00    -0.121 OA 
HETATM   15  C   UNL     1      -8.750   7.516  70.153  1.00  0.00    -0.142 A  
BRANCH   9  16
HETATM   16  C   UNL     1     -10.314   9.446  67.185  1.00  0.00    -0.326 C  
HETATM   17  C   UNL     1      -9.638   9.149  65.871  1.00  0.00    -0.343 C  
HETATM   18  C   UNL     1      -8.674   9.900  65.324  1.00  0.00    -0.181 C  
HETATM   19  C   UNL     1      -8.174  11.155  65.969  1.00  0.00    -0.094 C  
HETATM   20  C   UNL     1      -7.978   9.486  64.058  1.00  0.00    -0.141 C  
HETATM   21  C   UNL     1      -8.998  11.748  67.116  1.00  0.00    -0.177 C  
HETATM   22  C   UNL     1     -10.118  10.893  67.754  1.00  0.00    -0.203 C  
BRANCH  22  23
HETATM   23  C   UNL     1     -11.446  11.664  67.856  1.00  0.00    -0.381 C  
HETATM   24  C   UNL     1     -11.885  12.423  66.837  1.00  0.00    -0.377 C  
HETATM   25  C   UNL     1     -12.270  11.549  69.108  1.00  0.00    -0.221 C  
ENDBRANCH  22  23
ENDBRANCH   9  16
ENDBRANCH   5   6
ENDBRANCH   4   5
ENDBRANCH   3   4
ENDBRANCH   2   3
TORSDOF 6
ENDMDL
MODEL      155
REMARK 921   NORMALIZED FREE ENERGY PREDICTED BY IDOCK:   -3.82 KCAL/MOL
REMARK 922        TOTAL FREE ENERGY PREDICTED BY IDOCK:   -6.09 KCAL/MOL
REMARK 923 INTER-LIGAND FREE ENERGY PREDICTED BY IDOCK:   -6.22 KCAL/MOL
REMARK 924 INTRA-LIGAND FREE ENERGY PREDICTED BY IDOCK:    0.13 KCAL/MOL
REMARK 927      BINDING AFFINITY PREDICTED BY RF-SCORE:    0.00 PKD
ROOT
HETATM    1  C   UNL     1      -9.503   4.362  71.867  1.00  0.00    -0.201 C  
HETATM    2  C   UNL     1     -10.406   4.399  73.088  1.00  0.00    -0.232 C  
ENDROOT
BRANCH   2   3
HETATM    3  C   UNL     1     -10.599   5.830  73.590  1.00  0.00    -0.302 C  
BRANCH   3   4
HETATM    4  C   UNL     1     -10.006   6.835  72.611  1.00  0.00    -0.186 C  
BRANCH   4   5
HETATM    5  C   UNL     1     -10.742   8.173  72.668  1.00  0.00    -0.421 C  
BRANCH   5   6
HETATM    6  C   UNL     1     -10.462   8.993  71.431  1.00  0.00    -0.395 A  
HETATM    7  C   UNL     1     -11.511   9.418  70.617  1.00  0.00    -0.344 A  
HETATM    8  C   UNL     1     -11.252  10.118  69.437  1.00  0.00    -0.215 A  
HETATM    9  C   UNL     1      -9.941  10.390  69.001  1.00  0.00    -0.224 A  
HETATM   10  O   UNL     1     -12.326  10.539  68.701  1.00  0.00    -0.785 OA 
HETATM   11  H   UNL     1      -6.872   9.950  70.199  1.00  0.00     0.000 HD 
HETATM   12  H   UNL     1     -12.149  11.015  67.898  1.00  0.00     0.000 HD 
HETATM   13  C   UNL     1      -8.901   9.990  69.862  1.00  0.00    -0.147 A  
HETATM   14  O   UNL     1      -7.574  10.220  69.617  1.00  0.00    -0.136 OA 
HETATM   15  C   UNL     1      -9.155   9.315  71.061  1.00  0.00    -0.253 A  
BRANCH   9  16
HETATM   16  C   UNL     1      -9.674  11.151  67.692  1.00  0.00    -0.184 C  
HETATM   17  C   UNL     1      -8.295  10.811  67.187  1.00  0.00    -0.126 C  
HETATM   18  C   UNL     1      -7.285  11.683  67.089  1.00  0.00    -0.145 C  
HETATM   19  C   UNL     1      -7.432  13.126  67.461  1.00  0.00    -0.164 C  
HETATM   20  C   UNL     1      -5.908  11.248  66.668  1.00  0.00    -0.138 C  
HETATM   21  C   UNL     1      -8.849  13.671  67.663  1.00  0.00    -0.194 C  
HETATM   22  C   UNL     1     -10.027  12.676  67.772  1.00  0.00    -0.218 C  
BRANCH  22  23
HETATM   23  C   UNL     1     -11.192  13.054  66.840  1.00  0.00    -0.331 C  
HETATM   24  C   UNL     1     -11.932  14.152  67.071  1.00  0.00    -0.471 C  
HETATM   25  C   UNL     1     -11.488  12.192  65.645  1.00  0.00    -0.408 C  
ENDBRANCH  22  23
ENDBRANCH   9  16
ENDBRANCH   5   6
ENDBRANCH   4   5
ENDBRANCH   3   4
ENDBRANCH   2   3
TORSDOF 6
ENDMDL
MODEL      156
REMARK 921   NORMALIZED FREE ENERGY PREDICTED BY IDOCK:   -3.80 KCAL/MOL
REMARK 922        TOTAL FREE ENERGY PREDICTED BY IDOCK:   -6.06 KCAL/MOL
REMARK 923 INTER-LIGAND FREE ENERGY PREDICTED BY IDOCK:   -5.05 KCAL/MOL
REMARK 924 INTRA-LIGAND FREE ENERGY PREDICTED BY IDOCK:   -1.01 KCAL/MOL
REMARK 927      BINDING AFFINITY PREDICTED BY RF-SCORE:    0.00 PKD
ROOT
HETATM    1  C   UNL     1     -10.954  13.542  68.779  1.00  0.00    -0.291 C  
HETATM    2  C   UNL     1     -10.714  14.693  67.816  1.00  0.00    -0.265 C  
ENDROOT
BRANCH   2   3
HETATM    3  C   UNL     1     -10.031  14.212  66.536  1.00  0.00    -0.289 C  
BRANCH   3   4
HETATM    4  C   UNL     1     -10.409  12.768  66.228  1.00  0.00    -0.271 C  
BRANCH   4   5
HETATM    5  C   UNL     1      -9.171  11.878  66.111  1.00  0.00    -0.204 C  
BRANCH   5   6
HETATM    6  C   UNL     1      -9.348  10.607  66.906  1.00  0.00    -0.180 A  
HETATM    7  C   UNL     1      -9.865   9.463  66.298  1.00  0.00    -0.351 A  
HETATM    8  C   UNL     1     -10.092   8.307  67.046  1.00  0.00    -0.283 A  
HETATM    9  C   UNL     1      -9.850   8.252  68.433  1.00  0.00    -0.187 A  
HETATM   10  O   UNL     1     -10.568   7.207  66.384  1.00  0.00    -0.479 OA 
HETATM   11  H   UNL     1      -8.561  10.281  70.726  1.00  0.00     0.000 HD 
HETATM   12  H   UNL     1     -10.723   6.420  66.894  1.00  0.00     0.000 HD 
HETATM   13  C   UNL     1      -9.286   9.404  69.013  1.00  0.00    -0.153 A  
HETATM   14  O   UNL     1      -8.941   9.504  70.335  1.00  0.00    -0.237 OA 
HETATM   15  C   UNL     1      -9.027  10.556  68.264  1.00  0.00    -0.139 A  
BRANCH   9  16
HETATM   16  C   UNL     1     -10.118   6.973  69.243  1.00  0.00    -0.178 C  
HETATM   17  C   UNL     1     -11.249   7.219  70.208  1.00  0.00    -0.287 C  
HETATM   18  C   UNL     1     -11.128   7.207  71.541  1.00  0.00    -0.267 C  
HETATM   19  C   UNL     1      -9.827   6.921  72.224  1.00  0.00    -0.163 C  
HETATM   20  C   UNL     1     -12.282   7.558  72.439  1.00  0.00    -0.167 C  
HETATM   21  C   UNL     1      -8.692   6.328  71.383  1.00  0.00    -0.135 C  
HETATM   22  C   UNL     1      -8.821   6.329  69.842  1.00  0.00    -0.141 C  
BRANCH  22  23
HETATM   23  C   UNL     1      -8.523   4.946  69.236  1.00  0.00    -0.092 C  
HETATM   24  C   UNL     1      -7.305   4.656  68.746  1.00  0.00    -0.060 C  
HETATM   25  C   UNL     1      -9.605   3.904  69.212  1.00  0.00    -0.232 C  
ENDBRANCH  22  23
ENDBRANCH   9  16
ENDBRANCH   5   6
ENDBRANCH   4   5
ENDBRANCH   3   4
ENDBRANCH   2   3
TORSDOF 6
ENDMDL
MODEL      157
REMARK 921   NORMALIZED FREE ENERGY PREDICTED BY IDOCK:   -3.80 KCAL/MOL
REMARK 922        TOTAL FREE ENERGY PREDICTED BY IDOCK:   -6.06 KCAL/MOL
REMARK 923 INTER-LIGAND FREE ENERGY PREDICTED BY IDOCK:   -5.49 KCAL/MOL
REMARK 924 INTRA-LIGAND FREE ENERGY PREDICTED BY IDOCK:   -0.57 KCAL/MOL
REMARK 927      BINDING AFFINITY PREDICTED BY RF-SCORE:    0.00 PKD
ROOT
HETATM    1  C   UNL     1      -8.461   9.709  62.468  1.00  0.00    -0.184 C  
HETATM    2  C   UNL     1      -7.421   9.670  63.575  1.00  0.00    -0.120 C  
ENDROOT
BRANCH   2   3
HETATM    3  C   UNL     1      -6.998   8.234  63.888  1.00  0.00    -0.076 C  
BRANCH   3   4
HETATM    4  C   UNL     1      -6.653   8.079  65.365  1.00  0.00    -0.048 C  
BRANCH   4   5
HETATM    5  C   UNL     1      -7.565   7.060  66.048  1.00  0.00    -0.096 C  
BRANCH   5   6
HETATM    6  C   UNL     1      -8.170   7.640  67.304  1.00  0.00    -0.119 A  
HETATM    7  C   UNL     1      -9.074   6.893  68.059  1.00  0.00    -0.120 A  
HETATM    8  C   UNL     1      -9.687   7.449  69.183  1.00  0.00    -0.165 A  
HETATM    9  C   UNL     1      -9.455   8.780  69.580  1.00  0.00    -0.170 A  
HETATM   10  O   UNL     1     -10.538   6.653  69.901  1.00  0.00    -0.201 OA 
HETATM   11  H   UNL     1      -7.481  11.268  68.601  1.00  0.00     0.000 HD 
HETATM   12  H   UNL     1     -10.954   7.032  70.666  1.00  0.00     0.000 HD 
HETATM   13  C   UNL     1      -8.505   9.499  68.829  1.00  0.00    -0.122 A  
HETATM   14  O   UNL     1      -8.122  10.784  69.108  1.00  0.00    -0.152 OA 
HETATM   15  C   UNL     1      -7.864   8.937  67.720  1.00  0.00    -0.102 A  
BRANCH   9  16
HETATM   16  C   UNL     1     -10.148   9.381  70.814  1.00  0.00    -0.366 C  
HETATM   17  C   UNL     1      -9.685   8.656  72.051  1.00  0.00    -0.391 C  
HETATM   18  C   UNL     1     -10.473   7.908  72.834  1.00  0.00    -0.422 C  
HETATM   19  C   UNL     1     -11.934   7.729  72.562  1.00  0.00    -0.304 C  
HETATM   20  C   UNL     1      -9.919   7.134  73.998  1.00  0.00    -0.314 C  
HETATM   21  C   UNL     1     -12.594   8.670  71.550  1.00  0.00    -0.360 C  
HETATM   22  C   UNL     1     -11.697   9.544  70.643  1.00  0.00    -0.330 C  
BRANCH  22  23
HETATM   23  C   UNL     1     -12.132  11.021  70.651  1.00  0.00    -0.471 C  
HETATM   24  C   UNL     1     -13.019  11.475  71.553  1.00  0.00    -0.485 C  
HETATM   25  C   UNL     1     -11.539  11.968  69.646  1.00  0.00    -0.371 C  
ENDBRANCH  22  23
ENDBRANCH   9  16
ENDBRANCH   5   6
ENDBRANCH   4   5
ENDBRANCH   3   4
ENDBRANCH   2   3
TORSDOF 6
ENDMDL
MODEL      158
REMARK 921   NORMALIZED FREE ENERGY PREDICTED BY IDOCK:   -3.80 KCAL/MOL
REMARK 922        TOTAL FREE ENERGY PREDICTED BY IDOCK:   -6.06 KCAL/MOL
REMARK 923 INTER-LIGAND FREE ENERGY PREDICTED BY IDOCK:   -5.35 KCAL/MOL
REMARK 924 INTRA-LIGAND FREE ENERGY PREDICTED BY IDOCK:   -0.71 KCAL/MOL
REMARK 927      BINDING AFFINITY PREDICTED BY RF-SCORE:    0.00 PKD
ROOT
HETATM    1  C   UNL     1      -9.622  16.114  65.708  1.00  0.00    -0.292 C  
HETATM    2  C   UNL     1     -10.763  15.263  65.178  1.00  0.00    -0.455 C  
ENDROOT
BRANCH   2   3
HETATM    3  C   UNL     1     -10.611  13.804  65.610  1.00  0.00    -0.302 C  
BRANCH   3   4
HETATM    4  C   UNL     1     -10.310  13.707  67.100  1.00  0.00    -0.250 C  
BRANCH   4   5
HETATM    5  C   UNL     1     -11.431  12.990  67.852  1.00  0.00    -0.352 C  
BRANCH   5   6
HETATM    6  C   UNL     1     -11.049  11.560  68.149  1.00  0.00    -0.303 A  
HETATM    7  C   UNL     1     -11.023  10.612  67.126  1.00  0.00    -0.312 A  
HETATM    8  C   UNL     1     -10.736   9.275  67.407  1.00  0.00    -0.193 A  
HETATM    9  C   UNL     1     -10.499   8.820  68.719  1.00  0.00    -0.214 A  
HETATM   10  O   UNL     1     -10.691   8.401  66.355  1.00  0.00    -0.188 OA 
HETATM   11  H   UNL     1     -10.215  10.207  71.726  1.00  0.00     0.000 HD 
HETATM   12  H   UNL     1     -10.495   7.491  66.547  1.00  0.00     0.000 HD 
HETATM   13  C   UNL     1     -10.487   9.803  69.727  1.00  0.00    -0.250 A  
HETATM   14  O   UNL     1     -10.224   9.543  71.046  1.00  0.00    -0.297 OA 
HETATM   15  C   UNL     1     -10.744  11.150  69.448  1.00  0.00    -0.220 A  
BRANCH   9  16
HETATM   16  C   UNL     1     -10.197   7.342  69.012  1.00  0.00    -0.201 C  
HETATM   17  C   UNL     1     -11.244   6.791  69.945  1.00  0.00    -0.379 C  
HETATM   18  C   UNL     1     -11.005   6.369  71.193  1.00  0.00    -0.327 C  
HETATM   19  C   UNL     1      -9.634   6.383  71.794  1.00  0.00    -0.162 C  
HETATM   20  C   UNL     1     -12.119   5.923  72.099  1.00  0.00    -0.110 C  
HETATM   21  C   UNL     1      -8.443   6.594  70.855  1.00  0.00    -0.133 C  
HETATM   22  C   UNL     1      -8.704   7.076  69.409  1.00  0.00    -0.133 C  
BRANCH  22  23
HETATM   23  C   UNL     1      -7.969   6.210  68.370  1.00  0.00    -0.108 C  
HETATM   24  C   UNL     1      -7.269   5.126  68.746  1.00  0.00    -0.062 C  
HETATM   25  C   UNL     1      -8.056   6.576  66.915  1.00  0.00    -0.113 C  
ENDBRANCH  22  23
ENDBRANCH   9  16
ENDBRANCH   5   6
ENDBRANCH   4   5
ENDBRANCH   3   4
ENDBRANCH   2   3
TORSDOF 6
ENDMDL
MODEL      159
REMARK 921   NORMALIZED FREE ENERGY PREDICTED BY IDOCK:   -3.80 KCAL/MOL
REMARK 922        TOTAL FREE ENERGY PREDICTED BY IDOCK:   -6.06 KCAL/MOL
REMARK 923 INTER-LIGAND FREE ENERGY PREDICTED BY IDOCK:   -5.11 KCAL/MOL
REMARK 924 INTRA-LIGAND FREE ENERGY PREDICTED BY IDOCK:   -0.95 KCAL/MOL
REMARK 927      BINDING AFFINITY PREDICTED BY RF-SCORE:    0.00 PKD
ROOT
HETATM    1  C   UNL     1      -7.937   4.640  63.225  1.00  0.00    -0.083 C  
HETATM    2  C   UNL     1      -8.269   6.122  63.191  1.00  0.00    -0.020 C  
ENDROOT
BRANCH   2   3
HETATM    3  C   UNL     1      -7.000   6.974  63.216  1.00  0.00    -0.054 C  
BRANCH   3   4
HETATM    4  C   UNL     1      -7.310   8.420  62.848  1.00  0.00    -0.100 C  
BRANCH   4   5
HETATM    5  C   UNL     1      -8.781   8.757  63.090  1.00  0.00    -0.001 C  
BRANCH   5   6
HETATM    6  C   UNL     1      -8.917   9.864  64.108  1.00  0.00    -0.274 A  
HETATM    7  C   UNL     1      -7.817  10.256  64.871  1.00  0.00    -0.134 A  
HETATM    8  C   UNL     1      -7.954  11.232  65.860  1.00  0.00     0.083 A  
HETATM    9  C   UNL     1      -9.195  11.830  66.154  1.00  0.00    -0.218 A  
HETATM   10  O   UNL     1      -6.831  11.597  66.550  1.00  0.00    -0.334 OA 
HETATM   11  H   UNL     1     -12.273  11.714  64.906  1.00  0.00     0.000 HD 
HETATM   12  H   UNL     1      -6.924  12.262  67.223  1.00  0.00     0.000 HD 
HETATM   13  C   UNL     1     -10.279  11.450  65.340  1.00  0.00    -0.270 A  
HETATM   14  O   UNL     1     -11.541  11.970  65.455  1.00  0.00    -0.350 OA 
HETATM   15  C   UNL     1     -10.142  10.495  64.327  1.00  0.00    -0.380 A  
BRANCH   9  16
HETATM   16  C   UNL     1      -9.330  12.894  67.255  1.00  0.00    -0.212 C  
HETATM   17  C   UNL     1     -10.039  12.299  68.444  1.00  0.00    -0.215 C  
HETATM   18  C   UNL     1     -11.242  12.687  68.885  1.00  0.00    -0.329 C  
HETATM   19  C   UNL     1     -12.013  13.795  68.238  1.00  0.00    -0.392 C  
HETATM   20  C   UNL     1     -11.930  11.979  70.020  1.00  0.00    -0.400 C  
HETATM   21  C   UNL     1     -11.273  14.699  67.248  1.00  0.00    -0.344 C  
HETATM   22  C   UNL     1      -9.880  14.266  66.734  1.00  0.00    -0.274 C  
BRANCH  22  23
HETATM   23  C   UNL     1      -8.842  15.396  66.857  1.00  0.00    -0.281 C  
HETATM   24  C   UNL     1      -7.595  15.143  67.290  1.00  0.00    -0.236 C  
HETATM   25  C   UNL     1      -9.227  16.795  66.468  1.00  0.00    -0.294 C  
ENDBRANCH  22  23
ENDBRANCH   9  16
ENDBRANCH   5   6
ENDBRANCH   4   5
ENDBRANCH   3   4
ENDBRANCH   2   3
TORSDOF 6
ENDMDL
MODEL      160
REMARK 921   NORMALIZED FREE ENERGY PREDICTED BY IDOCK:   -3.78 KCAL/MOL
REMARK 922        TOTAL FREE ENERGY PREDICTED BY IDOCK:   -6.04 KCAL/MOL
REMARK 923 INTER-LIGAND FREE ENERGY PREDICTED BY IDOCK:   -5.38 KCAL/MOL
REMARK 924 INTRA-LIGAND FREE ENERGY PREDICTED BY IDOCK:   -0.66 KCAL/MOL
REMARK 927      BINDING AFFINITY PREDICTED BY RF-SCORE:    0.00 PKD
ROOT
HETATM    1  C   UNL     1      -6.296   9.965  62.870  1.00  0.00    -0.120 C  
HETATM    2  C   UNL     1      -7.312   9.243  63.738  1.00  0.00    -0.101 C  
ENDROOT
BRANCH   2   3
HETATM    3  C   UNL     1      -8.639   9.059  63.001  1.00  0.00    -0.166 C  
BRANCH   3   4
HETATM    4  C   UNL     1      -9.520  10.294  63.151  1.00  0.00    -0.337 C  
BRANCH   4   5
HETATM    5  C   UNL     1     -10.075  10.416  64.571  1.00  0.00    -0.365 C  
BRANCH   5   6
HETATM    6  C   UNL     1      -9.789  11.784  65.142  1.00  0.00    -0.263 A  
HETATM    7  C   UNL     1      -8.929  11.925  66.231  1.00  0.00    -0.157 A  
HETATM    8  C   UNL     1      -8.714  13.180  66.805  1.00  0.00    -0.085 A  
HETATM    9  C   UNL     1      -9.374  14.336  66.344  1.00  0.00    -0.270 A  
HETATM   10  O   UNL     1      -7.832  13.258  67.848  1.00  0.00    -0.123 OA 
HETATM   11  H   UNL     1     -11.434  15.091  63.849  1.00  0.00     0.000 HD 
HETATM   12  H   UNL     1      -7.686  14.112  68.238  1.00  0.00     0.000 HD 
HETATM   13  C   UNL     1     -10.202  14.174  65.216  1.00  0.00    -0.375 A  
HETATM   14  O   UNL     1     -10.876  15.200  64.609  1.00  0.00    -0.377 OA 
HETATM   15  C   UNL     1     -10.397  12.925  64.618  1.00  0.00    -0.366 A  
BRANCH   9  16
HETATM   16  C   UNL     1      -9.136  15.707  66.996  1.00  0.00    -0.239 C  
HETATM   17  C   UNL     1      -7.835  16.282  66.495  1.00  0.00    -0.298 C  
HETATM   18  C   UNL     1      -6.759  16.506  67.258  1.00  0.00    -0.216 C  
HETATM   19  C   UNL     1      -6.746  16.221  68.728  1.00  0.00    -0.144 C  
HETATM   20  C   UNL     1      -5.463  16.989  66.668  1.00  0.00    -0.168 C  
HETATM   21  C   UNL     1      -8.088  15.961  69.418  1.00  0.00    -0.178 C  
HETATM   22  C   UNL     1      -9.341  15.706  68.549  1.00  0.00    -0.197 C  
BRANCH  22  23
HETATM   23  C   UNL     1     -10.532  16.581  68.981  1.00  0.00    -0.303 C  
HETATM   24  C   UNL     1     -11.244  16.283  70.082  1.00  0.00    -0.340 C  
HETATM   25  C   UNL     1     -10.887  17.794  68.168  1.00  0.00    -0.193 C  
ENDBRANCH  22  23
ENDBRANCH   9  16
ENDBRANCH   5   6
ENDBRANCH   4   5
ENDBRANCH   3   4
ENDBRANCH   2   3
TORSDOF 6
ENDMDL
MODEL      161
REMARK 921   NORMALIZED FREE ENERGY PREDICTED BY IDOCK:   -3.76 KCAL/MOL
REMARK 922        TOTAL FREE ENERGY PREDICTED BY IDOCK:   -6.00 KCAL/MOL
REMARK 923 INTER-LIGAND FREE ENERGY PREDICTED BY IDOCK:   -5.23 KCAL/MOL
REMARK 924 INTRA-LIGAND FREE ENERGY PREDICTED BY IDOCK:   -0.78 KCAL/MOL
REMARK 927      BINDING AFFINITY PREDICTED BY RF-SCORE:    0.00 PKD
ROOT
HETATM    1  C   UNL     1      -9.961  14.703  65.218  1.00  0.00    -0.329 C  
HETATM    2  C   UNL     1     -10.951  13.568  65.419  1.00  0.00    -0.300 C  
ENDROOT
BRANCH   2   3
HETATM    3  C   UNL     1     -11.316  13.408  66.895  1.00  0.00    -0.351 C  
BRANCH   3   4
HETATM    4  C   UNL     1     -10.816  12.074  67.437  1.00  0.00    -0.285 C  
BRANCH   4   5
HETATM    5  C   UNL     1     -11.682  11.581  68.597  1.00  0.00    -0.389 C  
BRANCH   5   6
HETATM    6  C   UNL     1     -11.138  10.291  69.161  1.00  0.00    -0.283 A  
HETATM    7  C   UNL     1     -10.874  10.177  70.526  1.00  0.00    -0.340 A  
HETATM    8  C   UNL     1     -10.308   9.010  71.041  1.00  0.00    -0.278 A  
HETATM    9  C   UNL     1      -9.949   7.925  70.218  1.00  0.00    -0.189 A  
HETATM   10  O   UNL     1     -10.105   8.947  72.394  1.00  0.00    -0.250 OA 
HETATM   11  H   UNL     1     -10.251   7.150  67.000  1.00  0.00     0.000 HD 
HETATM   12  H   UNL     1      -9.721   8.152  72.744  1.00  0.00     0.000 HD 
HETATM   13  C   UNL     1     -10.268   8.046  68.852  1.00  0.00    -0.209 A  
HETATM   14  O   UNL     1     -10.035   7.068  67.922  1.00  0.00    -0.144 OA 
HETATM   15  C   UNL     1     -10.863   9.201  68.333  1.00  0.00    -0.098 A  
BRANCH   9  16
HETATM   16  C   UNL     1      -9.316   6.651  70.801  1.00  0.00    -0.159 C  
HETATM   17  C   UNL     1      -7.935   6.469  70.226  1.00  0.00    -0.115 C  
HETATM   18  C   UNL     1      -7.569   5.455  69.433  1.00  0.00    -0.077 C  
HETATM   19  C   UNL     1      -8.513   4.359  69.047  1.00  0.00    -0.096 C  
HETATM   20  C   UNL     1      -6.199   5.392  68.817  1.00  0.00    -0.033 C  
HETATM   21  C   UNL     1      -9.827   4.240  69.825  1.00  0.00    -0.258 C  
HETATM   22  C   UNL     1     -10.260   5.402  70.748  1.00  0.00    -0.313 C  
BRANCH  22  23
HETATM   23  C   UNL     1     -10.655   4.909  72.152  1.00  0.00    -0.232 C  
HETATM   24  C   UNL     1     -11.611   5.534  72.860  1.00  0.00    -0.280 C  
HETATM   25  C   UNL     1      -9.971   3.700  72.726  1.00  0.00    -0.215 C  
ENDBRANCH  22  23
ENDBRANCH   9  16
ENDBRANCH   5   6
ENDBRANCH   4   5
ENDBRANCH   3   4
ENDBRANCH   2   3
TORSDOF 6
ENDMDL
MODEL      162
REMARK 921   NORMALIZED FREE ENERGY PREDICTED BY IDOCK:   -3.75 KCAL/MOL
REMARK 922        TOTAL FREE ENERGY PREDICTED BY IDOCK:   -6.00 KCAL/MOL
REMARK 923 INTER-LIGAND FREE ENERGY PREDICTED BY IDOCK:   -5.55 KCAL/MOL
REMARK 924 INTRA-LIGAND FREE ENERGY PREDICTED BY IDOCK:   -0.45 KCAL/MOL
REMARK 927      BINDING AFFINITY PREDICTED BY RF-SCORE:    0.00 PKD
ROOT
HETATM    1  C   UNL     1     -11.157   6.559  67.111  1.00  0.00    -0.434 C  
HETATM    2  C   UNL     1      -9.751   6.906  67.570  1.00  0.00    -0.162 C  
ENDROOT
BRANCH   2   3
HETATM    3  C   UNL     1      -9.427   8.375  67.298  1.00  0.00    -0.196 C  
BRANCH   3   4
HETATM    4  C   UNL     1      -8.815   8.550  65.913  1.00  0.00    -0.219 C  
BRANCH   4   5
HETATM    5  C   UNL     1      -9.460   9.714  65.160  1.00  0.00    -0.332 C  
BRANCH   5   6
HETATM    6  C   UNL     1      -9.251  11.013  65.900  1.00  0.00    -0.220 A  
HETATM    7  C   UNL     1     -10.303  11.918  66.042  1.00  0.00    -0.268 A  
HETATM    8  C   UNL     1     -10.097  13.149  66.667  1.00  0.00    -0.264 A  
HETATM    9  C   UNL     1      -8.831  13.546  67.140  1.00  0.00    -0.231 A  
HETATM   10  O   UNL     1     -11.177  13.978  66.807  1.00  0.00    -0.301 OA 
HETATM   11  H   UNL     1      -5.822  12.158  67.400  1.00  0.00     0.000 HD 
HETATM   12  H   UNL     1     -11.036  14.816  67.232  1.00  0.00     0.000 HD 
HETATM   13  C   UNL     1      -7.796  12.597  67.025  1.00  0.00    -0.038 A  
HETATM   14  O   UNL     1      -6.520  12.798  67.478  1.00  0.00    -0.141 OA 
HETATM   15  C   UNL     1      -8.003  11.349  66.427  1.00  0.00    -0.088 A  
BRANCH   9  16
HETATM   16  C   UNL     1      -8.619  14.911  67.814  1.00  0.00    -0.171 C  
HETATM   17  C   UNL     1      -9.428  14.975  69.084  1.00  0.00    -0.195 C  
HETATM   18  C   UNL     1     -10.454  15.809  69.291  1.00  0.00    -0.247 C  
HETATM   19  C   UNL     1     -10.898  16.803  68.264  1.00  0.00    -0.366 C  
HETATM   20  C   UNL     1     -11.277  15.747  70.548  1.00  0.00    -0.392 C  
HETATM   21  C   UNL     1      -9.964  17.076  67.081  1.00  0.00    -0.281 C  
HETATM   22  C   UNL     1      -8.771  16.123  66.833  1.00  0.00    -0.253 C  
BRANCH  22  23
HETATM   23  C   UNL     1      -7.450  16.889  66.642  1.00  0.00    -0.303 C  
HETATM   24  C   UNL     1      -7.428  18.086  66.030  1.00  0.00    -0.271 C  
HETATM   25  C   UNL     1      -6.173  16.296  67.166  1.00  0.00    -0.176 C  
ENDBRANCH  22  23
ENDBRANCH   9  16
ENDBRANCH   5   6
ENDBRANCH   4   5
ENDBRANCH   3   4
ENDBRANCH   2   3
TORSDOF 6
ENDMDL
MODEL      163
REMARK 921   NORMALIZED FREE ENERGY PREDICTED BY IDOCK:   -3.75 KCAL/MOL
REMARK 922        TOTAL FREE ENERGY PREDICTED BY IDOCK:   -5.99 KCAL/MOL
REMARK 923 INTER-LIGAND FREE ENERGY PREDICTED BY IDOCK:   -4.94 KCAL/MOL
REMARK 924 INTRA-LIGAND FREE ENERGY PREDICTED BY IDOCK:   -1.05 KCAL/MOL
REMARK 927      BINDING AFFINITY PREDICTED BY RF-SCORE:    0.00 PKD
ROOT
HETATM    1  C   UNL     1      -8.604   4.097  64.563  1.00  0.00    -0.121 C  
HETATM    2  C   UNL     1      -7.457   3.195  64.985  1.00  0.00    -0.072 C  
ENDROOT
BRANCH   2   3
HETATM    3  C   UNL     1      -7.965   1.976  65.755  1.00  0.00    -0.078 C  
BRANCH   3   4
HETATM    4  C   UNL     1      -7.905   2.219  67.258  1.00  0.00    -0.065 C  
BRANCH   4   5
HETATM    5  C   UNL     1      -9.292   2.132  67.894  1.00  0.00    -0.223 C  
BRANCH   5   6
HETATM    6  C   UNL     1      -9.618   3.400  68.647  1.00  0.00    -0.127 A  
HETATM    7  C   UNL     1     -10.071   4.527  67.961  1.00  0.00    -0.038 A  
HETATM    8  C   UNL     1     -10.309   5.721  68.644  1.00  0.00    -0.221 A  
HETATM    9  C   UNL     1     -10.070   5.854  70.026  1.00  0.00    -0.258 A  
HETATM   10  O   UNL     1     -10.786   6.781  67.921  1.00  0.00    -0.286 OA 
HETATM   11  H   UNL     1      -9.151   3.844  72.507  1.00  0.00     0.000 HD 
HETATM   12  H   UNL     1     -10.948   7.593  68.386  1.00  0.00     0.000 HD 
HETATM   13  C   UNL     1      -9.657   4.690  70.702  1.00  0.00    -0.191 A  
HETATM   14  O   UNL     1      -9.429   4.629  72.051  1.00  0.00    -0.134 OA 
HETATM   15  C   UNL     1      -9.446   3.482  70.029  1.00  0.00    -0.253 A  
BRANCH   9  16
HETATM   16  C   UNL     1     -10.326   7.180  70.759  1.00  0.00    -0.219 C  
HETATM   17  C   UNL     1      -9.008   7.827  71.099  1.00  0.00    -0.146 C  
HETATM   18  C   UNL     1      -8.557   8.026  72.344  1.00  0.00    -0.220 C  
HETATM   19  C   UNL     1      -9.347   7.636  73.554  1.00  0.00    -0.339 C  
HETATM   20  C   UNL     1      -7.187   8.590  72.604  1.00  0.00    -0.068 C  
HETATM   21  C   UNL     1     -10.826   7.286  73.361  1.00  0.00    -0.370 C  
HETATM   22  C   UNL     1     -11.362   7.059  71.929  1.00  0.00    -0.291 C  
BRANCH  22  23
HETATM   23  C   UNL     1     -12.645   7.865  71.658  1.00  0.00    -0.344 C  
HETATM   24  C   UNL     1     -13.814   7.243  71.425  1.00  0.00    -0.416 C  
HETATM   25  C   UNL     1     -12.589   9.366  71.674  1.00  0.00    -0.460 C  
ENDBRANCH  22  23
ENDBRANCH   9  16
ENDBRANCH   5   6
ENDBRANCH   4   5
ENDBRANCH   3   4
ENDBRANCH   2   3
TORSDOF 6
ENDMDL
MODEL      164
REMARK 921   NORMALIZED FREE ENERGY PREDICTED BY IDOCK:   -3.73 KCAL/MOL
REMARK 922        TOTAL FREE ENERGY PREDICTED BY IDOCK:   -5.96 KCAL/MOL
REMARK 923 INTER-LIGAND FREE ENERGY PREDICTED BY IDOCK:   -5.48 KCAL/MOL
REMARK 924 INTRA-LIGAND FREE ENERGY PREDICTED BY IDOCK:   -0.49 KCAL/MOL
REMARK 927      BINDING AFFINITY PREDICTED BY RF-SCORE:    0.00 PKD
ROOT
HETATM    1  C   UNL     1     -11.960  13.715  63.856  1.00  0.00    -0.455 C  
HETATM    2  C   UNL     1     -12.270  12.302  64.319  1.00  0.00    -0.514 C  
ENDROOT
BRANCH   2   3
HETATM    3  C   UNL     1     -10.988  11.513  64.588  1.00  0.00    -0.353 C  
BRANCH   3   4
HETATM    4  C   UNL     1     -10.302  12.007  65.856  1.00  0.00    -0.278 C  
BRANCH   4   5
HETATM    5  C   UNL     1     -11.135  11.696  67.100  1.00  0.00    -0.354 C  
BRANCH   5   6
HETATM    6  C   UNL     1     -10.730  10.371  67.698  1.00  0.00    -0.335 A  
HETATM    7  C   UNL     1     -10.374   9.306  66.871  1.00  0.00    -0.316 A  
HETATM    8  C   UNL     1     -10.064   8.059  67.418  1.00  0.00    -0.228 A  
HETATM    9  C   UNL     1     -10.131   7.811  68.803  1.00  0.00    -0.205 A  
HETATM   10  O   UNL     1      -9.688   7.064  66.556  1.00  0.00    -0.257 OA 
HETATM   11  H   UNL     1     -10.722   9.605  71.537  1.00  0.00     0.000 HD 
HETATM   12  H   UNL     1      -9.477   6.216  66.929  1.00  0.00     0.000 HD 
HETATM   13  C   UNL     1     -10.449   8.914  69.619  1.00  0.00    -0.216 A  
HETATM   14  O   UNL     1     -10.508   8.862  70.986  1.00  0.00    -0.211 OA 
HETATM   15  C   UNL     1     -10.731  10.173  69.080  1.00  0.00    -0.254 A  
BRANCH   9  16
HETATM   16  C   UNL     1      -9.798   6.429  69.387  1.00  0.00    -0.170 C  
HETATM   17  C   UNL     1     -10.912   5.989  70.301  1.00  0.00    -0.412 C  
HETATM   18  C   UNL     1     -10.786   5.809  71.622  1.00  0.00    -0.316 C  
HETATM   19  C   UNL     1      -9.486   6.010  72.337  1.00  0.00    -0.153 C  
HETATM   20  C   UNL     1     -11.968   5.464  72.485  1.00  0.00    -0.025 C  
HETATM   21  C   UNL     1      -8.215   6.124  71.491  1.00  0.00    -0.118 C  
HETATM   22  C   UNL     1      -8.345   6.327  69.964  1.00  0.00    -0.129 C  
BRANCH  22  23
HETATM   23  C   UNL     1      -7.471   5.337  69.173  1.00  0.00    -0.069 C  
HETATM   24  C   UNL     1      -6.986   5.660  67.962  1.00  0.00    -0.066 C  
HETATM   25  C   UNL     1      -7.143   4.000  69.776  1.00  0.00    -0.042 C  
ENDBRANCH  22  23
ENDBRANCH   9  16
ENDBRANCH   5   6
ENDBRANCH   4   5
ENDBRANCH   3   4
ENDBRANCH   2   3
TORSDOF 6
ENDMDL
MODEL      165
REMARK 921   NORMALIZED FREE ENERGY PREDICTED BY IDOCK:   -3.72 KCAL/MOL
REMARK 922        TOTAL FREE ENERGY PREDICTED BY IDOCK:   -5.96 KCAL/MOL
REMARK 923 INTER-LIGAND FREE ENERGY PREDICTED BY IDOCK:   -5.09 KCAL/MOL
REMARK 924 INTRA-LIGAND FREE ENERGY PREDICTED BY IDOCK:   -0.86 KCAL/MOL
REMARK 927      BINDING AFFINITY PREDICTED BY RF-SCORE:    0.00 PKD
ROOT
HETATM    1  C   UNL     1     -10.654  19.622  67.504  1.00  0.00    -0.577 C  
HETATM    2  C   UNL     1      -9.789  19.157  66.345  1.00  0.00    -0.437 C  
ENDROOT
BRANCH   2   3
HETATM    3  C   UNL     1      -8.648  18.261  66.831  1.00  0.00    -0.270 C  
BRANCH   3   4
HETATM    4  C   UNL     1      -8.646  16.932  66.085  1.00  0.00    -0.277 C  
BRANCH   4   5
HETATM    5  C   UNL     1      -9.938  16.152  66.328  1.00  0.00    -0.336 C  
BRANCH   5   6
HETATM    6  C   UNL     1      -9.655  14.674  66.457  1.00  0.00    -0.308 A  
HETATM    7  C   UNL     1     -10.382  13.752  65.705  1.00  0.00    -0.315 A  
HETATM    8  C   UNL     1     -10.171  12.381  65.871  1.00  0.00    -0.251 A  
HETATM    9  C   UNL     1      -9.257  11.874  66.815  1.00  0.00    -0.194 A  
HETATM   10  O   UNL     1     -10.890  11.528  65.078  1.00  0.00    -0.296 OA 
HETATM   11  H   UNL     1      -7.031  13.148  68.927  1.00  0.00     0.000 HD 
HETATM   12  H   UNL     1     -10.746  10.596  65.191  1.00  0.00     0.000 HD 
HETATM   13  C   UNL     1      -8.504  12.826  67.529  1.00  0.00    -0.181 A  
HETATM   14  O   UNL     1      -7.539  12.506  68.446  1.00  0.00    -0.118 OA 
HETATM   15  C   UNL     1      -8.689  14.200  67.346  1.00  0.00    -0.217 A  
BRANCH   9  16
HETATM   16  C   UNL     1      -9.046  10.362  66.993  1.00  0.00    -0.153 C  
HETATM   17  C   UNL     1      -9.694   9.912  68.277  1.00  0.00    -0.159 C  
HETATM   18  C   UNL     1      -9.032   9.427  69.334  1.00  0.00    -0.157 C  
HETATM   19  C   UNL     1      -7.544   9.257  69.338  1.00  0.00    -0.080 C  
HETATM   20  C   UNL     1      -9.737   9.091  70.619  1.00  0.00    -0.287 C  
HETATM   21  C   UNL     1      -6.810   9.352  67.997  1.00  0.00    -0.074 C  
HETATM   22  C   UNL     1      -7.564   9.906  66.766  1.00  0.00    -0.095 C  
BRANCH  22  23
HETATM   23  C   UNL     1      -7.416   8.990  65.538  1.00  0.00    -0.086 C  
HETATM   24  C   UNL     1      -8.383   8.923  64.607  1.00  0.00    -0.179 C  
HETATM   25  C   UNL     1      -6.163   8.177  65.373  1.00  0.00    -0.045 C  
ENDBRANCH  22  23
ENDBRANCH   9  16
ENDBRANCH   5   6
ENDBRANCH   4   5
ENDBRANCH   3   4
ENDBRANCH   2   3
TORSDOF 6
ENDMDL
MODEL      166
REMARK 921   NORMALIZED FREE ENERGY PREDICTED BY IDOCK:   -3.71 KCAL/MOL
REMARK 922        TOTAL FREE ENERGY PREDICTED BY IDOCK:   -5.94 KCAL/MOL
REMARK 923 INTER-LIGAND FREE ENERGY PREDICTED BY IDOCK:   -5.23 KCAL/MOL
REMARK 924 INTRA-LIGAND FREE ENERGY PREDICTED BY IDOCK:   -0.71 KCAL/MOL
REMARK 927      BINDING AFFINITY PREDICTED BY RF-SCORE:    0.00 PKD
ROOT
HETATM    1  C   UNL     1     -11.304  12.281  63.743  1.00  0.00    -0.534 C  
HETATM    2  C   UNL     1     -10.679  11.124  64.504  1.00  0.00    -0.368 C  
ENDROOT
BRANCH   2   3
HETATM    3  C   UNL     1      -9.606  11.616  65.475  1.00  0.00    -0.241 C  
BRANCH   3   4
HETATM    4  C   UNL     1     -10.221  12.000  66.816  1.00  0.00    -0.225 C  
BRANCH   4   5
HETATM    5  C   UNL     1     -11.262  10.975  67.268  1.00  0.00    -0.330 C  
BRANCH   5   6
HETATM    6  C   UNL     1     -10.612   9.862  68.053  1.00  0.00    -0.288 A  
HETATM    7  C   UNL     1     -10.518   8.581  67.509  1.00  0.00    -0.328 A  
HETATM    8  C   UNL     1      -9.980   7.532  68.257  1.00  0.00    -0.173 A  
HETATM    9  C   UNL     1      -9.547   7.707  69.587  1.00  0.00    -0.160 A  
HETATM   10  O   UNL     1      -9.882   6.307  67.655  1.00  0.00    -0.116 OA 
HETATM   11  H   UNL     1      -9.229  10.258  71.692  1.00  0.00     0.000 HD 
HETATM   12  H   UNL     1      -9.515   5.594  68.165  1.00  0.00     0.000 HD 
HETATM   13  C   UNL     1      -9.611   9.018  70.096  1.00  0.00    -0.193 A  
HETATM   14  O   UNL     1      -9.186   9.373  71.349  1.00  0.00    -0.277 OA 
HETATM   15  C   UNL     1     -10.122  10.079  69.341  1.00  0.00    -0.235 A  
BRANCH   9  16
HETATM   16  C   UNL     1      -8.968   6.539  70.400  1.00  0.00    -0.152 C  
HETATM   17  C   UNL     1      -7.598   6.194  69.877  1.00  0.00    -0.088 C  
HETATM   18  C   UNL     1      -7.277   5.035  69.289  1.00  0.00    -0.057 C  
HETATM   19  C   UNL     1      -8.269   3.927  69.108  1.00  0.00    -0.072 C  
HETATM   20  C   UNL     1      -5.913   4.800  68.703  1.00  0.00    -0.026 C  
HETATM   21  C   UNL     1      -9.585   4.012  69.887  1.00  0.00    -0.281 C  
HETATM   22  C   UNL     1      -9.965   5.343  70.576  1.00  0.00    -0.288 C  
BRANCH  22  23
HETATM   23  C   UNL     1     -10.377   5.137  72.044  1.00  0.00    -0.274 C  
HETATM   24  C   UNL     1     -10.951   6.129  72.746  1.00  0.00    -0.294 C  
HETATM   25  C   UNL     1     -10.151   3.800  72.692  1.00  0.00    -0.228 C  
ENDBRANCH  22  23
ENDBRANCH   9  16
ENDBRANCH   5   6
ENDBRANCH   4   5
ENDBRANCH   3   4
ENDBRANCH   2   3
TORSDOF 6
ENDMDL
MODEL      167
REMARK 921   NORMALIZED FREE ENERGY PREDICTED BY IDOCK:   -3.69 KCAL/MOL
REMARK 922        TOTAL FREE ENERGY PREDICTED BY IDOCK:   -5.91 KCAL/MOL
REMARK 923 INTER-LIGAND FREE ENERGY PREDICTED BY IDOCK:   -5.31 KCAL/MOL
REMARK 924 INTRA-LIGAND FREE ENERGY PREDICTED BY IDOCK:   -0.61 KCAL/MOL
REMARK 927      BINDING AFFINITY PREDICTED BY RF-SCORE:    0.00 PKD
ROOT
HETATM    1  C   UNL     1     -12.450  15.470  71.531  1.00  0.00    -0.474 C  
HETATM    2  C   UNL     1     -12.180  14.020  71.170  1.00  0.00    -0.417 C  
ENDROOT
BRANCH   2   3
HETATM    3  C   UNL     1     -11.785  13.879  69.699  1.00  0.00    -0.370 C  
BRANCH   3   4
HETATM    4  C   UNL     1     -11.652  12.412  69.310  1.00  0.00    -0.379 C  
BRANCH   4   5
HETATM    5  C   UNL     1     -12.168  11.491  70.416  1.00  0.00    -0.442 C  
BRANCH   5   6
HETATM    6  C   UNL     1     -11.195  10.365  70.673  1.00  0.00    -0.358 A  
HETATM    7  C   UNL     1     -11.492   9.382  71.617  1.00  0.00    -0.463 A  
HETATM    8  C   UNL     1     -10.567   8.377  71.906  1.00  0.00    -0.300 A  
HETATM    9  C   UNL     1      -9.298   8.330  71.297  1.00  0.00    -0.218 A  
HETATM   10  O   UNL     1     -10.931   7.422  72.816  1.00  0.00    -0.283 OA 
HETATM   11  H   UNL     1      -7.708  10.034  68.928  1.00  0.00     0.000 HD 
HETATM   12  H   UNL     1     -10.302   6.739  73.013  1.00  0.00     0.000 HD 
HETATM   13  C   UNL     1      -9.041   9.306  70.315  1.00  0.00    -0.237 A  
HETATM   14  O   UNL     1      -7.881   9.376  69.590  1.00  0.00    -0.086 OA 
HETATM   15  C   UNL     1      -9.975  10.298  69.999  1.00  0.00    -0.123 A  
BRANCH   9  16
HETATM   16  C   UNL     1      -8.287   7.224  71.636  1.00  0.00    -0.108 C  
HETATM   17  C   UNL     1      -8.661   5.960  70.906  1.00  0.00    -0.131 C  
HETATM   18  C   UNL     1      -9.052   4.826  71.499  1.00  0.00    -0.172 C  
HETATM   19  C   UNL     1      -9.138   4.688  72.987  1.00  0.00    -0.128 C  
HETATM   20  C   UNL     1      -9.505   3.635  70.700  1.00  0.00    -0.242 C  
HETATM   21  C   UNL     1      -8.469   5.767  73.845  1.00  0.00    -0.118 C  
HETATM   22  C   UNL     1      -8.008   7.081  73.172  1.00  0.00    -0.109 C  
BRANCH  22  23
HETATM   23  C   UNL     1      -6.556   7.438  73.537  1.00  0.00    -0.065 C  
HETATM   24  C   UNL     1      -5.679   6.483  73.893  1.00  0.00    -0.055 C  
HETATM   25  C   UNL     1      -6.113   8.872  73.474  1.00  0.00    -0.028 C  
ENDBRANCH  22  23
ENDBRANCH   9  16
ENDBRANCH   5   6
ENDBRANCH   4   5
ENDBRANCH   3   4
ENDBRANCH   2   3
TORSDOF 6
ENDMDL
MODEL      168
REMARK 921   NORMALIZED FREE ENERGY PREDICTED BY IDOCK:   -3.62 KCAL/MOL
REMARK 922        TOTAL FREE ENERGY PREDICTED BY IDOCK:   -5.82 KCAL/MOL
REMARK 923 INTER-LIGAND FREE ENERGY PREDICTED BY IDOCK:   -4.74 KCAL/MOL
REMARK 924 INTRA-LIGAND FREE ENERGY PREDICTED BY IDOCK:   -1.08 KCAL/MOL
REMARK 927      BINDING AFFINITY PREDICTED BY RF-SCORE:    0.00 PKD
ROOT
HETATM    1  C   UNL     1      -9.061   4.268  65.404  1.00  0.00    -0.141 C  
HETATM    2  C   UNL     1      -8.057   3.387  66.127  1.00  0.00    -0.092 C  
ENDROOT
BRANCH   2   3
HETATM    3  C   UNL     1      -8.751   2.463  67.129  1.00  0.00    -0.140 C  
BRANCH   3   4
HETATM    4  C   UNL     1      -8.218   2.690  68.538  1.00  0.00    -0.076 C  
BRANCH   4   5
HETATM    5  C   UNL     1      -9.331   3.115  69.496  1.00  0.00    -0.228 C  
BRANCH   5   6
HETATM    6  C   UNL     1      -9.321   4.611  69.700  1.00  0.00    -0.212 A  
HETATM    7  C   UNL     1      -8.520   5.179  70.691  1.00  0.00    -0.118 A  
HETATM    8  C   UNL     1      -8.558   6.554  70.928  1.00  0.00    -0.135 A  
HETATM    9  C   UNL     1      -9.419   7.413  70.217  1.00  0.00    -0.165 A  
HETATM   10  O   UNL     1      -7.723   7.056  71.890  1.00  0.00    -0.092 OA 
HETATM   11  H   UNL     1     -11.547   7.119  67.681  1.00  0.00     0.000 HD 
HETATM   12  H   UNL     1      -7.749   7.992  72.051  1.00  0.00     0.000 HD 
HETATM   13  C   UNL     1     -10.183   6.822  69.193  1.00  0.00    -0.181 A  
HETATM   14  O   UNL     1     -11.031   7.517  68.373  1.00  0.00    -0.044 OA 
HETATM   15  C   UNL     1     -10.127   5.449  68.929  1.00  0.00    -0.265 A  
BRANCH   9  16
HETATM   16  C   UNL     1      -9.457   8.924  70.500  1.00  0.00    -0.243 C  
HETATM   17  C   UNL     1     -10.670   9.248  71.333  1.00  0.00    -0.432 C  
HETATM   18  C   UNL     1     -11.696  10.002  70.921  1.00  0.00    -0.462 C  
HETATM   19  C   UNL     1     -11.732  10.634  69.564  1.00  0.00    -0.356 C  
HETATM   20  C   UNL     1     -12.919  10.201  71.773  1.00  0.00    -0.567 C  
HETATM   21  C   UNL     1     -10.431  10.667  68.756  1.00  0.00    -0.215 C  
HETATM   22  C   UNL     1      -9.236   9.805  69.223  1.00  0.00    -0.197 C  
BRANCH  22  23
HETATM   23  C   UNL     1      -7.930  10.617  69.293  1.00  0.00    -0.139 C  
HETATM   24  C   UNL     1      -7.703  11.634  68.444  1.00  0.00    -0.130 C  
HETATM   25  C   UNL     1      -6.907  10.277  70.341  1.00  0.00    -0.109 C  
ENDBRANCH  22  23
ENDBRANCH   9  16
ENDBRANCH   5   6
ENDBRANCH   4   5
ENDBRANCH   3   4
ENDBRANCH   2   3
TORSDOF 6
ENDMDL
MODEL      169
REMARK 921   NORMALIZED FREE ENERGY PREDICTED BY IDOCK:   -3.62 KCAL/MOL
REMARK 922        TOTAL FREE ENERGY PREDICTED BY IDOCK:   -5.81 KCAL/MOL
REMARK 923 INTER-LIGAND FREE ENERGY PREDICTED BY IDOCK:   -4.58 KCAL/MOL
REMARK 924 INTRA-LIGAND FREE ENERGY PREDICTED BY IDOCK:   -1.24 KCAL/MOL
REMARK 927      BINDING AFFINITY PREDICTED BY RF-SCORE:    0.00 PKD
ROOT
HETATM    1  C   UNL     1      -8.992  10.234  64.307  1.00  0.00    -0.261 C  
HETATM    2  C   UNL     1     -10.117  11.240  64.477  1.00  0.00    -0.348 C  
ENDROOT
BRANCH   2   3
HETATM    3  C   UNL     1      -9.984  12.001  65.796  1.00  0.00    -0.266 C  
BRANCH   3   4
HETATM    4  C   UNL     1     -10.909  11.416  66.857  1.00  0.00    -0.335 C  
BRANCH   4   5
HETATM    5  C   UNL     1     -10.124  10.915  68.069  1.00  0.00    -0.197 C  
BRANCH   5   6
HETATM    6  C   UNL     1      -9.934   9.418  68.002  1.00  0.00    -0.209 A  
HETATM    7  C   UNL     1     -10.854   8.623  67.321  1.00  0.00    -0.077 A  
HETATM    8  C   UNL     1     -10.719   7.233  67.314  1.00  0.00    -0.321 A  
HETATM    9  C   UNL     1      -9.687   6.578  68.013  1.00  0.00    -0.119 A  
HETATM   10  O   UNL     1     -11.635   6.510  66.599  1.00  0.00    -0.678 OA 
HETATM   11  H   UNL     1      -7.018   7.495  69.768  1.00  0.00     0.000 HD 
HETATM   12  H   UNL     1     -11.542   5.564  66.594  1.00  0.00     0.000 HD 
HETATM   13  C   UNL     1      -8.745   7.405  68.655  1.00  0.00    -0.128 A  
HETATM   14  O   UNL     1      -7.653   6.937  69.336  1.00  0.00    -0.095 OA 
HETATM   15  C   UNL     1      -8.858   8.800  68.641  1.00  0.00    -0.138 A  
BRANCH   9  16
HETATM   16  C   UNL     1      -9.560   5.046  68.005  1.00  0.00    -0.181 C  
HETATM   17  C   UNL     1      -9.909   4.507  69.368  1.00  0.00    -0.260 C  
HETATM   18  C   UNL     1      -9.049   3.880  70.181  1.00  0.00    -0.191 C  
HETATM   19  C   UNL     1      -7.624   3.627  69.799  1.00  0.00    -0.051 C  
HETATM   20  C   UNL     1      -9.445   3.456  71.569  1.00  0.00    -0.223 C  
HETATM   21  C   UNL     1      -7.234   3.816  68.329  1.00  0.00    -0.054 C  
HETATM   22  C   UNL     1      -8.219   4.532  67.378  1.00  0.00    -0.101 C  
BRANCH  22  23
HETATM   23  C   UNL     1      -8.449   3.739  66.079  1.00  0.00    -0.110 C  
HETATM   24  C   UNL     1      -8.824   4.360  64.948  1.00  0.00    -0.143 C  
HETATM   25  C   UNL     1      -8.230   2.252  66.076  1.00  0.00    -0.089 C  
ENDBRANCH  22  23
ENDBRANCH   9  16
ENDBRANCH   5   6
ENDBRANCH   4   5
ENDBRANCH   3   4
ENDBRANCH   2   3
TORSDOF 6
ENDMDL
MODEL      170
REMARK 921   NORMALIZED FREE ENERGY PREDICTED BY IDOCK:   -3.59 KCAL/MOL
REMARK 922        TOTAL FREE ENERGY PREDICTED BY IDOCK:   -5.78 KCAL/MOL
REMARK 923 INTER-LIGAND FREE ENERGY PREDICTED BY IDOCK:   -4.92 KCAL/MOL
REMARK 924 INTRA-LIGAND FREE ENERGY PREDICTED BY IDOCK:   -0.86 KCAL/MOL
REMARK 927      BINDING AFFINITY PREDICTED BY RF-SCORE:    0.00 PKD
ROOT
HETATM    1  C   UNL     1      -5.625  19.330  70.844  1.00  0.00    -0.216 C  
HETATM    2  C   UNL     1      -6.496  19.994  69.792  1.00  0.00    -0.370 C  
ENDROOT
BRANCH   2   3
HETATM    3  C   UNL     1      -5.992  19.687  68.381  1.00  0.00    -0.263 C  
BRANCH   3   4
HETATM    4  C   UNL     1      -7.090  19.051  67.538  1.00  0.00    -0.226 C  
BRANCH   4   5
HETATM    5  C   UNL     1      -8.244  18.549  68.407  1.00  0.00    -0.351 C  
BRANCH   5   6
HETATM    6  C   UNL     1      -8.367  17.047  68.319  1.00  0.00    -0.228 A  
HETATM    7  C   UNL     1      -9.502  16.406  68.814  1.00  0.00    -0.247 A  
HETATM    8  C   UNL     1      -9.592  15.012  68.796  1.00  0.00    -0.220 A  
HETATM    9  C   UNL     1      -8.543  14.201  68.320  1.00  0.00    -0.175 A  
HETATM   10  O   UNL     1     -10.746  14.445  69.264  1.00  0.00    -0.259 OA 
HETATM   11  H   UNL     1      -5.593  14.696  66.872  1.00  0.00     0.000 HD 
HETATM   12  H   UNL     1     -10.806  13.496  69.251  1.00  0.00     0.000 HD 
HETATM   13  C   UNL     1      -7.428  14.874  67.784  1.00  0.00    -0.163 A  
HETATM   14  O   UNL     1      -6.345  14.242  67.234  1.00  0.00    -0.296 OA 
HETATM   15  C   UNL     1      -7.345  16.271  67.772  1.00  0.00    -0.149 A  
BRANCH   9  16
HETATM   16  C   UNL     1      -8.653  12.668  68.318  1.00  0.00    -0.167 C  
HETATM   17  C   UNL     1      -7.406  12.075  68.922  1.00  0.00    -0.067 C  
HETATM   18  C   UNL     1      -6.524  11.320  68.257  1.00  0.00    -0.056 C  
HETATM   19  C   UNL     1      -6.704  10.961  66.814  1.00  0.00    -0.120 C  
HETATM   20  C   UNL     1      -5.251  10.844  68.901  1.00  0.00    -0.041 C  
HETATM   21  C   UNL     1      -8.077  11.209  66.181  1.00  0.00    -0.111 C  
HETATM   22  C   UNL     1      -9.108  12.075  66.941  1.00  0.00    -0.196 C  
BRANCH  22  23
HETATM   23  C   UNL     1     -10.485  11.393  67.025  1.00  0.00    -0.271 C  
HETATM   24  C   UNL     1     -11.599  12.035  66.632  1.00  0.00    -0.389 C  
HETATM   25  C   UNL     1     -10.578   9.983  67.536  1.00  0.00    -0.336 C  
ENDBRANCH  22  23
ENDBRANCH   9  16
ENDBRANCH   5   6
ENDBRANCH   4   5
ENDBRANCH   3   4
ENDBRANCH   2   3
TORSDOF 6
ENDMDL
MODEL      171
REMARK 921   NORMALIZED FREE ENERGY PREDICTED BY IDOCK:   -3.59 KCAL/MOL
REMARK 922        TOTAL FREE ENERGY PREDICTED BY IDOCK:   -5.77 KCAL/MOL
REMARK 923 INTER-LIGAND FREE ENERGY PREDICTED BY IDOCK:   -4.81 KCAL/MOL
REMARK 924 INTRA-LIGAND FREE ENERGY PREDICTED BY IDOCK:   -0.96 KCAL/MOL
REMARK 927      BINDING AFFINITY PREDICTED BY RF-SCORE:    0.00 PKD
ROOT
HETATM    1  C   UNL     1     -10.632  12.818  64.202  1.00  0.00    -0.441 C  
HETATM    2  C   UNL     1     -11.084  11.371  64.103  1.00  0.00    -0.382 C  
ENDROOT
BRANCH   2   3
HETATM    3  C   UNL     1     -10.096  10.433  64.798  1.00  0.00    -0.387 C  
BRANCH   3   4
HETATM    4  C   UNL     1      -9.105  11.220  65.646  1.00  0.00    -0.203 C  
BRANCH   4   5
HETATM    5  C   UNL     1      -7.895  10.367  66.027  1.00  0.00    -0.142 C  
BRANCH   5   6
HETATM    6  C   UNL     1      -8.217   9.475  67.202  1.00  0.00    -0.113 A  
HETATM    7  C   UNL     1      -8.656  10.028  68.405  1.00  0.00    -0.113 A  
HETATM    8  C   UNL     1      -8.890   9.213  69.514  1.00  0.00    -0.149 A  
HETATM    9  C   UNL     1      -8.662   7.824  69.483  1.00  0.00    -0.135 A  
HETATM   10  O   UNL     1      -9.354   9.812  70.654  1.00  0.00    -0.325 OA 
HETATM   11  H   UNL     1      -7.777   5.586  67.191  1.00  0.00     0.000 HD 
HETATM   12  H   UNL     1      -9.513   9.257  71.409  1.00  0.00     0.000 HD 
HETATM   13  C   UNL     1      -8.262   7.284  68.245  1.00  0.00    -0.125 A  
HETATM   14  O   UNL     1      -8.046   5.950  68.026  1.00  0.00    -0.104 OA 
HETATM   15  C   UNL     1      -8.055   8.091  67.122  1.00  0.00    -0.117 A  
BRANCH   9  16
HETATM   16  C   UNL     1      -8.913   6.943  70.718  1.00  0.00    -0.150 C  
HETATM   17  C   UNL     1      -7.604   6.381  71.208  1.00  0.00    -0.094 C  
HETATM   18  C   UNL     1      -7.285   5.081  71.205  1.00  0.00    -0.068 C  
HETATM   19  C   UNL     1      -8.232   4.026  70.723  1.00  0.00    -0.076 C  
HETATM   20  C   UNL     1      -5.921   4.604  71.619  1.00  0.00    -0.017 C  
HETATM   21  C   UNL     1      -9.698   4.418  70.520  1.00  0.00    -0.287 C  
HETATM   22  C   UNL     1     -10.081   5.916  70.527  1.00  0.00    -0.254 C  
BRANCH  22  23
HETATM   23  C   UNL     1     -11.271   6.205  71.460  1.00  0.00    -0.346 C  
HETATM   24  C   UNL     1     -12.230   7.077  71.106  1.00  0.00    -0.427 C  
HETATM   25  C   UNL     1     -11.366   5.484  72.775  1.00  0.00    -0.359 C  
ENDBRANCH  22  23
ENDBRANCH   9  16
ENDBRANCH   5   6
ENDBRANCH   4   5
ENDBRANCH   3   4
ENDBRANCH   2   3
TORSDOF 6
ENDMDL
MODEL      172
REMARK 921   NORMALIZED FREE ENERGY PREDICTED BY IDOCK:   -3.58 KCAL/MOL
REMARK 922        TOTAL FREE ENERGY PREDICTED BY IDOCK:   -5.77 KCAL/MOL
REMARK 923 INTER-LIGAND FREE ENERGY PREDICTED BY IDOCK:   -5.29 KCAL/MOL
REMARK 924 INTRA-LIGAND FREE ENERGY PREDICTED BY IDOCK:   -0.48 KCAL/MOL
REMARK 927      BINDING AFFINITY PREDICTED BY RF-SCORE:    0.00 PKD
ROOT
HETATM    1  C   UNL     1     -12.782  16.102  73.734  1.00  0.00    -0.684 C  
HETATM    2  C   UNL     1     -13.126  15.512  72.377  1.00  0.00    -0.527 C  
ENDROOT
BRANCH   2   3
HETATM    3  C   UNL     1     -14.007  14.271  72.519  1.00  0.00    -0.519 C  
BRANCH   3   4
HETATM    4  C   UNL     1     -13.199  13.000  72.288  1.00  0.00    -0.539 C  
BRANCH   4   5
HETATM    5  C   UNL     1     -12.899  12.790  70.803  1.00  0.00    -0.109 C  
BRANCH   5   6
HETATM    6  C   UNL     1     -11.907  11.669  70.610  1.00  0.00    -0.238 A  
HETATM    7  C   UNL     1     -11.140  11.603  69.447  1.00  0.00    -0.268 A  
HETATM    8  C   UNL     1     -10.270  10.531  69.233  1.00  0.00    -0.225 A  
HETATM    9  C   UNL     1     -10.156   9.467  70.149  1.00  0.00    -0.273 A  
HETATM   10  O   UNL     1      -9.520  10.542  68.089  1.00  0.00    -0.146 OA 
HETATM   11  H   UNL     1     -11.380   8.740  73.151  1.00  0.00     0.000 HD 
HETATM   12  H   UNL     1      -8.928   9.813  67.945  1.00  0.00     0.000 HD 
HETATM   13  C   UNL     1     -10.906   9.580  71.335  1.00  0.00    -0.312 A  
HETATM   14  O   UNL     1     -10.874   8.663  72.351  1.00  0.00    -0.343 OA 
HETATM   15  C   UNL     1     -11.757  10.666  71.568  1.00  0.00     0.186 A  
BRANCH   9  16
HETATM   16  C   UNL     1      -9.202   8.289  69.892  1.00  0.00    -0.154 C  
HETATM   17  C   UNL     1      -7.778   8.781  69.920  1.00  0.00    -0.081 C  
HETATM   18  C   UNL     1      -6.952   8.779  68.867  1.00  0.00    -0.062 C  
HETATM   19  C   UNL     1      -7.363   8.253  67.527  1.00  0.00    -0.093 C  
HETATM   20  C   UNL     1      -5.574   9.377  68.946  1.00  0.00    -0.036 C  
HETATM   21  C   UNL     1      -8.648   7.422  67.448  1.00  0.00    -0.118 C  
HETATM   22  C   UNL     1      -9.609   7.412  68.659  1.00  0.00    -0.146 C  
BRANCH  22  23
HETATM   23  C   UNL     1     -10.009   5.982  69.067  1.00  0.00    -0.199 C  
HETATM   24  C   UNL     1     -10.207   5.662  70.358  1.00  0.00    -0.302 C  
HETATM   25  C   UNL     1     -10.200   4.939  68.002  1.00  0.00    -0.105 C  
ENDBRANCH  22  23
ENDBRANCH   9  16
ENDBRANCH   5   6
ENDBRANCH   4   5
ENDBRANCH   3   4
ENDBRANCH   2   3
TORSDOF 6
ENDMDL
MODEL      173
REMARK 921   NORMALIZED FREE ENERGY PREDICTED BY IDOCK:   -3.57 KCAL/MOL
REMARK 922        TOTAL FREE ENERGY PREDICTED BY IDOCK:   -5.76 KCAL/MOL
REMARK 923 INTER-LIGAND FREE ENERGY PREDICTED BY IDOCK:   -4.64 KCAL/MOL
REMARK 924 INTRA-LIGAND FREE ENERGY PREDICTED BY IDOCK:   -1.11 KCAL/MOL
REMARK 927      BINDING AFFINITY PREDICTED BY RF-SCORE:    0.00 PKD
ROOT
HETATM    1  C   UNL     1      -9.237   9.999  63.576  1.00  0.00    -0.315 C  
HETATM    2  C   UNL     1      -7.858  10.235  64.168  1.00  0.00    -0.111 C  
ENDROOT
BRANCH   2   3
HETATM    3  C   UNL     1      -7.474   9.117  65.137  1.00  0.00    -0.097 C  
BRANCH   3   4
HETATM    4  C   UNL     1      -6.356   9.568  66.070  1.00  0.00    -0.069 C  
BRANCH   4   5
HETATM    5  C   UNL     1      -6.867   9.773  67.496  1.00  0.00    -0.082 C  
BRANCH   5   6
HETATM    6  C   UNL     1      -7.443  11.159  67.665  1.00  0.00    -0.100 A  
HETATM    7  C   UNL     1      -6.600  12.268  67.718  1.00  0.00    -0.108 A  
HETATM    8  C   UNL     1      -7.123  13.544  67.941  1.00  0.00    -0.140 A  
HETATM    9  C   UNL     1      -8.497  13.761  68.158  1.00  0.00    -0.173 A  
HETATM   10  O   UNL     1      -6.248  14.596  67.946  1.00  0.00    -0.139 OA 
HETATM   11  H   UNL     1     -11.257  11.911  68.117  1.00  0.00     0.000 HD 
HETATM   12  H   UNL     1      -6.604  15.464  68.098  1.00  0.00     0.000 HD 
HETATM   13  C   UNL     1      -9.332  12.632  68.055  1.00  0.00    -0.209 A  
HETATM   14  O   UNL     1     -10.694  12.673  68.187  1.00  0.00    -0.211 OA 
HETATM   15  C   UNL     1      -8.818  11.356  67.801  1.00  0.00    -0.143 A  
BRANCH   9  16
HETATM   16  C   UNL     1      -9.054  15.171  68.415  1.00  0.00    -0.185 C  
HETATM   17  C   UNL     1      -9.618  15.241  69.810  1.00  0.00    -0.140 C  
HETATM   18  C   UNL     1     -10.911  15.430  70.100  1.00  0.00    -0.327 C  
HETATM   19  C   UNL     1     -11.950  15.618  69.039  1.00  0.00    -0.323 C  
HETATM   20  C   UNL     1     -11.415  15.390  71.516  1.00  0.00    -0.478 C  
HETATM   21  C   UNL     1     -11.472  15.906  67.612  1.00  0.00    -0.070 C  
HETATM   22  C   UNL     1      -9.980  15.697  67.265  1.00  0.00    -0.236 C  
BRANCH  22  23
HETATM   23  C   UNL     1      -9.378  16.916  66.543  1.00  0.00    -0.293 C  
HETATM   24  C   UNL     1      -8.061  16.982  66.281  1.00  0.00    -0.332 C  
HETATM   25  C   UNL     1     -10.283  18.035  66.109  1.00  0.00    -0.364 C  
ENDBRANCH  22  23
ENDBRANCH   9  16
ENDBRANCH   5   6
ENDBRANCH   4   5
ENDBRANCH   3   4
ENDBRANCH   2   3
TORSDOF 6
ENDMDL
MODEL      174
REMARK 921   NORMALIZED FREE ENERGY PREDICTED BY IDOCK:   -3.57 KCAL/MOL
REMARK 922        TOTAL FREE ENERGY PREDICTED BY IDOCK:   -5.75 KCAL/MOL
REMARK 923 INTER-LIGAND FREE ENERGY PREDICTED BY IDOCK:   -5.20 KCAL/MOL
REMARK 924 INTRA-LIGAND FREE ENERGY PREDICTED BY IDOCK:   -0.55 KCAL/MOL
REMARK 927      BINDING AFFINITY PREDICTED BY RF-SCORE:    0.00 PKD
ROOT
HETATM    1  C   UNL     1      -8.557   9.819  62.351  1.00  0.00    -0.204 C  
HETATM    2  C   UNL     1      -7.723   9.779  63.620  1.00  0.00    -0.137 C  
ENDROOT
BRANCH   2   3
HETATM    3  C   UNL     1      -7.162   8.378  63.870  1.00  0.00    -0.094 C  
BRANCH   3   4
HETATM    4  C   UNL     1      -7.186   8.041  65.356  1.00  0.00    -0.064 C  
BRANCH   4   5
HETATM    5  C   UNL     1      -8.345   7.105  65.698  1.00  0.00    -0.138 C  
BRANCH   5   6
HETATM    6  C   UNL     1      -8.914   7.431  67.058  1.00  0.00    -0.142 A  
HETATM    7  C   UNL     1      -8.758   6.538  68.118  1.00  0.00    -0.117 A  
HETATM    8  C   UNL     1      -9.340   6.805  69.359  1.00  0.00    -0.148 A  
HETATM    9  C   UNL     1     -10.130   7.949  69.584  1.00  0.00    -0.197 A  
HETATM   10  O   UNL     1      -9.120   5.907  70.368  1.00  0.00    -0.144 OA 
HETATM   11  H   UNL     1     -10.992  10.651  67.853  1.00  0.00     0.000 HD 
HETATM   12  H   UNL     1      -9.516   6.089  71.213  1.00  0.00     0.000 HD 
HETATM   13  C   UNL     1     -10.235   8.856  68.512  1.00  0.00    -0.197 A  
HETATM   14  O   UNL     1     -10.921  10.039  68.576  1.00  0.00    -0.232 OA 
HETATM   15  C   UNL     1      -9.629   8.610  67.276  1.00  0.00    -0.216 A  
BRANCH   9  16
HETATM   16  C   UNL     1     -10.774   8.220  70.953  1.00  0.00    -0.250 C  
HETATM   17  C   UNL     1      -9.696   8.507  71.967  1.00  0.00    -0.377 C  
HETATM   18  C   UNL     1      -9.421   7.735  73.024  1.00  0.00    -0.311 C  
HETATM   19  C   UNL     1     -10.191   6.487  73.327  1.00  0.00    -0.242 C  
HETATM   20  C   UNL     1      -8.265   8.034  73.938  1.00  0.00    -0.306 C  
HETATM   21  C   UNL     1     -11.512   6.264  72.584  1.00  0.00    -0.255 C  
HETATM   22  C   UNL     1     -11.845   7.153  71.364  1.00  0.00    -0.344 C  
BRANCH  22  23
HETATM   23  C   UNL     1     -13.261   7.751  71.454  1.00  0.00    -0.310 C  
HETATM   24  C   UNL     1     -14.323   6.974  71.728  1.00  0.00    -0.457 C  
HETATM   25  C   UNL     1     -13.449   9.228  71.252  1.00  0.00    -0.314 C  
ENDBRANCH  22  23
ENDBRANCH   9  16
ENDBRANCH   5   6
ENDBRANCH   4   5
ENDBRANCH   3   4
ENDBRANCH   2   3
TORSDOF 6
ENDMDL
MODEL      175
REMARK 921   NORMALIZED FREE ENERGY PREDICTED BY IDOCK:   -3.56 KCAL/MOL
REMARK 922        TOTAL FREE ENERGY PREDICTED BY IDOCK:   -5.74 KCAL/MOL
REMARK 923 INTER-LIGAND FREE ENERGY PREDICTED BY IDOCK:   -4.51 KCAL/MOL
REMARK 924 INTRA-LIGAND FREE ENERGY PREDICTED BY IDOCK:   -1.23 KCAL/MOL
REMARK 927      BINDING AFFINITY PREDICTED BY RF-SCORE:    0.00 PKD
ROOT
HETATM    1  C   UNL     1     -11.454   5.012  73.320  1.00  0.00    -0.339 C  
HETATM    2  C   UNL     1     -10.426   4.283  74.169  1.00  0.00    -0.307 C  
ENDROOT
BRANCH   2   3
HETATM    3  C   UNL     1     -10.053   2.935  73.550  1.00  0.00    -0.183 C  
BRANCH   3   4
HETATM    4  C   UNL     1     -10.237   2.961  72.038  1.00  0.00    -0.110 C  
BRANCH   4   5
HETATM    5  C   UNL     1      -8.917   3.238  71.318  1.00  0.00    -0.159 C  
BRANCH   5   6
HETATM    6  C   UNL     1      -8.885   4.647  70.778  1.00  0.00    -0.155 A  
HETATM    7  C   UNL     1      -7.831   5.500  71.102  1.00  0.00    -0.109 A  
HETATM    8  C   UNL     1      -7.832   6.825  70.660  1.00  0.00    -0.105 A  
HETATM    9  C   UNL     1      -8.896   7.363  69.911  1.00  0.00    -0.141 A  
HETATM   10  O   UNL     1      -6.752   7.602  70.983  1.00  0.00    -0.042 OA 
HETATM   11  H   UNL     1     -11.701   6.210  68.554  1.00  0.00     0.000 HD 
HETATM   12  H   UNL     1      -6.753   8.503  70.681  1.00  0.00     0.000 HD 
HETATM   13  C   UNL     1      -9.925   6.470  69.558  1.00  0.00    -0.159 A  
HETATM   14  O   UNL     1     -11.007   6.813  68.792  1.00  0.00    -0.239 OA 
HETATM   15  C   UNL     1      -9.916   5.133  69.972  1.00  0.00    -0.326 A  
BRANCH   9  16
HETATM   16  C   UNL     1      -8.886   8.827  69.443  1.00  0.00    -0.143 C  
HETATM   17  C   UNL     1      -9.902   9.613  70.231  1.00  0.00    -0.321 C  
HETATM   18  C   UNL     1     -10.997  10.179  69.710  1.00  0.00    -0.325 C  
HETATM   19  C   UNL     1     -11.320  10.105  68.250  1.00  0.00    -0.183 C  
HETATM   20  C   UNL     1     -12.017  10.864  70.577  1.00  0.00    -0.466 C  
HETATM   21  C   UNL     1     -10.216   9.637  67.296  1.00  0.00    -0.292 C  
HETATM   22  C   UNL     1      -8.942   8.987  67.885  1.00  0.00    -0.135 C  
BRANCH  22  23
HETATM   23  C   UNL     1      -7.657   9.614  67.315  1.00  0.00    -0.091 C  
HETATM   24  C   UNL     1      -6.706   8.848  66.754  1.00  0.00    -0.072 C  
HETATM   25  C   UNL     1      -7.478  11.104  67.373  1.00  0.00    -0.109 C  
ENDBRANCH  22  23
ENDBRANCH   9  16
ENDBRANCH   5   6
ENDBRANCH   4   5
ENDBRANCH   3   4
ENDBRANCH   2   3
TORSDOF 6
ENDMDL
MODEL      176
REMARK 921   NORMALIZED FREE ENERGY PREDICTED BY IDOCK:   -3.55 KCAL/MOL
REMARK 922        TOTAL FREE ENERGY PREDICTED BY IDOCK:   -5.72 KCAL/MOL
REMARK 923 INTER-LIGAND FREE ENERGY PREDICTED BY IDOCK:   -4.57 KCAL/MOL
REMARK 924 INTRA-LIGAND FREE ENERGY PREDICTED BY IDOCK:   -1.15 KCAL/MOL
REMARK 927      BINDING AFFINITY PREDICTED BY RF-SCORE:    0.00 PKD
ROOT
HETATM    1  C   UNL     1      -8.260   9.795  62.348  1.00  0.00    -0.147 C  
HETATM    2  C   UNL     1      -6.888  10.083  62.935  1.00  0.00    -0.129 C  
ENDROOT
BRANCH   2   3
HETATM    3  C   UNL     1      -6.353   8.877  63.708  1.00  0.00    -0.087 C  
BRANCH   3   4
HETATM    4  C   UNL     1      -5.684   9.316  65.005  1.00  0.00    -0.058 C  
BRANCH   4   5
HETATM    5  C   UNL     1      -6.594   9.080  66.211  1.00  0.00    -0.066 C  
BRANCH   5   6
HETATM    6  C   UNL     1      -7.364  10.332  66.555  1.00  0.00    -0.113 A  
HETATM    7  C   UNL     1      -8.692  10.473  66.154  1.00  0.00    -0.167 A  
HETATM    8  C   UNL     1      -9.387  11.656  66.411  1.00  0.00    -0.213 A  
HETATM    9  C   UNL     1      -8.779  12.759  67.042  1.00  0.00    -0.197 A  
HETATM   10  O   UNL     1     -10.698  11.719  66.024  1.00  0.00    -0.261 OA 
HETATM   11  H   UNL     1      -5.835  13.400  68.445  1.00  0.00     0.000 HD 
HETATM   12  H   UNL     1     -11.171  12.524  66.199  1.00  0.00     0.000 HD 
HETATM   13  C   UNL     1      -7.452  12.576  67.477  1.00  0.00    -0.151 A  
HETATM   14  O   UNL     1      -6.730  13.524  68.151  1.00  0.00    -0.091 OA 
HETATM   15  C   UNL     1      -6.760  11.381  67.250  1.00  0.00    -0.111 A  
BRANCH   9  16
HETATM   16  C   UNL     1      -9.555  14.059  67.306  1.00  0.00    -0.238 C  
HETATM   17  C   UNL     1      -8.927  15.185  66.527  1.00  0.00    -0.326 C  
HETATM   18  C   UNL     1      -8.328  16.249  67.076  1.00  0.00    -0.237 C  
HETATM   19  C   UNL     1      -8.238  16.441  68.559  1.00  0.00    -0.201 C  
HETATM   20  C   UNL     1      -7.636  17.285  66.234  1.00  0.00    -0.360 C  
HETATM   21  C   UNL     1      -9.119  15.559  69.449  1.00  0.00    -0.280 C  
HETATM   22  C   UNL     1      -9.822  14.331  68.827  1.00  0.00    -0.189 C  
BRANCH  22  23
HETATM   23  C   UNL     1     -11.321  14.286  69.173  1.00  0.00    -0.312 C  
HETATM   24  C   UNL     1     -11.928  13.122  69.463  1.00  0.00    -0.354 C  
HETATM   25  C   UNL     1     -12.108  15.566  69.205  1.00  0.00    -0.284 C  
ENDBRANCH  22  23
ENDBRANCH   9  16
ENDBRANCH   5   6
ENDBRANCH   4   5
ENDBRANCH   3   4
ENDBRANCH   2   3
TORSDOF 6
ENDMDL
MODEL      177
REMARK 921   NORMALIZED FREE ENERGY PREDICTED BY IDOCK:   -3.54 KCAL/MOL
REMARK 922        TOTAL FREE ENERGY PREDICTED BY IDOCK:   -5.71 KCAL/MOL
REMARK 923 INTER-LIGAND FREE ENERGY PREDICTED BY IDOCK:   -5.70 KCAL/MOL
REMARK 924 INTRA-LIGAND FREE ENERGY PREDICTED BY IDOCK:   -0.02 KCAL/MOL
REMARK 927      BINDING AFFINITY PREDICTED BY RF-SCORE:    0.00 PKD
ROOT
HETATM    1  C   UNL     1      -6.255   9.983  62.827  1.00  0.00    -0.124 C  
HETATM    2  C   UNL     1      -7.530   9.421  63.433  1.00  0.00    -0.106 C  
ENDROOT
BRANCH   2   3
HETATM    3  C   UNL     1      -8.707   9.553  62.465  1.00  0.00    -0.233 C  
BRANCH   3   4
HETATM    4  C   UNL     1      -9.471  10.848  62.713  1.00  0.00    -0.359 C  
BRANCH   4   5
HETATM    5  C   UNL     1     -10.376  10.737  63.940  1.00  0.00    -0.329 C  
BRANCH   5   6
HETATM    6  C   UNL     1     -10.067  11.831  64.934  1.00  0.00    -0.298 A  
HETATM    7  C   UNL     1      -9.560  11.512  66.194  1.00  0.00    -0.248 A  
HETATM    8  C   UNL     1      -9.337  12.514  67.140  1.00  0.00    -0.201 A  
HETATM    9  C   UNL     1      -9.642  13.866  66.886  1.00  0.00    -0.271 A  
HETATM   10  O   UNL     1      -8.805  12.142  68.345  1.00  0.00    -0.198 OA 
HETATM   11  H   UNL     1     -10.721  15.635  64.288  1.00  0.00     0.000 HD 
HETATM   12  H   UNL     1      -8.652  12.824  68.989  1.00  0.00     0.000 HD 
HETATM   13  C   UNL     1     -10.110  14.167  65.592  1.00  0.00    -0.328 A  
HETATM   14  O   UNL     1     -10.406  15.432  65.161  1.00  0.00    -0.382 OA 
HETATM   15  C   UNL     1     -10.308  13.171  64.629  1.00  0.00    -0.381 A  
BRANCH   9  16
HETATM   16  C   UNL     1      -9.401  14.954  67.944  1.00  0.00    -0.191 C  
HETATM   17  C   UNL     1     -10.135  14.595  69.209  1.00  0.00    -0.125 C  
HETATM   18  C   UNL     1     -11.153  15.297  69.723  1.00  0.00    -0.293 C  
HETATM   19  C   UNL     1     -11.663  16.553  69.087  1.00  0.00     0.130 C  
HETATM   20  C   UNL     1     -11.902  14.822  70.938  1.00  0.00    -0.379 C  
HETATM   21  C   UNL     1     -10.800  17.206  68.003  1.00  0.00    -0.317 C  
HETATM   22  C   UNL     1      -9.618  16.410  67.404  1.00  0.00    -0.231 C  
BRANCH  22  23
HETATM   23  C   UNL     1      -8.314  17.229  67.396  1.00  0.00    -0.211 C  
HETATM   24  C   UNL     1      -7.886  17.856  68.505  1.00  0.00    -0.301 C  
HETATM   25  C   UNL     1      -7.504  17.310  66.133  1.00  0.00    -0.321 C  
ENDBRANCH  22  23
ENDBRANCH   9  16
ENDBRANCH   5   6
ENDBRANCH   4   5
ENDBRANCH   3   4
ENDBRANCH   2   3
TORSDOF 6
ENDMDL
MODEL      178
REMARK 921   NORMALIZED FREE ENERGY PREDICTED BY IDOCK:   -3.53 KCAL/MOL
REMARK 922        TOTAL FREE ENERGY PREDICTED BY IDOCK:   -5.70 KCAL/MOL
REMARK 923 INTER-LIGAND FREE ENERGY PREDICTED BY IDOCK:   -5.19 KCAL/MOL
REMARK 924 INTRA-LIGAND FREE ENERGY PREDICTED BY IDOCK:   -0.51 KCAL/MOL
REMARK 927      BINDING AFFINITY PREDICTED BY RF-SCORE:    0.00 PKD
ROOT
HETATM    1  C   UNL     1     -13.372   7.165  71.666  1.00  0.00    -0.397 C  
HETATM    2  C   UNL     1     -12.862   8.513  72.144  1.00  0.00    -0.413 C  
ENDROOT
BRANCH   2   3
HETATM    3  C   UNL     1     -13.478   9.656  71.336  1.00  0.00    -0.403 C  
BRANCH   3   4
HETATM    4  C   UNL     1     -12.898  10.999  71.764  1.00  0.00    -0.496 C  
BRANCH   4   5
HETATM    5  C   UNL     1     -12.318  11.763  70.573  1.00  0.00    -0.387 C  
BRANCH   5   6
HETATM    6  C   UNL     1     -11.340  10.904  69.809  1.00  0.00    -0.374 A  
HETATM    7  C   UNL     1     -10.454  10.071  70.492  1.00  0.00    -0.265 A  
HETATM    8  C   UNL     1      -9.503   9.326  69.793  1.00  0.00    -0.191 A  
HETATM    9  C   UNL     1      -9.371   9.406  68.393  1.00  0.00    -0.137 A  
HETATM   10  O   UNL     1      -8.685   8.501  70.517  1.00  0.00    -0.136 OA 
HETATM   11  H   UNL     1     -10.985  10.916  65.912  1.00  0.00     0.000 HD 
HETATM   12  H   UNL     1      -8.038   7.994  70.041  1.00  0.00     0.000 HD 
HETATM   13  C   UNL     1     -10.306  10.218  67.723  1.00  0.00    -0.204 A  
HETATM   14  O   UNL     1     -10.354  10.368  66.363  1.00  0.00    -0.236 OA 
HETATM   15  C   UNL     1     -11.281  10.944  68.415  1.00  0.00    -0.347 A  
BRANCH   9  16
HETATM   16  C   UNL     1      -8.310   8.587  67.640  1.00  0.00    -0.129 C  
HETATM   17  C   UNL     1      -7.174   9.490  67.234  1.00  0.00    -0.087 C  
HETATM   18  C   UNL     1      -6.848   9.780  65.968  1.00  0.00    -0.094 C  
HETATM   19  C   UNL     1      -7.584   9.203  64.799  1.00  0.00    -0.108 C  
HETATM   20  C   UNL     1      -5.763  10.769  65.642  1.00  0.00    -0.128 C  
HETATM   21  C   UNL     1      -8.525   8.023  65.058  1.00  0.00    -0.089 C  
HETATM   22  C   UNL     1      -8.906   7.673  66.515  1.00  0.00    -0.167 C  
BRANCH  22  23
HETATM   23  C   UNL     1      -8.718   6.176  66.818  1.00  0.00    -0.116 C  
HETATM   24  C   UNL     1      -7.534   5.701  67.243  1.00  0.00    -0.084 C  
HETATM   25  C   UNL     1      -9.882   5.240  66.655  1.00  0.00    -0.198 C  
ENDBRANCH  22  23
ENDBRANCH   9  16
ENDBRANCH   5   6
ENDBRANCH   4   5
ENDBRANCH   3   4
ENDBRANCH   2   3
TORSDOF 6
ENDMDL
MODEL      179
REMARK 921   NORMALIZED FREE ENERGY PREDICTED BY IDOCK:   -3.52 KCAL/MOL
REMARK 922        TOTAL FREE ENERGY PREDICTED BY IDOCK:   -5.68 KCAL/MOL
REMARK 923 INTER-LIGAND FREE ENERGY PREDICTED BY IDOCK:   -4.56 KCAL/MOL
REMARK 924 INTRA-LIGAND FREE ENERGY PREDICTED BY IDOCK:   -1.12 KCAL/MOL
REMARK 927      BINDING AFFINITY PREDICTED BY RF-SCORE:    0.00 PKD
ROOT
HETATM    1  C   UNL     1     -12.226  12.644  63.437  1.00  0.00    -0.610 C  
HETATM    2  C   UNL     1     -11.432  13.359  64.516  1.00  0.00    -0.402 C  
ENDROOT
BRANCH   2   3
HETATM    3  C   UNL     1     -12.333  13.792  65.673  1.00  0.00    -0.517 C  
BRANCH   3   4
HETATM    4  C   UNL     1     -11.535  13.929  66.963  1.00  0.00    -0.367 C  
BRANCH   4   5
HETATM    5  C   UNL     1     -11.797  12.758  67.910  1.00  0.00    -0.392 C  
BRANCH   5   6
HETATM    6  C   UNL     1     -10.726  11.704  67.769  1.00  0.00    -0.244 A  
HETATM    7  C   UNL     1     -10.952  10.572  66.985  1.00  0.00    -0.247 A  
HETATM    8  C   UNL     1      -9.991   9.563  66.906  1.00  0.00    -0.216 A  
HETATM    9  C   UNL     1      -8.784   9.620  67.631  1.00  0.00    -0.126 A  
HETATM   10  O   UNL     1     -10.257   8.495  66.092  1.00  0.00    -0.446 OA 
HETATM   11  H   UNL     1      -7.270  11.825  69.604  1.00  0.00     0.000 HD 
HETATM   12  H   UNL     1      -9.603   7.809  66.039  1.00  0.00     0.000 HD 
HETATM   13  C   UNL     1      -8.560  10.792  68.379  1.00  0.00    -0.141 A  
HETATM   14  O   UNL     1      -7.421  11.034  69.100  1.00  0.00    -0.117 OA 
HETATM   15  C   UNL     1      -9.506  11.821  68.438  1.00  0.00    -0.188 A  
BRANCH   9  16
HETATM   16  C   UNL     1      -7.742   8.494  67.542  1.00  0.00    -0.098 C  
HETATM   17  C   UNL     1      -7.645   7.793  68.872  1.00  0.00    -0.101 C  
HETATM   18  C   UNL     1      -6.560   7.793  69.655  1.00  0.00    -0.035 C  
HETATM   19  C   UNL     1      -5.292   8.489  69.267  1.00  0.00    -0.031 C  
HETATM   20  C   UNL     1      -6.570   7.153  71.016  1.00  0.00    -0.044 C  
HETATM   21  C   UNL     1      -5.143   8.944  67.812  1.00  0.00    -0.034 C  
HETATM   22  C   UNL     1      -6.387   8.944  66.894  1.00  0.00    -0.060 C  
BRANCH  22  23
HETATM   23  C   UNL     1      -6.118   8.238  65.554  1.00  0.00    -0.045 C  
HETATM   24  C   UNL     1      -5.277   7.191  65.483  1.00  0.00    -0.027 C  
HETATM   25  C   UNL     1      -6.821   8.716  64.315  1.00  0.00    -0.074 C  
ENDBRANCH  22  23
ENDBRANCH   9  16
ENDBRANCH   5   6
ENDBRANCH   4   5
ENDBRANCH   3   4
ENDBRANCH   2   3
TORSDOF 6
ENDMDL
MODEL      180
REMARK 921   NORMALIZED FREE ENERGY PREDICTED BY IDOCK:   -3.52 KCAL/MOL
REMARK 922        TOTAL FREE ENERGY PREDICTED BY IDOCK:   -5.68 KCAL/MOL
REMARK 923 INTER-LIGAND FREE ENERGY PREDICTED BY IDOCK:   -4.99 KCAL/MOL
REMARK 924 INTRA-LIGAND FREE ENERGY PREDICTED BY IDOCK:   -0.69 KCAL/MOL
REMARK 927      BINDING AFFINITY PREDICTED BY RF-SCORE:    0.00 PKD
ROOT
HETATM    1  C   UNL     1     -10.389  19.641  67.047  1.00  0.00    -0.581 C  
HETATM    2  C   UNL     1     -10.361  19.365  68.541  1.00  0.00    -0.413 C  
ENDROOT
BRANCH   2   3
HETATM    3  C   UNL     1      -9.009  19.741  69.148  1.00  0.00    -0.018 C  
BRANCH   3   4
HETATM    4  C   UNL     1      -7.865  19.296  68.245  1.00  0.00    -0.354 C  
BRANCH   4   5
HETATM    5  C   UNL     1      -6.994  18.238  68.924  1.00  0.00    -0.289 C  
BRANCH   5   6
HETATM    6  C   UNL     1      -7.533  16.852  68.663  1.00  0.00    -0.226 A  
HETATM    7  C   UNL     1      -8.778  16.476  69.166  1.00  0.00    -0.150 A  
HETATM    8  C   UNL     1      -9.250  15.175  68.985  1.00  0.00    -0.221 A  
HETATM    9  C   UNL     1      -8.489  14.187  68.330  1.00  0.00    -0.169 A  
HETATM   10  O   UNL     1     -10.495  14.878  69.471  1.00  0.00    -0.264 OA 
HETATM   11  H   UNL     1      -5.585  14.069  66.720  1.00  0.00     0.000 HD 
HETATM   12  H   UNL     1     -10.816  13.992  69.348  1.00  0.00     0.000 HD 
HETATM   13  C   UNL     1      -7.257  14.604  67.792  1.00  0.00    -0.175 A  
HETATM   14  O   UNL     1      -6.416  13.788  67.083  1.00  0.00    -0.193 OA 
HETATM   15  C   UNL     1      -6.791  15.914  67.944  1.00  0.00    -0.159 A  
BRANCH   9  16
HETATM   16  C   UNL     1      -9.020  12.756  68.150  1.00  0.00    -0.199 C  
HETATM   17  C   UNL     1      -8.126  11.793  68.888  1.00  0.00     0.029 C  
HETATM   18  C   UNL     1      -7.379  10.848  68.305  1.00  0.00    -0.087 C  
HETATM   19  C   UNL     1      -7.373  10.633  66.823  1.00  0.00    -0.120 C  
HETATM   20  C   UNL     1      -6.436   9.988  69.100  1.00  0.00    -0.048 C  
HETATM   21  C   UNL     1      -8.476  11.304  65.999  1.00  0.00    -0.102 C  
HETATM   22  C   UNL     1      -9.350  12.393  66.661  1.00  0.00    -0.227 C  
BRANCH  22  23
HETATM   23  C   UNL     1     -10.853  12.141  66.442  1.00  0.00    -0.306 C  
HETATM   24  C   UNL     1     -11.689  12.001  67.485  1.00  0.00    -0.351 C  
HETATM   25  C   UNL     1     -11.391  12.071  65.041  1.00  0.00    -0.365 C  
ENDBRANCH  22  23
ENDBRANCH   9  16
ENDBRANCH   5   6
ENDBRANCH   4   5
ENDBRANCH   3   4
ENDBRANCH   2   3
TORSDOF 6
ENDMDL
MODEL      181
REMARK 921   NORMALIZED FREE ENERGY PREDICTED BY IDOCK:   -3.51 KCAL/MOL
REMARK 922        TOTAL FREE ENERGY PREDICTED BY IDOCK:   -5.67 KCAL/MOL
REMARK 923 INTER-LIGAND FREE ENERGY PREDICTED BY IDOCK:   -5.00 KCAL/MOL
REMARK 924 INTRA-LIGAND FREE ENERGY PREDICTED BY IDOCK:   -0.67 KCAL/MOL
REMARK 927      BINDING AFFINITY PREDICTED BY RF-SCORE:    0.00 PKD
ROOT
HETATM    1  C   UNL     1     -10.419  11.503  68.261  1.00  0.00    -0.219 C  
HETATM    2  C   UNL     1     -11.209  12.497  69.094  1.00  0.00    -0.297 C  
ENDROOT
BRANCH   2   3
HETATM    3  C   UNL     1     -12.508  11.877  69.611  1.00  0.00     0.027 C  
BRANCH   3   4
HETATM    4  C   UNL     1     -12.333  11.355  71.032  1.00  0.00    -0.448 C  
BRANCH   4   5
HETATM    5  C   UNL     1     -13.045  10.017  71.228  1.00  0.00    -0.493 C  
BRANCH   5   6
HETATM    6  C   UNL     1     -12.046   8.893  71.362  1.00  0.00    -0.381 A  
HETATM    7  C   UNL     1     -11.911   8.213  72.572  1.00  0.00    -0.438 A  
HETATM    8  C   UNL     1     -10.942   7.218  72.720  1.00  0.00    -0.323 A  
HETATM    9  C   UNL     1     -10.047   6.886  71.685  1.00  0.00    -0.201 A  
HETATM   10  O   UNL     1     -10.883   6.564  73.920  1.00  0.00    -0.460 OA 
HETATM   11  H   UNL     1      -9.612   7.768  68.510  1.00  0.00     0.000 HD 
HETATM   12  H   UNL     1     -10.224   5.887  74.021  1.00  0.00     0.000 HD 
HETATM   13  C   UNL     1     -10.233   7.554  70.459  1.00  0.00    -0.201 A  
HETATM   14  O   UNL     1      -9.486   7.317  69.337  1.00  0.00    -0.155 OA 
HETATM   15  C   UNL     1     -11.222   8.530  70.295  1.00  0.00    -0.185 A  
BRANCH   9  16
HETATM   16  C   UNL     1      -8.978   5.796  71.869  1.00  0.00    -0.142 C  
HETATM   17  C   UNL     1      -9.622   4.438  71.757  1.00  0.00    -0.221 C  
HETATM   18  C   UNL     1      -9.705   3.552  72.757  1.00  0.00    -0.192 C  
HETATM   19  C   UNL     1      -9.132   3.818  74.114  1.00  0.00    -0.097 C  
HETATM   20  C   UNL     1     -10.449   2.255  72.598  1.00  0.00    -0.214 C  
HETATM   21  C   UNL     1      -8.167   4.999  74.264  1.00  0.00    -0.099 C  
HETATM   22  C   UNL     1      -8.057   6.028  73.116  1.00  0.00    -0.115 C  
BRANCH  22  23
HETATM   23  C   UNL     1      -6.594   6.297  72.719  1.00  0.00    -0.065 C  
HETATM   24  C   UNL     1      -5.742   6.880  73.579  1.00  0.00    -0.050 C  
HETATM   25  C   UNL     1      -6.113   5.882  71.357  1.00  0.00    -0.035 C  
ENDBRANCH  22  23
ENDBRANCH   9  16
ENDBRANCH   5   6
ENDBRANCH   4   5
ENDBRANCH   3   4
ENDBRANCH   2   3
TORSDOF 6
ENDMDL
MODEL      182
REMARK 921   NORMALIZED FREE ENERGY PREDICTED BY IDOCK:   -3.50 KCAL/MOL
REMARK 922        TOTAL FREE ENERGY PREDICTED BY IDOCK:   -5.65 KCAL/MOL
REMARK 923 INTER-LIGAND FREE ENERGY PREDICTED BY IDOCK:   -6.43 KCAL/MOL
REMARK 924 INTRA-LIGAND FREE ENERGY PREDICTED BY IDOCK:    0.78 KCAL/MOL
REMARK 927      BINDING AFFINITY PREDICTED BY RF-SCORE:    0.00 PKD
ROOT
HETATM    1  C   UNL     1      -9.955  19.521  68.673  1.00  0.00    -0.538 C  
HETATM    2  C   UNL     1      -9.187  20.049  67.474  1.00  0.00    -0.475 C  
ENDROOT
BRANCH   2   3
HETATM    3  C   UNL     1      -7.681  19.859  67.654  1.00  0.00    -0.326 C  
BRANCH   3   4
HETATM    4  C   UNL     1      -7.045  19.315  66.380  1.00  0.00    -0.239 C  
BRANCH   4   5
HETATM    5  C   UNL     1      -6.253  18.036  66.651  1.00  0.00    -0.208 C  
BRANCH   5   6
HETATM    6  C   UNL     1      -7.170  16.838  66.699  1.00  0.00    -0.289 A  
HETATM    7  C   UNL     1      -6.831  15.725  67.469  1.00  0.00    -0.219 A  
HETATM    8  C   UNL     1      -7.642  14.588  67.463  1.00  0.00    -0.190 A  
HETATM    9  C   UNL     1      -8.800  14.499  66.666  1.00  0.00    -0.214 A  
HETATM   10  O   UNL     1      -7.274  13.543  68.266  1.00  0.00    -0.089 OA 
HETATM   11  H   UNL     1     -10.494  16.532  64.656  1.00  0.00     0.000 HD 
HETATM   12  H   UNL     1      -7.826  12.770  68.262  1.00  0.00     0.000 HD 
HETATM   13  C   UNL     1      -9.144  15.651  65.934  1.00  0.00    -0.242 A  
HETATM   14  O   UNL     1     -10.262  15.754  65.149  1.00  0.00    -0.430 OA 
HETATM   15  C   UNL     1      -8.352  16.804  65.959  1.00  0.00    -0.187 A  
BRANCH   9  16
HETATM   16  C   UNL     1      -9.674  13.235  66.663  1.00  0.00    -0.270 C  
HETATM   17  C   UNL     1      -8.946  12.119  67.366  1.00  0.00    -0.180 C  
HETATM   18  C   UNL     1      -8.529  10.992  66.776  1.00  0.00    -0.148 C  
HETATM   19  C   UNL     1      -8.770  10.711  65.325  1.00  0.00    -0.198 C  
HETATM   20  C   UNL     1      -7.721   9.966  67.521  1.00  0.00    -0.091 C  
HETATM   21  C   UNL     1      -9.781  11.592  64.584  1.00  0.00    -0.242 C  
HETATM   22  C   UNL     1     -10.275  12.893  65.256  1.00  0.00    -0.294 C  
BRANCH  22  23
HETATM   23  C   UNL     1     -11.810  13.008  65.234  1.00  0.00    -0.413 C  
HETATM   24  C   UNL     1     -12.464  13.707  66.178  1.00  0.00    -0.449 C  
HETATM   25  C   UNL     1     -12.582  12.344  64.129  1.00  0.00    -0.498 C  
ENDBRANCH  22  23
ENDBRANCH   9  16
ENDBRANCH   5   6
ENDBRANCH   4   5
ENDBRANCH   3   4
ENDBRANCH   2   3
TORSDOF 6
ENDMDL
MODEL      183
REMARK 921   NORMALIZED FREE ENERGY PREDICTED BY IDOCK:   -3.49 KCAL/MOL
REMARK 922        TOTAL FREE ENERGY PREDICTED BY IDOCK:   -5.65 KCAL/MOL
REMARK 923 INTER-LIGAND FREE ENERGY PREDICTED BY IDOCK:   -5.15 KCAL/MOL
REMARK 924 INTRA-LIGAND FREE ENERGY PREDICTED BY IDOCK:   -0.49 KCAL/MOL
REMARK 927      BINDING AFFINITY PREDICTED BY RF-SCORE:    0.00 PKD
ROOT
HETATM    1  C   UNL     1      -7.654  16.112  67.037  1.00  0.00    -0.260 C  
HETATM    2  C   UNL     1      -8.755  15.136  66.662  1.00  0.00    -0.308 C  
ENDROOT
BRANCH   2   3
HETATM    3  C   UNL     1      -9.262  14.376  67.889  1.00  0.00    -0.195 C  
BRANCH   3   4
HETATM    4  C   UNL     1      -9.900  13.053  67.483  1.00  0.00    -0.209 C  
BRANCH   4   5
HETATM    5  C   UNL     1      -8.877  11.917  67.477  1.00  0.00    -0.169 C  
BRANCH   5   6
HETATM    6  C   UNL     1      -9.476  10.653  68.045  1.00  0.00    -0.164 A  
HETATM    7  C   UNL     1      -9.666  10.522  69.421  1.00  0.00    -0.188 A  
HETATM    8  C   UNL     1     -10.157   9.330  69.956  1.00  0.00    -0.212 A  
HETATM    9  C   UNL     1     -10.442   8.209  69.152  1.00  0.00    -0.217 A  
HETATM   10  O   UNL     1     -10.355   9.276  71.309  1.00  0.00    -0.302 OA 
HETATM   11  H   UNL     1     -10.460   7.532  65.899  1.00  0.00     0.000 HD 
HETATM   12  H   UNL     1     -10.689   8.465  71.674  1.00  0.00     0.000 HD 
HETATM   13  C   UNL     1     -10.285   8.382  67.763  1.00  0.00    -0.224 A  
HETATM   14  O   UNL     1     -10.566   7.415  66.835  1.00  0.00    -0.326 OA 
HETATM   15  C   UNL     1      -9.823   9.584  67.217  1.00  0.00    -0.228 A  
BRANCH   9  16
HETATM   16  C   UNL     1     -10.970   6.900  69.760  1.00  0.00    -0.310 C  
HETATM   17  C   UNL     1     -12.371   7.114  70.271  1.00  0.00     0.100 C  
HETATM   18  C   UNL     1     -12.730   7.046  71.559  1.00  0.00    -0.425 C  
HETATM   19  C   UNL     1     -11.753   6.720  72.646  1.00  0.00    -0.117 C  
HETATM   20  C   UNL     1     -14.129   7.368  72.005  1.00  0.00    -0.327 C  
HETATM   21  C   UNL     1     -10.390   6.154  72.237  1.00  0.00    -0.221 C  
HETATM   22  C   UNL     1      -9.965   6.221  70.752  1.00  0.00    -0.220 C  
BRANCH  22  23
HETATM   23  C   UNL     1      -9.461   4.862  70.233  1.00  0.00    -0.238 C  
HETATM   24  C   UNL     1      -9.295   3.823  71.069  1.00  0.00    -0.218 C  
HETATM   25  C   UNL     1      -9.170   4.696  68.768  1.00  0.00    -0.179 C  
ENDBRANCH  22  23
ENDBRANCH   9  16
ENDBRANCH   5   6
ENDBRANCH   4   5
ENDBRANCH   3   4
ENDBRANCH   2   3
TORSDOF 6
ENDMDL
MODEL      184
REMARK 921   NORMALIZED FREE ENERGY PREDICTED BY IDOCK:   -3.47 KCAL/MOL
REMARK 922        TOTAL FREE ENERGY PREDICTED BY IDOCK:   -5.62 KCAL/MOL
REMARK 923 INTER-LIGAND FREE ENERGY PREDICTED BY IDOCK:   -5.19 KCAL/MOL
REMARK 924 INTRA-LIGAND FREE ENERGY PREDICTED BY IDOCK:   -0.43 KCAL/MOL
REMARK 927      BINDING AFFINITY PREDICTED BY RF-SCORE:    0.00 PKD
ROOT
HETATM    1  C   UNL     1      -8.311   3.491  63.113  1.00  0.00    -0.089 C  
HETATM    2  C   UNL     1      -8.914   4.872  62.922  1.00  0.00    -0.060 C  
ENDROOT
BRANCH   2   3
HETATM    3  C   UNL     1      -7.959   5.965  63.402  1.00  0.00    -0.110 C  
BRANCH   3   4
HETATM    4  C   UNL     1      -8.400   6.519  64.751  1.00  0.00    -0.019 C  
BRANCH   4   5
HETATM    5  C   UNL     1      -8.326   8.046  64.780  1.00  0.00    -0.086 C  
BRANCH   5   6
HETATM    6  C   UNL     1      -8.788   8.579  66.115  1.00  0.00    -0.200 A  
HETATM    7  C   UNL     1      -9.872   7.993  66.769  1.00  0.00    -0.327 A  
HETATM    8  C   UNL     1     -10.344   8.526  67.970  1.00  0.00    -0.217 A  
HETATM    9  C   UNL     1      -9.783   9.681  68.549  1.00  0.00    -0.161 A  
HETATM   10  O   UNL     1     -11.388   7.884  68.581  1.00  0.00    -0.197 OA 
HETATM   11  H   UNL     1      -7.210  11.682  67.904  1.00  0.00     0.000 HD 
HETATM   12  H   UNL     1     -11.709   8.247  69.399  1.00  0.00     0.000 HD 
HETATM   13  C   UNL     1      -8.663  10.226  67.893  1.00  0.00    -0.122 A  
HETATM   14  O   UNL     1      -7.966  11.315  68.346  1.00  0.00    -0.124 OA 
HETATM   15  C   UNL     1      -8.165   9.680  66.706  1.00  0.00    -0.113 A  
BRANCH   9  16
HETATM   16  C   UNL     1     -10.324  10.260  69.866  1.00  0.00    -0.281 C  
HETATM   17  C   UNL     1      -9.852   9.411  71.019  1.00  0.00    -0.317 C  
HETATM   18  C   UNL     1     -10.655   8.692  71.812  1.00  0.00    -0.395 C  
HETATM   19  C   UNL     1     -12.143   8.674  71.642  1.00  0.00    -0.385 C  
HETATM   20  C   UNL     1     -10.103   7.791  72.881  1.00  0.00    -0.363 C  
HETATM   21  C   UNL     1     -12.773   9.741  70.742  1.00  0.00    -0.251 C  
HETATM   22  C   UNL     1     -11.857  10.584  69.824  1.00  0.00    -0.329 C  
BRANCH  22  23
HETATM   23  C   UNL     1     -12.138  12.092  69.954  1.00  0.00    -0.334 C  
HETATM   24  C   UNL     1     -12.579  12.614  71.112  1.00  0.00    -0.354 C  
HETATM   25  C   UNL     1     -11.896  12.990  68.774  1.00  0.00    -0.355 C  
ENDBRANCH  22  23
ENDBRANCH   9  16
ENDBRANCH   5   6
ENDBRANCH   4   5
ENDBRANCH   3   4
ENDBRANCH   2   3
TORSDOF 6
ENDMDL
MODEL      185
REMARK 921   NORMALIZED FREE ENERGY PREDICTED BY IDOCK:   -3.46 KCAL/MOL
REMARK 922        TOTAL FREE ENERGY PREDICTED BY IDOCK:   -5.60 KCAL/MOL
REMARK 923 INTER-LIGAND FREE ENERGY PREDICTED BY IDOCK:   -5.14 KCAL/MOL
REMARK 924 INTRA-LIGAND FREE ENERGY PREDICTED BY IDOCK:   -0.47 KCAL/MOL
REMARK 927      BINDING AFFINITY PREDICTED BY RF-SCORE:    0.00 PKD
ROOT
HETATM    1  C   UNL     1      -9.232   3.886  62.582  1.00  0.00    -0.109 C  
HETATM    2  C   UNL     1      -8.185   4.487  63.503  1.00  0.00    -0.103 C  
ENDROOT
BRANCH   2   3
HETATM    3  C   UNL     1      -8.085   3.704  64.812  1.00  0.00    -0.090 C  
BRANCH   3   4
HETATM    4  C   UNL     1      -8.809   4.432  65.938  1.00  0.00    -0.120 C  
BRANCH   4   5
HETATM    5  C   UNL     1      -8.351   5.887  66.050  1.00  0.00    -0.128 C  
BRANCH   5   6
HETATM    6  C   UNL     1      -8.892   6.524  67.307  1.00  0.00    -0.112 A  
HETATM    7  C   UNL     1      -8.798   5.859  68.529  1.00  0.00    -0.111 A  
HETATM    8  C   UNL     1      -9.357   6.414  69.681  1.00  0.00    -0.145 A  
HETATM    9  C   UNL     1     -10.062   7.633  69.658  1.00  0.00    -0.194 A  
HETATM   10  O   UNL     1      -9.200   5.729  70.856  1.00  0.00    -0.153 OA 
HETATM   11  H   UNL     1     -10.731   9.978  67.401  1.00  0.00     0.000 HD 
HETATM   12  H   UNL     1      -9.580   6.108  71.640  1.00  0.00     0.000 HD 
HETATM   13  C   UNL     1     -10.104   8.306  68.423  1.00  0.00    -0.201 A  
HETATM   14  O   UNL     1     -10.703   9.524  68.234  1.00  0.00    -0.226 OA 
HETATM   15  C   UNL     1      -9.520   7.770  67.270  1.00  0.00    -0.187 A  
BRANCH   9  16
HETATM   16  C   UNL     1     -10.682   8.224  70.935  1.00  0.00    -0.250 C  
HETATM   17  C   UNL     1      -9.587   8.573  71.909  1.00  0.00    -0.353 C  
HETATM   18  C   UNL     1      -9.411   7.985  73.099  1.00  0.00    -0.346 C  
HETATM   19  C   UNL     1     -10.321   6.908  73.602  1.00  0.00    -0.397 C  
HETATM   20  C   UNL     1      -8.235   8.318  73.975  1.00  0.00    -0.271 C  
HETATM   21  C   UNL     1     -11.653   6.699  72.875  1.00  0.00    -0.017 C  
HETATM   22  C   UNL     1     -11.872   7.377  71.503  1.00  0.00    -0.327 C  
BRANCH  22  23
HETATM   23  C   UNL     1     -13.210   8.136  71.440  1.00  0.00    -0.245 C  
HETATM   24  C   UNL     1     -14.378   7.490  71.600  1.00  0.00    -0.621 C  
HETATM   25  C   UNL     1     -13.204   9.622  71.216  1.00  0.00    -0.429 C  
ENDBRANCH  22  23
ENDBRANCH   9  16
ENDBRANCH   5   6
ENDBRANCH   4   5
ENDBRANCH   3   4
ENDBRANCH   2   3
TORSDOF 6
ENDMDL
MODEL      186
REMARK 921   NORMALIZED FREE ENERGY PREDICTED BY IDOCK:   -3.45 KCAL/MOL
REMARK 922        TOTAL FREE ENERGY PREDICTED BY IDOCK:   -5.59 KCAL/MOL
REMARK 923 INTER-LIGAND FREE ENERGY PREDICTED BY IDOCK:   -4.67 KCAL/MOL
REMARK 924 INTRA-LIGAND FREE ENERGY PREDICTED BY IDOCK:   -0.93 KCAL/MOL
REMARK 927      BINDING AFFINITY PREDICTED BY RF-SCORE:    0.00 PKD
ROOT
HETATM    1  C   UNL     1     -12.478  12.608  63.368  1.00  0.00    -0.474 C  
HETATM    2  C   UNL     1     -11.528  11.928  64.339  1.00  0.00    -0.393 C  
ENDROOT
BRANCH   2   3
HETATM    3  C   UNL     1     -10.351  12.839  64.691  1.00  0.00    -0.362 C  
BRANCH   3   4
HETATM    4  C   UNL     1     -10.378  13.214  66.168  1.00  0.00    -0.287 C  
BRANCH   4   5
HETATM    5  C   UNL     1     -11.302  12.292  66.963  1.00  0.00    -0.395 C  
BRANCH   5   6
HETATM    6  C   UNL     1     -10.508  11.232  67.687  1.00  0.00    -0.225 A  
HETATM    7  C   UNL     1      -9.150  11.063  67.417  1.00  0.00    -0.143 A  
HETATM    8  C   UNL     1      -8.428  10.040  68.034  1.00  0.00    -0.117 A  
HETATM    9  C   UNL     1      -9.034   9.123  68.915  1.00  0.00    -0.139 A  
HETATM   10  O   UNL     1      -7.092   9.949  67.754  1.00  0.00    -0.085 OA 
HETATM   11  H   UNL     1     -12.040   8.726  70.275  1.00  0.00     0.000 HD 
HETATM   12  H   UNL     1      -6.600   9.253  68.175  1.00  0.00     0.000 HD 
HETATM   13  C   UNL     1     -10.394   9.342  69.207  1.00  0.00    -0.215 A  
HETATM   14  O   UNL     1     -11.122   8.578  70.079  1.00  0.00    -0.236 OA 
HETATM   15  C   UNL     1     -11.116  10.383  68.615  1.00  0.00    -0.313 A  
BRANCH   9  16
HETATM   16  C   UNL     1      -8.226   7.995  69.577  1.00  0.00    -0.122 C  
HETATM   17  C   UNL     1      -8.648   6.669  68.998  1.00  0.00    -0.130 C  
HETATM   18  C   UNL     1      -9.257   5.697  69.688  1.00  0.00    -0.163 C  
HETATM   19  C   UNL     1      -9.567   5.824  71.148  1.00  0.00    -0.201 C  
HETATM   20  C   UNL     1      -9.737   4.439  69.019  1.00  0.00    -0.223 C  
HETATM   21  C   UNL     1      -8.897   6.961  71.925  1.00  0.00    -0.126 C  
HETATM   22  C   UNL     1      -8.185   8.088  71.141  1.00  0.00    -0.111 C  
BRANCH  22  23
HETATM   23  C   UNL     1      -6.766   8.356  71.673  1.00  0.00    -0.073 C  
HETATM   24  C   UNL     1      -6.208   7.546  72.589  1.00  0.00    -0.054 C  
HETATM   25  C   UNL     1      -5.990   9.528  71.143  1.00  0.00    -0.078 C  
ENDBRANCH  22  23
ENDBRANCH   9  16
ENDBRANCH   5   6
ENDBRANCH   4   5
ENDBRANCH   3   4
ENDBRANCH   2   3
TORSDOF 6
ENDMDL
MODEL      187
REMARK 921   NORMALIZED FREE ENERGY PREDICTED BY IDOCK:   -3.45 KCAL/MOL
REMARK 922        TOTAL FREE ENERGY PREDICTED BY IDOCK:   -5.59 KCAL/MOL
REMARK 923 INTER-LIGAND FREE ENERGY PREDICTED BY IDOCK:   -6.25 KCAL/MOL
REMARK 924 INTRA-LIGAND FREE ENERGY PREDICTED BY IDOCK:    0.66 KCAL/MOL
REMARK 927      BINDING AFFINITY PREDICTED BY RF-SCORE:    0.00 PKD
ROOT
HETATM    1  C   UNL     1     -11.987  15.025  74.042  1.00  0.00    -0.439 C  
HETATM    2  C   UNL     1     -12.385  15.750  72.767  1.00  0.00    -0.564 C  
ENDROOT
BRANCH   2   3
HETATM    3  C   UNL     1     -13.855  15.505  72.426  1.00  0.00    -0.662 C  
BRANCH   3   4
HETATM    4  C   UNL     1     -13.988  14.528  71.264  1.00  0.00    -0.356 C  
BRANCH   4   5
HETATM    5  C   UNL     1     -12.764  14.577  70.349  1.00  0.00    -0.378 C  
BRANCH   5   6
HETATM    6  C   UNL     1     -12.123  13.215  70.237  1.00  0.00    -0.399 A  
HETATM    7  C   UNL     1     -12.525  12.178  71.079  1.00  0.00    -0.369 A  
HETATM    8  C   UNL     1     -11.888  10.937  71.025  1.00  0.00    -0.191 A  
HETATM    9  C   UNL     1     -10.805  10.688  70.160  1.00  0.00    -0.224 A  
HETATM   10  O   UNL     1     -12.352   9.950  71.852  1.00  0.00    -0.380 OA 
HETATM   11  H   UNL     1      -9.213  12.354  67.766  1.00  0.00     0.000 HD 
HETATM   12  H   UNL     1     -11.919   9.105  71.814  1.00  0.00     0.000 HD 
HETATM   13  C   UNL     1     -10.448  11.736  69.290  1.00  0.00     0.060 A  
HETATM   14  O   UNL     1      -9.453  11.647  68.353  1.00  0.00    -0.189 OA 
HETATM   15  C   UNL     1     -11.101  12.972  69.318  1.00  0.00    -0.194 A  
BRANCH   9  16
HETATM   16  C   UNL     1     -10.108   9.318  70.123  1.00  0.00    -0.249 C  
HETATM   17  C   UNL     1      -9.177   9.261  68.939  1.00  0.00    -0.143 C  
HETATM   18  C   UNL     1      -9.326   8.439  67.893  1.00  0.00    -0.147 C  
HETATM   19  C   UNL     1     -10.449   7.453  67.803  1.00  0.00    -0.298 C  
HETATM   20  C   UNL     1      -8.412   8.508  66.701  1.00  0.00    -0.116 C  
HETATM   21  C   UNL     1     -11.258   7.172  69.073  1.00  0.00     0.021 C  
HETATM   22  C   UNL     1     -11.092   8.111  70.291  1.00  0.00    -0.221 C  
BRANCH  22  23
HETATM   23  C   UNL     1     -10.840   7.329  71.593  1.00  0.00    -0.246 C  
HETATM   24  C   UNL     1      -9.737   7.552  72.329  1.00  0.00    -0.203 C  
HETATM   25  C   UNL     1     -11.852   6.318  72.052  1.00  0.00    -0.370 C  
ENDBRANCH  22  23
ENDBRANCH   9  16
ENDBRANCH   5   6
ENDBRANCH   4   5
ENDBRANCH   3   4
ENDBRANCH   2   3
TORSDOF 6
ENDMDL
MODEL      188
REMARK 921   NORMALIZED FREE ENERGY PREDICTED BY IDOCK:   -3.43 KCAL/MOL
REMARK 922        TOTAL FREE ENERGY PREDICTED BY IDOCK:   -5.57 KCAL/MOL
REMARK 923 INTER-LIGAND FREE ENERGY PREDICTED BY IDOCK:   -5.56 KCAL/MOL
REMARK 924 INTRA-LIGAND FREE ENERGY PREDICTED BY IDOCK:   -0.01 KCAL/MOL
REMARK 927      BINDING AFFINITY PREDICTED BY RF-SCORE:    0.00 PKD
ROOT
HETATM    1  C   UNL     1      -6.744   5.373  72.136  1.00  0.00    -0.061 C  
HETATM    2  C   UNL     1      -5.699   6.330  72.684  1.00  0.00    -0.037 C  
ENDROOT
BRANCH   2   3
HETATM    3  C   UNL     1      -6.183   7.778  72.613  1.00  0.00    -0.061 C  
BRANCH   3   4
HETATM    4  C   UNL     1      -7.330   8.016  73.588  1.00  0.00    -0.185 C  
BRANCH   4   5
HETATM    5  C   UNL     1      -8.654   7.490  73.033  1.00  0.00    -0.185 C  
BRANCH   5   6
HETATM    6  C   UNL     1      -9.227   8.447  72.016  1.00  0.00    -0.304 A  
HETATM    7  C   UNL     1     -10.597   8.711  71.993  1.00  0.00    -0.421 A  
HETATM    8  C   UNL     1     -11.140   9.543  71.012  1.00  0.00    -0.363 A  
HETATM    9  C   UNL     1     -10.352  10.115  69.995  1.00  0.00    -0.301 A  
HETATM   10  O   UNL     1     -12.485   9.791  71.065  1.00  0.00    -0.312 OA 
HETATM   11  H   UNL     1      -7.118  10.224  69.239  1.00  0.00     0.000 HD 
HETATM   12  H   UNL     1     -12.855  10.357  70.397  1.00  0.00     0.000 HD 
HETATM   13  C   UNL     1      -8.967   9.870  70.067  1.00  0.00    -0.169 A  
HETATM   14  O   UNL     1      -8.052  10.389  69.190  1.00  0.00    -0.129 OA 
HETATM   15  C   UNL     1      -8.412   9.062  71.065  1.00  0.00    -0.254 A  
BRANCH   9  16
HETATM   16  C   UNL     1     -10.969  11.019  68.915  1.00  0.00    -0.277 C  
HETATM   17  C   UNL     1     -10.809  10.368  67.565  1.00  0.00    -0.358 C  
HETATM   18  C   UNL     1     -10.064  10.860  66.568  1.00  0.00    -0.269 C  
HETATM   19  C   UNL     1      -9.313  12.150  66.689  1.00  0.00    -0.226 C  
HETATM   20  C   UNL     1      -9.873  10.105  65.282  1.00  0.00    -0.388 C  
HETATM   21  C   UNL     1      -9.656  13.069  67.865  1.00  0.00    -0.215 C  
HETATM   22  C   UNL     1     -10.521  12.517  69.022  1.00  0.00    -0.024 C  
BRANCH  22  23
HETATM   23  C   UNL     1     -11.692  13.453  69.367  1.00  0.00    -0.382 C  
HETATM   24  C   UNL     1     -12.348  13.337  70.534  1.00  0.00    -0.389 C  
HETATM   25  C   UNL     1     -12.092  14.523  68.390  1.00  0.00    -0.249 C  
ENDBRANCH  22  23
ENDBRANCH   9  16
ENDBRANCH   5   6
ENDBRANCH   4   5
ENDBRANCH   3   4
ENDBRANCH   2   3
TORSDOF 6
ENDMDL
MODEL      189
REMARK 921   NORMALIZED FREE ENERGY PREDICTED BY IDOCK:   -3.40 KCAL/MOL
REMARK 922        TOTAL FREE ENERGY PREDICTED BY IDOCK:   -5.53 KCAL/MOL
REMARK 923 INTER-LIGAND FREE ENERGY PREDICTED BY IDOCK:   -5.07 KCAL/MOL
REMARK 924 INTRA-LIGAND FREE ENERGY PREDICTED BY IDOCK:   -0.45 KCAL/MOL
REMARK 927      BINDING AFFINITY PREDICTED BY RF-SCORE:    0.00 PKD
ROOT
HETATM    1  C   UNL     1     -11.514  15.027  64.696  1.00  0.00    -0.382 C  
HETATM    2  C   UNL     1     -12.144  13.839  63.990  1.00  0.00    -0.448 C  
ENDROOT
BRANCH   2   3
HETATM    3  C   UNL     1     -12.607  12.781  64.993  1.00  0.00    -0.538 C  
BRANCH   3   4
HETATM    4  C   UNL     1     -11.625  12.663  66.151  1.00  0.00    -0.445 C  
BRANCH   4   5
HETATM    5  C   UNL     1     -10.376  11.879  65.748  1.00  0.00    -0.285 C  
BRANCH   5   6
HETATM    6  C   UNL     1     -10.160  10.703  66.669  1.00  0.00    -0.270 A  
HETATM    7  C   UNL     1      -9.494  10.874  67.883  1.00  0.00    -0.166 A  
HETATM    8  C   UNL     1      -9.233   9.777  68.707  1.00  0.00    -0.143 A  
HETATM    9  C   UNL     1      -9.590   8.465  68.341  1.00  0.00    -0.157 A  
HETATM   10  O   UNL     1      -8.608  10.016  69.901  1.00  0.00    -0.245 OA 
HETATM   11  H   UNL     1     -11.245   7.035  65.840  1.00  0.00     0.000 HD 
HETATM   12  H   UNL     1      -8.431   9.269  70.461  1.00  0.00     0.000 HD 
HETATM   13  C   UNL     1     -10.300   8.325  67.134  1.00  0.00    -0.317 A  
HETATM   14  O   UNL     1     -10.766   7.130  66.654  1.00  0.00    -0.245 OA 
HETATM   15  C   UNL     1     -10.592   9.423  66.318  1.00  0.00     0.028 A  
BRANCH   9  16
HETATM   16  C   UNL     1      -9.284   7.267  69.255  1.00  0.00    -0.144 C  
HETATM   17  C   UNL     1     -10.192   7.308  70.457  1.00  0.00    -0.203 C  
HETATM   18  C   UNL     1      -9.779   7.489  71.717  1.00  0.00    -0.187 C  
HETATM   19  C   UNL     1      -8.333   7.652  72.071  1.00  0.00    -0.129 C  
HETATM   20  C   UNL     1     -10.755   7.617  72.854  1.00  0.00    -0.428 C  
HETATM   21  C   UNL     1      -7.292   7.295  71.005  1.00  0.00    -0.074 C  
HETATM   22  C   UNL     1      -7.756   7.077  69.546  1.00  0.00    -0.107 C  
BRANCH  22  23
HETATM   23  C   UNL     1      -7.207   5.766  68.955  1.00  0.00    -0.078 C  
HETATM   24  C   UNL     1      -7.214   4.630  69.672  1.00  0.00    -0.051 C  
HETATM   25  C   UNL     1      -6.677   5.758  67.549  1.00  0.00    -0.059 C  
ENDBRANCH  22  23
ENDBRANCH   9  16
ENDBRANCH   5   6
ENDBRANCH   4   5
ENDBRANCH   3   4
ENDBRANCH   2   3
TORSDOF 6
ENDMDL
MODEL      190
REMARK 921   NORMALIZED FREE ENERGY PREDICTED BY IDOCK:   -3.40 KCAL/MOL
REMARK 922        TOTAL FREE ENERGY PREDICTED BY IDOCK:   -5.52 KCAL/MOL
REMARK 923 INTER-LIGAND FREE ENERGY PREDICTED BY IDOCK:   -4.80 KCAL/MOL
REMARK 924 INTRA-LIGAND FREE ENERGY PREDICTED BY IDOCK:   -0.72 KCAL/MOL
REMARK 927      BINDING AFFINITY PREDICTED BY RF-SCORE:    0.00 PKD
ROOT
HETATM    1  C   UNL     1     -10.316  10.785  67.565  1.00  0.00    -0.244 C  
HETATM    2  C   UNL     1     -10.801  12.005  68.330  1.00  0.00    -0.263 C  
ENDROOT
BRANCH   2   3
HETATM    3  C   UNL     1     -12.134  11.728  69.025  1.00  0.00    -0.276 C  
BRANCH   3   4
HETATM    4  C   UNL     1     -11.941  11.570  70.528  1.00  0.00    -0.439 C  
BRANCH   4   5
HETATM    5  C   UNL     1     -12.639  10.315  71.053  1.00  0.00    -0.487 C  
BRANCH   5   6
HETATM    6  C   UNL     1     -11.633   9.239  71.381  1.00  0.00    -0.437 A  
HETATM    7  C   UNL     1     -10.285   9.419  71.071  1.00  0.00    -0.369 A  
HETATM    8  C   UNL     1      -9.362   8.399  71.310  1.00  0.00    -0.187 A  
HETATM    9  C   UNL     1      -9.747   7.149  71.833  1.00  0.00    -0.169 A  
HETATM   10  O   UNL     1      -8.049   8.650  71.016  1.00  0.00    -0.111 OA 
HETATM   11  H   UNL     1     -12.552   5.787  72.979  1.00  0.00     0.000 HD 
HETATM   12  H   UNL     1      -7.421   7.956  71.180  1.00  0.00     0.000 HD 
HETATM   13  C   UNL     1     -11.104   7.009  72.180  1.00  0.00    -0.245 A  
HETATM   14  O   UNL     1     -11.637   5.881  72.745  1.00  0.00    -0.266 OA 
HETATM   15  C   UNL     1     -12.029   8.037  71.970  1.00  0.00    -0.375 A  
BRANCH   9  16
HETATM   16  C   UNL     1      -8.719   6.033  72.079  1.00  0.00    -0.136 C  
HETATM   17  C   UNL     1      -7.773   6.455  73.173  1.00  0.00    -0.098 C  
HETATM   18  C   UNL     1      -6.463   6.673  73.005  1.00  0.00    -0.063 C  
HETATM   19  C   UNL     1      -5.785   6.494  71.682  1.00  0.00    -0.036 C  
HETATM   20  C   UNL     1      -5.600   7.187  74.124  1.00  0.00    -0.054 C  
HETATM   21  C   UNL     1      -6.549   5.751  70.581  1.00  0.00    -0.044 C  
HETATM   22  C   UNL     1      -8.061   5.488  70.765  1.00  0.00    -0.113 C  
BRANCH  22  23
HETATM   23  C   UNL     1      -8.428   4.017  70.496  1.00  0.00    -0.097 C  
HETATM   24  C   UNL     1      -9.386   3.696  69.609  1.00  0.00    -0.243 C  
HETATM   25  C   UNL     1      -7.688   2.929  71.222  1.00  0.00    -0.044 C  
ENDBRANCH  22  23
ENDBRANCH   9  16
ENDBRANCH   5   6
ENDBRANCH   4   5
ENDBRANCH   3   4
ENDBRANCH   2   3
TORSDOF 6
ENDMDL
MODEL      191
REMARK 921   NORMALIZED FREE ENERGY PREDICTED BY IDOCK:   -3.35 KCAL/MOL
REMARK 922        TOTAL FREE ENERGY PREDICTED BY IDOCK:   -5.45 KCAL/MOL
REMARK 923 INTER-LIGAND FREE ENERGY PREDICTED BY IDOCK:   -4.79 KCAL/MOL
REMARK 924 INTRA-LIGAND FREE ENERGY PREDICTED BY IDOCK:   -0.66 KCAL/MOL
REMARK 927      BINDING AFFINITY PREDICTED BY RF-SCORE:    0.00 PKD
ROOT
HETATM    1  C   UNL     1     -11.639  14.484  68.803  1.00  0.00    -0.343 C  
HETATM    2  C   UNL     1     -11.264  15.667  67.926  1.00  0.00    -0.328 C  
ENDROOT
BRANCH   2   3
HETATM    3  C   UNL     1     -10.378  15.231  66.759  1.00  0.00    -0.279 C  
BRANCH   3   4
HETATM    4  C   UNL     1     -10.626  13.770  66.403  1.00  0.00    -0.284 C  
BRANCH   4   5
HETATM    5  C   UNL     1      -9.327  12.964  66.411  1.00  0.00    -0.192 C  
BRANCH   5   6
HETATM    6  C   UNL     1      -9.506  11.667  67.163  1.00  0.00    -0.183 A  
HETATM    7  C   UNL     1      -8.930  11.500  68.423  1.00  0.00    -0.173 A  
HETATM    8  C   UNL     1      -9.035  10.280  69.092  1.00  0.00    -0.180 A  
HETATM    9  C   UNL     1      -9.684   9.167  68.522  1.00  0.00    -0.166 A  
HETATM   10  O   UNL     1      -8.480  10.190  70.340  1.00  0.00    -0.362 OA 
HETATM   11  H   UNL     1     -11.421   8.558  65.755  1.00  0.00     0.000 HD 
HETATM   12  H   UNL     1      -8.552   9.360  70.795  1.00  0.00     0.000 HD 
HETATM   13  C   UNL     1     -10.295   9.375  67.271  1.00  0.00    -0.260 A  
HETATM   14  O   UNL     1     -11.009   8.418  66.599  1.00  0.00     0.072 OA 
HETATM   15  C   UNL     1     -10.219  10.604  66.608  1.00  0.00    -0.284 A  
BRANCH   9  16
HETATM   16  C   UNL     1      -9.780   7.827  69.268  1.00  0.00    -0.165 C  
HETATM   17  C   UNL     1     -10.850   7.917  70.326  1.00  0.00    -0.241 C  
HETATM   18  C   UNL     1     -10.626   7.842  71.643  1.00  0.00    -0.267 C  
HETATM   19  C   UNL     1      -9.257   7.635  72.212  1.00  0.00    -0.189 C  
HETATM   20  C   UNL     1     -11.732   8.039  72.642  1.00  0.00    -0.418 C  
HETATM   21  C   UNL     1      -8.144   7.192  71.256  1.00  0.00    -0.107 C  
HETATM   22  C   UNL     1      -8.392   7.268  69.732  1.00  0.00    -0.135 C  
BRANCH  22  23
HETATM   23  C   UNL     1      -8.025   5.952  69.021  1.00  0.00    -0.099 C  
HETATM   24  C   UNL     1      -6.760   5.701  68.643  1.00  0.00    -0.057 C  
HETATM   25  C   UNL     1      -9.097   4.930  68.766  1.00  0.00    -0.147 C  
ENDBRANCH  22  23
ENDBRANCH   9  16
ENDBRANCH   5   6
ENDBRANCH   4   5
ENDBRANCH   3   4
ENDBRANCH   2   3
TORSDOF 6
ENDMDL
MODEL      192
REMARK 921   NORMALIZED FREE ENERGY PREDICTED BY IDOCK:   -3.33 KCAL/MOL
REMARK 922        TOTAL FREE ENERGY PREDICTED BY IDOCK:   -5.43 KCAL/MOL
REMARK 923 INTER-LIGAND FREE ENERGY PREDICTED BY IDOCK:   -4.83 KCAL/MOL
REMARK 924 INTRA-LIGAND FREE ENERGY PREDICTED BY IDOCK:   -0.59 KCAL/MOL
REMARK 927      BINDING AFFINITY PREDICTED BY RF-SCORE:    0.00 PKD
ROOT
HETATM    1  C   UNL     1     -11.214  10.747  68.353  1.00  0.00    -0.345 C  
HETATM    2  C   UNL     1     -11.889  11.565  69.440  1.00  0.00    -0.417 C  
ENDROOT
BRANCH   2   3
HETATM    3  C   UNL     1     -12.683  10.671  70.393  1.00  0.00    -0.340 C  
BRANCH   3   4
HETATM    4  C   UNL     1     -11.786  10.122  71.497  1.00  0.00    -0.356 C  
BRANCH   4   5
HETATM    5  C   UNL     1     -12.175   8.692  71.874  1.00  0.00    -0.419 C  
BRANCH   5   6
HETATM    6  C   UNL     1     -11.202   7.699  71.287  1.00  0.00    -0.277 A  
HETATM    7  C   UNL     1     -11.411   7.183  70.008  1.00  0.00    -0.242 A  
HETATM    8  C   UNL     1     -10.551   6.214  69.488  1.00  0.00    -0.287 A  
HETATM    9  C   UNL     1      -9.473   5.693  70.230  1.00  0.00    -0.202 A  
HETATM   10  O   UNL     1     -10.789   5.773  68.214  1.00  0.00    -0.241 OA 
HETATM   11  H   UNL     1      -8.081   6.296  73.187  1.00  0.00     0.000 HD 
HETATM   12  H   UNL     1     -10.203   5.113  67.860  1.00  0.00     0.000 HD 
HETATM   13  C   UNL     1      -9.257   6.263  71.500  1.00  0.00    -0.145 A  
HETATM   14  O   UNL     1      -8.227   5.911  72.331  1.00  0.00    -0.110 OA 
HETATM   15  C   UNL     1     -10.097   7.256  72.015  1.00  0.00    -0.207 A  
BRANCH   9  16
HETATM   16  C   UNL     1      -8.543   4.617  69.646  1.00  0.00    -0.099 C  
HETATM   17  C   UNL     1      -7.948   5.116  68.355  1.00  0.00    -0.087 C  
HETATM   18  C   UNL     1      -8.183   4.580  67.151  1.00  0.00    -0.101 C  
HETATM   19  C   UNL     1      -9.067   3.385  66.966  1.00  0.00    -0.192 C  
HETATM   20  C   UNL     1      -7.631   5.193  65.895  1.00  0.00    -0.083 C  
HETATM   21  C   UNL     1      -9.457   2.584  68.211  1.00  0.00    -0.222 C  
HETATM   22  C   UNL     1      -9.186   3.189  69.608  1.00  0.00    -0.221 C  
BRANCH  22  23
HETATM   23  C   UNL     1      -8.462   2.198  70.537  1.00  0.00    -0.087 C  
HETATM   24  C   UNL     1      -8.931   1.937  71.769  1.00  0.00    -0.121 C  
HETATM   25  C   UNL     1      -7.224   1.500  70.047  1.00  0.00    -0.033 C  
ENDBRANCH  22  23
ENDBRANCH   9  16
ENDBRANCH   5   6
ENDBRANCH   4   5
ENDBRANCH   3   4
ENDBRANCH   2   3
TORSDOF 6
ENDMDL
MODEL      193
REMARK 921   NORMALIZED FREE ENERGY PREDICTED BY IDOCK:   -3.31 KCAL/MOL
REMARK 922        TOTAL FREE ENERGY PREDICTED BY IDOCK:   -5.41 KCAL/MOL
REMARK 923 INTER-LIGAND FREE ENERGY PREDICTED BY IDOCK:   -4.57 KCAL/MOL
REMARK 924 INTRA-LIGAND FREE ENERGY PREDICTED BY IDOCK:   -0.84 KCAL/MOL
REMARK 927      BINDING AFFINITY PREDICTED BY RF-SCORE:    0.00 PKD
ROOT
HETATM    1  C   UNL     1     -12.509  13.830  65.302  1.00  0.00    -0.512 C  
HETATM    2  C   UNL     1     -11.951  14.435  66.579  1.00  0.00    -0.406 C  
ENDROOT
BRANCH   2   3
HETATM    3  C   UNL     1     -10.902  13.520  67.212  1.00  0.00    -0.285 C  
BRANCH   3   4
HETATM    4  C   UNL     1     -11.480  12.137  67.485  1.00  0.00    -0.410 C  
BRANCH   4   5
HETATM    5  C   UNL     1     -11.329  11.748  68.956  1.00  0.00    -0.338 C  
BRANCH   5   6
HETATM    6  C   UNL     1     -10.526  10.477  69.094  1.00  0.00    -0.250 A  
HETATM    7  C   UNL     1      -9.158  10.477  68.824  1.00  0.00    -0.166 A  
HETATM    8  C   UNL     1      -8.424   9.291  68.885  1.00  0.00    -0.129 A  
HETATM    9  C   UNL     1      -9.028   8.052  69.180  1.00  0.00    -0.145 A  
HETATM   10  O   UNL     1      -7.079   9.363  68.644  1.00  0.00    -0.068 OA 
HETATM   11  H   UNL     1     -12.056   7.007  70.062  1.00  0.00     0.000 HD 
HETATM   12  H   UNL     1      -6.580   8.555  68.686  1.00  0.00     0.000 HD 
HETATM   13  C   UNL     1     -10.400   8.086  69.493  1.00  0.00    -0.221 A  
HETATM   14  O   UNL     1     -11.130   6.984  69.851  1.00  0.00    -0.265 OA 
HETATM   15  C   UNL     1     -11.134   9.276  69.463  1.00  0.00    -0.099 A  
BRANCH   9  16
HETATM   16  C   UNL     1      -8.207   6.754  69.231  1.00  0.00    -0.124 C  
HETATM   17  C   UNL     1      -8.488   5.934  67.998  1.00  0.00    -0.110 C  
HETATM   18  C   UNL     1      -9.088   4.738  68.000  1.00  0.00    -0.137 C  
HETATM   19  C   UNL     1      -9.533   4.067  69.262  1.00  0.00    -0.260 C  
HETATM   20  C   UNL     1      -9.423   4.023  66.720  1.00  0.00    -0.219 C  
HETATM   21  C   UNL     1      -9.011   4.623  70.591  1.00  0.00    -0.162 C  
HETATM   22  C   UNL     1      -8.310   6.002  70.602  1.00  0.00    -0.125 C  
BRANCH  22  23
HETATM   23  C   UNL     1      -6.964   5.960  71.348  1.00  0.00    -0.072 C  
HETATM   24  C   UNL     1      -6.445   4.794  71.770  1.00  0.00    -0.030 C  
HETATM   25  C   UNL     1      -6.214   7.240  71.585  1.00  0.00    -0.037 C  
ENDBRANCH  22  23
ENDBRANCH   9  16
ENDBRANCH   5   6
ENDBRANCH   4   5
ENDBRANCH   3   4
ENDBRANCH   2   3
TORSDOF 6
ENDMDL
MODEL      194
REMARK 921   NORMALIZED FREE ENERGY PREDICTED BY IDOCK:   -3.31 KCAL/MOL
REMARK 922        TOTAL FREE ENERGY PREDICTED BY IDOCK:   -5.41 KCAL/MOL
REMARK 923 INTER-LIGAND FREE ENERGY PREDICTED BY IDOCK:   -4.32 KCAL/MOL
REMARK 924 INTRA-LIGAND FREE ENERGY PREDICTED BY IDOCK:   -1.09 KCAL/MOL
REMARK 927      BINDING AFFINITY PREDICTED BY RF-SCORE:    0.00 PKD
ROOT
HETATM    1  C   UNL     1     -10.899   3.991  64.225  1.00  0.00    -0.149 C  
HETATM    2  C   UNL     1      -9.457   3.515  64.271  1.00  0.00    -0.149 C  
ENDROOT
BRANCH   2   3
HETATM    3  C   UNL     1      -9.236   2.528  65.418  1.00  0.00    -0.096 C  
BRANCH   3   4
HETATM    4  C   UNL     1      -7.858   2.718  66.040  1.00  0.00    -0.081 C  
BRANCH   4   5
HETATM    5  C   UNL     1      -7.926   2.701  67.568  1.00  0.00    -0.068 C  
BRANCH   5   6
HETATM    6  C   UNL     1      -8.309   4.060  68.103  1.00  0.00    -0.100 A  
HETATM    7  C   UNL     1      -7.617   5.198  67.689  1.00  0.00    -0.087 A  
HETATM    8  C   UNL     1      -7.922   6.448  68.231  1.00  0.00    -0.106 A  
HETATM    9  C   UNL     1      -8.900   6.610  69.232  1.00  0.00    -0.133 A  
HETATM   10  O   UNL     1      -7.232   7.531  67.758  1.00  0.00    -0.088 OA 
HETATM   11  H   UNL     1     -11.113   4.662  70.766  1.00  0.00     0.000 HD 
HETATM   12  H   UNL     1      -7.441   8.381  68.127  1.00  0.00     0.000 HD 
HETATM   13  C   UNL     1      -9.615   5.454  69.600  1.00  0.00    -0.160 A  
HETATM   14  O   UNL     1     -10.631   5.442  70.518  1.00  0.00    -0.271 OA 
HETATM   15  C   UNL     1      -9.334   4.204  69.038  1.00  0.00    -0.232 A  
BRANCH   9  16
HETATM   16  C   UNL     1      -9.215   7.992  69.828  1.00  0.00    -0.149 C  
HETATM   17  C   UNL     1      -8.672   8.069  71.231  1.00  0.00    -0.159 C  
HETATM   18  C   UNL     1      -9.424   8.192  72.332  1.00  0.00    -0.319 C  
HETATM   19  C   UNL     1     -10.917   8.289  72.276  1.00  0.00    -0.418 C  
HETATM   20  C   UNL     1      -8.816   8.163  73.707  1.00  0.00    -0.265 C  
HETATM   21  C   UNL     1     -11.565   8.563  70.915  1.00  0.00    -0.295 C  
HETATM   22  C   UNL     1     -10.707   8.431  69.635  1.00  0.00    -0.201 C  
BRANCH  22  23
HETATM   23  C   UNL     1     -10.840   9.661  68.720  1.00  0.00    -0.199 C  
HETATM   24  C   UNL     1     -11.640  10.688  69.056  1.00  0.00    -0.332 C  
HETATM   25  C   UNL     1     -10.048   9.719  67.445  1.00  0.00    -0.259 C  
ENDBRANCH  22  23
ENDBRANCH   9  16
ENDBRANCH   5   6
ENDBRANCH   4   5
ENDBRANCH   3   4
ENDBRANCH   2   3
TORSDOF 6
ENDMDL
MODEL      195
REMARK 921   NORMALIZED FREE ENERGY PREDICTED BY IDOCK:   -3.30 KCAL/MOL
REMARK 922        TOTAL FREE ENERGY PREDICTED BY IDOCK:   -5.39 KCAL/MOL
REMARK 923 INTER-LIGAND FREE ENERGY PREDICTED BY IDOCK:   -4.75 KCAL/MOL
REMARK 924 INTRA-LIGAND FREE ENERGY PREDICTED BY IDOCK:   -0.64 KCAL/MOL
REMARK 927      BINDING AFFINITY PREDICTED BY RF-SCORE:    0.00 PKD
ROOT
HETATM    1  C   UNL     1      -7.846   4.534  63.654  1.00  0.00    -0.081 C  
HETATM    2  C   UNL     1      -8.042   5.864  64.361  1.00  0.00    -0.128 C  
ENDROOT
BRANCH   2   3
HETATM    3  C   UNL     1      -6.701   6.502  64.724  1.00  0.00    -0.042 C  
BRANCH   3   4
HETATM    4  C   UNL     1      -6.680   7.978  64.347  1.00  0.00    -0.061 C  
BRANCH   4   5
HETATM    5  C   UNL     1      -8.087   8.499  64.051  1.00  0.00    -0.156 C  
BRANCH   5   6
HETATM    6  C   UNL     1      -8.430   9.660  64.952  1.00  0.00    -0.161 A  
HETATM    7  C   UNL     1      -9.749  10.100  65.061  1.00  0.00    -0.384 A  
HETATM    8  C   UNL     1     -10.060  11.216  65.841  1.00  0.00    -0.247 A  
HETATM    9  C   UNL     1      -9.070  11.959  66.513  1.00  0.00    -0.211 A  
HETATM   10  O   UNL     1     -11.377  11.576  65.935  1.00  0.00    -0.244 OA 
HETATM   11  H   UNL     1      -5.792  11.707  66.995  1.00  0.00     0.000 HD 
HETATM   12  H   UNL     1     -11.589  12.335  66.466  1.00  0.00     0.000 HD 
HETATM   13  C   UNL     1      -7.754  11.468  66.424  1.00  0.00     0.003 A  
HETATM   14  O   UNL     1      -6.680  12.038  67.055  1.00  0.00    -0.143 OA 
HETATM   15  C   UNL     1      -7.439  10.334  65.669  1.00  0.00    -0.149 A  
BRANCH   9  16
HETATM   16  C   UNL     1      -9.430  13.192  67.357  1.00  0.00    -0.214 C  
HETATM   17  C   UNL     1     -10.050  12.747  68.656  1.00  0.00    -0.132 C  
HETATM   18  C   UNL     1     -11.316  12.991  69.018  1.00  0.00    -0.340 C  
HETATM   19  C   UNL     1     -12.260  13.770  68.155  1.00  0.00    -0.178 C  
HETATM   20  C   UNL     1     -11.894  12.430  70.288  1.00  0.00    -0.315 C  
HETATM   21  C   UNL     1     -11.670  14.561  66.982  1.00  0.00    -0.412 C  
HETATM   22  C   UNL     1     -10.208  14.293  66.557  1.00  0.00    -0.277 C  
BRANCH  22  23
HETATM   23  C   UNL     1      -9.399  15.595  66.418  1.00  0.00    -0.332 C  
HETATM   24  C   UNL     1      -9.991  16.737  66.029  1.00  0.00    -0.334 C  
HETATM   25  C   UNL     1      -7.932  15.587  66.742  1.00  0.00    -0.214 C  
ENDBRANCH  22  23
ENDBRANCH   9  16
ENDBRANCH   5   6
ENDBRANCH   4   5
ENDBRANCH   3   4
ENDBRANCH   2   3
TORSDOF 6
ENDMDL
MODEL      196
REMARK 921   NORMALIZED FREE ENERGY PREDICTED BY IDOCK:   -3.30 KCAL/MOL
REMARK 922        TOTAL FREE ENERGY PREDICTED BY IDOCK:   -5.39 KCAL/MOL
REMARK 923 INTER-LIGAND FREE ENERGY PREDICTED BY IDOCK:   -4.66 KCAL/MOL
REMARK 924 INTRA-LIGAND FREE ENERGY PREDICTED BY IDOCK:   -0.73 KCAL/MOL
REMARK 927      BINDING AFFINITY PREDICTED BY RF-SCORE:    0.00 PKD
ROOT
HETATM    1  C   UNL     1      -8.738  12.061  66.421  1.00  0.00    -0.088 C  
HETATM    2  C   UNL     1     -10.055  12.818  66.451  1.00  0.00    -0.266 C  
ENDROOT
BRANCH   2   3
HETATM    3  C   UNL     1     -10.490  13.116  67.886  1.00  0.00    -0.245 C  
BRANCH   3   4
HETATM    4  C   UNL     1     -11.886  12.568  68.155  1.00  0.00    -0.371 C  
BRANCH   4   5
HETATM    5  C   UNL     1     -11.894  11.620  69.355  1.00  0.00    -0.408 C  
BRANCH   5   6
HETATM    6  C   UNL     1     -11.016  10.419  69.095  1.00  0.00    -0.285 A  
HETATM    7  C   UNL     1     -11.122   9.719  67.894  1.00  0.00    -0.161 A  
HETATM    8  C   UNL     1     -10.360   8.568  67.677  1.00  0.00    -0.253 A  
HETATM    9  C   UNL     1      -9.493   8.049  68.658  1.00  0.00    -0.147 A  
HETATM   10  O   UNL     1     -10.483   7.946  66.464  1.00  0.00    -0.475 OA 
HETATM   11  H   UNL     1      -8.455   8.972  71.676  1.00  0.00     0.000 HD 
HETATM   12  H   UNL     1      -9.965   7.164  66.317  1.00  0.00     0.000 HD 
HETATM   13  C   UNL     1      -9.371   8.799  69.843  1.00  0.00    -0.162 A  
HETATM   14  O   UNL     1      -8.537   8.466  70.877  1.00  0.00    -0.126 OA 
HETATM   15  C   UNL     1     -10.108   9.969  70.055  1.00  0.00    -0.289 A  
BRANCH   9  16
HETATM   16  C   UNL     1      -8.672   6.774  68.407  1.00  0.00    -0.123 C  
HETATM   17  C   UNL     1      -7.736   7.001  67.248  1.00  0.00    -0.109 C  
HETATM   18  C   UNL     1      -7.804   6.355  66.077  1.00  0.00    -0.103 C  
HETATM   19  C   UNL     1      -8.830   5.300  65.803  1.00  0.00    -0.149 C  
HETATM   20  C   UNL     1      -6.895   6.705  64.931  1.00  0.00    -0.050 C  
HETATM   21  C   UNL     1      -9.614   4.738  66.993  1.00  0.00    -0.187 C  
HETATM   22  C   UNL     1      -9.540   5.471  68.353  1.00  0.00    -0.155 C  
BRANCH  22  23
HETATM   23  C   UNL     1      -9.222   4.509  69.511  1.00  0.00    -0.192 C  
HETATM   24  C   UNL     1     -10.031   4.425  70.581  1.00  0.00    -0.254 C  
HETATM   25  C   UNL     1      -7.999   3.639  69.430  1.00  0.00    -0.060 C  
ENDBRANCH  22  23
ENDBRANCH   9  16
ENDBRANCH   5   6
ENDBRANCH   4   5
ENDBRANCH   3   4
ENDBRANCH   2   3
TORSDOF 6
ENDMDL
MODEL      197
REMARK 921   NORMALIZED FREE ENERGY PREDICTED BY IDOCK:   -3.28 KCAL/MOL
REMARK 922        TOTAL FREE ENERGY PREDICTED BY IDOCK:   -5.36 KCAL/MOL
REMARK 923 INTER-LIGAND FREE ENERGY PREDICTED BY IDOCK:   -4.98 KCAL/MOL
REMARK 924 INTRA-LIGAND FREE ENERGY PREDICTED BY IDOCK:   -0.38 KCAL/MOL
REMARK 927      BINDING AFFINITY PREDICTED BY RF-SCORE:    0.00 PKD
ROOT
HETATM    1  C   UNL     1      -5.809   5.132  70.534  1.00  0.00    -0.017 C  
HETATM    2  C   UNL     1      -6.397   6.466  70.962  1.00  0.00    -0.048 C  
ENDROOT
BRANCH   2   3
HETATM    3  C   UNL     1      -7.325   7.033  69.886  1.00  0.00    -0.085 C  
BRANCH   3   4
HETATM    4  C   UNL     1      -8.676   7.412  70.479  1.00  0.00    -0.147 C  
BRANCH   4   5
HETATM    5  C   UNL     1      -9.798   7.270  69.451  1.00  0.00    -0.163 C  
BRANCH   5   6
HETATM    6  C   UNL     1      -9.858   8.482  68.552  1.00  0.00    -0.186 A  
HETATM    7  C   UNL     1      -8.859   8.703  67.604  1.00  0.00    -0.138 A  
HETATM    8  C   UNL     1      -8.874   9.857  66.817  1.00  0.00    -0.135 A  
HETATM    9  C   UNL     1      -9.859  10.852  66.967  1.00  0.00    -0.214 A  
HETATM   10  O   UNL     1      -7.886   9.999  65.881  1.00  0.00    -0.112 OA 
HETATM   11  H   UNL     1     -12.630  11.237  68.760  1.00  0.00     0.000 HD 
HETATM   12  H   UNL     1      -7.896  10.784  65.346  1.00  0.00     0.000 HD 
HETATM   13  C   UNL     1     -10.881  10.584  67.898  1.00  0.00    -0.282 A  
HETATM   14  O   UNL     1     -11.941  11.418  68.132  1.00  0.00    -0.594 OA 
HETATM   15  C   UNL     1     -10.889   9.416  68.668  1.00  0.00    -0.149 A  
BRANCH   9  16
HETATM   16  C   UNL     1      -9.853  12.122  66.101  1.00  0.00    -0.254 C  
HETATM   17  C   UNL     1      -9.149  13.230  66.840  1.00  0.00    -0.235 C  
HETATM   18  C   UNL     1      -9.735  14.356  67.262  1.00  0.00    -0.233 C  
HETATM   19  C   UNL     1     -11.184  14.646  67.016  1.00  0.00    -0.348 C  
HETATM   20  C   UNL     1      -8.989  15.374  68.080  1.00  0.00    -0.171 C  
HETATM   21  C   UNL     1     -11.924  13.775  65.996  1.00  0.00    -0.443 C  
HETATM   22  C   UNL     1     -11.256  12.473  65.496  1.00  0.00    -0.349 C  
BRANCH  22  23
HETATM   23  C   UNL     1     -11.272  12.369  63.960  1.00  0.00    -0.458 C  
HETATM   24  C   UNL     1     -10.763  11.292  63.336  1.00  0.00    -0.349 C  
HETATM   25  C   UNL     1     -11.884  13.479  63.153  1.00  0.00     0.130 C  
ENDBRANCH  22  23
ENDBRANCH   9  16
ENDBRANCH   5   6
ENDBRANCH   4   5
ENDBRANCH   3   4
ENDBRANCH   2   3
TORSDOF 6
ENDMDL
MODEL      198
REMARK 921   NORMALIZED FREE ENERGY PREDICTED BY IDOCK:   -3.28 KCAL/MOL
REMARK 922        TOTAL FREE ENERGY PREDICTED BY IDOCK:   -5.35 KCAL/MOL
REMARK 923 INTER-LIGAND FREE ENERGY PREDICTED BY IDOCK:   -4.39 KCAL/MOL
REMARK 924 INTRA-LIGAND FREE ENERGY PREDICTED BY IDOCK:   -0.97 KCAL/MOL
REMARK 927      BINDING AFFINITY PREDICTED BY RF-SCORE:    0.00 PKD
ROOT
HETATM    1  C   UNL     1      -9.684  17.026  68.924  1.00  0.00    -0.259 C  
HETATM    2  C   UNL     1      -8.863  15.749  68.938  1.00  0.00    -0.220 C  
ENDROOT
BRANCH   2   3
HETATM    3  C   UNL     1      -9.650  14.578  68.349  1.00  0.00    -0.213 C  
BRANCH   3   4
HETATM    4  C   UNL     1      -8.987  14.062  67.077  1.00  0.00    -0.248 C  
BRANCH   4   5
HETATM    5  C   UNL     1      -7.724  13.259  67.392  1.00  0.00    -0.148 C  
BRANCH   5   6
HETATM    6  C   UNL     1      -8.076  11.867  67.859  1.00  0.00    -0.147 A  
HETATM    7  C   UNL     1      -7.697  11.436  69.131  1.00  0.00    -0.010 A  
HETATM    8  C   UNL     1      -7.961  10.128  69.542  1.00  0.00    -0.165 A  
HETATM    9  C   UNL     1      -8.579   9.188  68.695  1.00  0.00    -0.128 A  
HETATM   10  O   UNL     1      -7.596   9.777  70.813  1.00  0.00    -0.300 OA 
HETATM   11  H   UNL     1      -9.930   9.214  65.659  1.00  0.00     0.000 HD 
HETATM   12  H   UNL     1      -7.776   8.887  71.093  1.00  0.00     0.000 HD 
HETATM   13  C   UNL     1      -8.992   9.660  67.434  1.00  0.00    -0.131 A  
HETATM   14  O   UNL     1      -9.651   8.895  66.509  1.00  0.00    -0.191 OA 
HETATM   15  C   UNL     1      -8.758  10.977  67.027  1.00  0.00    -0.141 A  
BRANCH   9  16
HETATM   16  C   UNL     1      -8.851   7.748  69.160  1.00  0.00    -0.138 C  
HETATM   17  C   UNL     1      -8.052   6.789  68.315  1.00  0.00    -0.115 C  
HETATM   18  C   UNL     1      -8.583   5.883  67.485  1.00  0.00    -0.102 C  
HETATM   19  C   UNL     1     -10.062   5.714  67.323  1.00  0.00    -0.210 C  
HETATM   20  C   UNL     1      -7.721   5.026  66.600  1.00  0.00    -0.092 C  
HETATM   21  C   UNL     1     -10.975   6.378  68.358  1.00  0.00    -0.390 C  
HETATM   22  C   UNL     1     -10.375   7.422  69.328  1.00  0.00    -0.204 C  
BRANCH  22  23
HETATM   23  C   UNL     1     -10.752   7.135  70.792  1.00  0.00    -0.251 C  
HETATM   24  C   UNL     1     -12.022   6.861  71.137  1.00  0.00    -0.413 C  
HETATM   25  C   UNL     1      -9.679   7.143  71.844  1.00  0.00    -0.169 C  
ENDBRANCH  22  23
ENDBRANCH   9  16
ENDBRANCH   5   6
ENDBRANCH   4   5
ENDBRANCH   3   4
ENDBRANCH   2   3
TORSDOF 6
ENDMDL
MODEL      199
REMARK 921   NORMALIZED FREE ENERGY PREDICTED BY IDOCK:   -3.27 KCAL/MOL
REMARK 922        TOTAL FREE ENERGY PREDICTED BY IDOCK:   -5.35 KCAL/MOL
REMARK 923 INTER-LIGAND FREE ENERGY PREDICTED BY IDOCK:   -5.10 KCAL/MOL
REMARK 924 INTRA-LIGAND FREE ENERGY PREDICTED BY IDOCK:   -0.25 KCAL/MOL
REMARK 927      BINDING AFFINITY PREDICTED BY RF-SCORE:    0.00 PKD
ROOT
HETATM    1  C   UNL     1     -12.658  13.170  65.388  1.00  0.00    -0.512 C  
HETATM    2  C   UNL     1     -12.227  13.590  66.782  1.00  0.00    -0.392 C  
ENDROOT
BRANCH   2   3
HETATM    3  C   UNL     1     -11.075  12.723  67.291  1.00  0.00    -0.314 C  
BRANCH   3   4
HETATM    4  C   UNL     1     -11.602  11.465  67.972  1.00  0.00    -0.357 C  
BRANCH   4   5
HETATM    5  C   UNL     1     -11.217  11.426  69.451  1.00  0.00    -0.333 C  
BRANCH   5   6
HETATM    6  C   UNL     1     -10.829  10.028  69.867  1.00  0.00    -0.328 A  
HETATM    7  C   UNL     1      -9.512   9.592  69.726  1.00  0.00    -0.242 A  
HETATM    8  C   UNL     1      -9.163   8.279  70.047  1.00  0.00    -0.151 A  
HETATM    9  C   UNL     1     -10.114   7.337  70.484  1.00  0.00    -0.195 A  
HETATM   10  O   UNL     1      -7.847   7.923  69.920  1.00  0.00    -0.099 OA 
HETATM   11  H   UNL     1     -13.349   7.369  71.247  1.00  0.00     0.000 HD 
HETATM   12  H   UNL     1      -7.610   7.030  70.139  1.00  0.00     0.000 HD 
HETATM   13  C   UNL     1     -11.428   7.814  70.661  1.00  0.00    -0.245 A  
HETATM   14  O   UNL     1     -12.463   7.048  71.127  1.00  0.00    -0.368 OA 
HETATM   15  C   UNL     1     -11.778   9.137  70.371  1.00  0.00    -0.124 A  
BRANCH   9  16
HETATM   16  C   UNL     1      -9.715   5.892  70.821  1.00  0.00    -0.212 C  
HETATM   17  C   UNL     1      -9.410   5.786  72.293  1.00  0.00    -0.155 C  
HETATM   18  C   UNL     1      -8.205   5.503  72.802  1.00  0.00    -0.109 C  
HETATM   19  C   UNL     1      -7.013   5.236  71.937  1.00  0.00    -0.070 C  
HETATM   20  C   UNL     1      -7.955   5.511  74.285  1.00  0.00    -0.105 C  
HETATM   21  C   UNL     1      -7.254   4.979  70.446  1.00  0.00    -0.054 C  
HETATM   22  C   UNL     1      -8.643   5.295  69.846  1.00  0.00    -0.106 C  
BRANCH  22  23
HETATM   23  C   UNL     1      -9.197   4.122  69.018  1.00  0.00    -0.213 C  
HETATM   24  C   UNL     1      -9.307   2.893  69.551  1.00  0.00    -0.199 C  
HETATM   25  C   UNL     1      -9.637   4.363  67.602  1.00  0.00    -0.212 C  
ENDBRANCH  22  23
ENDBRANCH   9  16
ENDBRANCH   5   6
ENDBRANCH   4   5
ENDBRANCH   3   4
ENDBRANCH   2   3
TORSDOF 6
ENDMDL
MODEL      200
REMARK 921   NORMALIZED FREE ENERGY PREDICTED BY IDOCK:   -3.26 KCAL/MOL
REMARK 922        TOTAL FREE ENERGY PREDICTED BY IDOCK:   -5.33 KCAL/MOL
REMARK 923 INTER-LIGAND FREE ENERGY PREDICTED BY IDOCK:   -4.70 KCAL/MOL
REMARK 924 INTRA-LIGAND FREE ENERGY PREDICTED BY IDOCK:   -0.64 KCAL/MOL
REMARK 927      BINDING AFFINITY PREDICTED BY RF-SCORE:    0.00 PKD
ROOT
HETATM    1  C   UNL     1     -10.128  18.252  68.178  1.00  0.00    -0.397 C  
HETATM    2  C   UNL     1      -9.877  16.757  68.275  1.00  0.00    -0.257 C  
ENDROOT
BRANCH   2   3
HETATM    3  C   UNL     1     -11.161  15.963  68.032  1.00  0.00    -0.334 C  
BRANCH   3   4
HETATM    4  C   UNL     1     -11.079  15.185  66.724  1.00  0.00    -0.307 C  
BRANCH   4   5
HETATM    5  C   UNL     1      -9.700  14.555  66.533  1.00  0.00    -0.301 C  
BRANCH   5   6
HETATM    6  C   UNL     1      -9.607  13.236  67.262  1.00  0.00    -0.234 A  
HETATM    7  C   UNL     1     -10.578  12.881  68.198  1.00  0.00    -0.249 A  
HETATM    8  C   UNL     1     -10.460  11.694  68.923  1.00  0.00    -0.175 A  
HETATM    9  C   UNL     1      -9.356  10.832  68.775  1.00  0.00    -0.186 A  
HETATM   10  O   UNL     1     -11.464  11.384  69.801  1.00  0.00    -0.280 OA 
HETATM   11  H   UNL     1      -6.673  10.684  66.819  1.00  0.00     0.000 HD 
HETATM   12  H   UNL     1     -11.384  10.576  70.294  1.00  0.00     0.000 HD 
HETATM   13  C   UNL     1      -8.413  11.190  67.792  1.00  0.00    -0.124 A  
HETATM   14  O   UNL     1      -7.309  10.442  67.482  1.00  0.00    -0.090 OA 
HETATM   15  C   UNL     1      -8.541  12.363  67.040  1.00  0.00    -0.191 A  
BRANCH   9  16
HETATM   16  C   UNL     1      -9.236   9.535  69.590  1.00  0.00    -0.212 C  
HETATM   17  C   UNL     1      -8.071   9.645  70.539  1.00  0.00    -0.145 C  
HETATM   18  C   UNL     1      -6.967   8.890  70.478  1.00  0.00    -0.057 C  
HETATM   19  C   UNL     1      -6.785   7.819  69.449  1.00  0.00    -0.040 C  
HETATM   20  C   UNL     1      -5.802   9.124  71.400  1.00  0.00    -0.066 C  
HETATM   21  C   UNL     1      -8.015   7.378  68.650  1.00  0.00    -0.123 C  
HETATM   22  C   UNL     1      -9.299   8.237  68.715  1.00  0.00    -0.143 C  
BRANCH  22  23
HETATM   23  C   UNL     1     -10.547   7.389  69.017  1.00  0.00    -0.203 C  
HETATM   24  C   UNL     1     -10.896   6.365  68.218  1.00  0.00    -0.384 C  
HETATM   25  C   UNL     1     -11.373   7.701  70.232  1.00  0.00    -0.197 C  
ENDBRANCH  22  23
ENDBRANCH   9  16
ENDBRANCH   5   6
ENDBRANCH   4   5
ENDBRANCH   3   4
ENDBRANCH   2   3
TORSDOF 6
ENDMDL
MODEL      201
REMARK 921   NORMALIZED FREE ENERGY PREDICTED BY IDOCK:   -3.23 KCAL/MOL
REMARK 922        TOTAL FREE ENERGY PREDICTED BY IDOCK:   -5.29 KCAL/MOL
REMARK 923 INTER-LIGAND FREE ENERGY PREDICTED BY IDOCK:   -4.68 KCAL/MOL
REMARK 924 INTRA-LIGAND FREE ENERGY PREDICTED BY IDOCK:   -0.61 KCAL/MOL
REMARK 927      BINDING AFFINITY PREDICTED BY RF-SCORE:    0.00 PKD
ROOT
HETATM    1  C   UNL     1      -6.112   3.780  64.184  1.00  0.00    -0.018 C  
HETATM    2  C   UNL     1      -6.730   4.298  65.471  1.00  0.00    -0.052 C  
ENDROOT
BRANCH   2   3
HETATM    3  C   UNL     1      -8.035   3.568  65.791  1.00  0.00    -0.093 C  
BRANCH   3   4
HETATM    4  C   UNL     1      -9.232   4.496  65.624  1.00  0.00    -0.149 C  
BRANCH   4   5
HETATM    5  C   UNL     1     -10.049   4.593  66.913  1.00  0.00    -0.227 C  
BRANCH   5   6
HETATM    6  C   UNL     1      -9.864   5.942  67.565  1.00  0.00    -0.139 A  
HETATM    7  C   UNL     1      -9.237   6.042  68.807  1.00  0.00    -0.123 A  
HETATM    8  C   UNL     1      -9.124   7.279  69.444  1.00  0.00    -0.142 A  
HETATM    9  C   UNL     1      -9.662   8.458  68.891  1.00  0.00    -0.168 A  
HETATM   10  O   UNL     1      -8.466   7.317  70.644  1.00  0.00    -0.136 OA 
HETATM   11  H   UNL     1     -11.172   9.308  66.056  1.00  0.00     0.000 HD 
HETATM   12  H   UNL     1      -8.390   8.159  71.077  1.00  0.00     0.000 HD 
HETATM   13  C   UNL     1     -10.250   8.338  67.618  1.00  0.00    -0.231 A  
HETATM   14  O   UNL     1     -10.775   9.389  66.915  1.00  0.00    -0.205 OA 
HETATM   15  C   UNL     1     -10.339   7.106  66.960  1.00  0.00    -0.368 A  
BRANCH   9  16
HETATM   16  C   UNL     1      -9.539   9.810  69.613  1.00  0.00    -0.239 C  
HETATM   17  C   UNL     1     -10.717   9.995  70.535  1.00  0.00    -0.352 C  
HETATM   18  C   UNL     1     -11.653  10.941  70.392  1.00  0.00    -0.418 C  
HETATM   19  C   UNL     1     -11.610  11.950  69.287  1.00  0.00    -0.376 C  
HETATM   20  C   UNL     1     -12.853  11.003  71.296  1.00  0.00    -0.528 C  
HETATM   21  C   UNL     1     -10.307  12.087  68.493  1.00  0.00    -0.228 C  
HETATM   22  C   UNL     1      -9.215  11.005  68.652  1.00  0.00    -0.186 C  
BRANCH  22  23
HETATM   23  C   UNL     1      -7.830  11.617  68.929  1.00  0.00    -0.040 C  
HETATM   24  C   UNL     1      -6.887  10.922  69.588  1.00  0.00    -0.137 C  
HETATM   25  C   UNL     1      -7.527  13.004  68.436  1.00  0.00    -0.128 C  
ENDBRANCH  22  23
ENDBRANCH   9  16
ENDBRANCH   5   6
ENDBRANCH   4   5
ENDBRANCH   3   4
ENDBRANCH   2   3
TORSDOF 6
ENDMDL
MODEL      202
REMARK 921   NORMALIZED FREE ENERGY PREDICTED BY IDOCK:   -3.21 KCAL/MOL
REMARK 922        TOTAL FREE ENERGY PREDICTED BY IDOCK:   -5.27 KCAL/MOL
REMARK 923 INTER-LIGAND FREE ENERGY PREDICTED BY IDOCK:   -4.66 KCAL/MOL
REMARK 924 INTRA-LIGAND FREE ENERGY PREDICTED BY IDOCK:   -0.61 KCAL/MOL
REMARK 927      BINDING AFFINITY PREDICTED BY RF-SCORE:    0.00 PKD
ROOT
HETATM    1  C   UNL     1     -10.832  12.401  63.552  1.00  0.00    -0.487 C  
HETATM    2  C   UNL     1     -10.480  11.127  64.300  1.00  0.00    -0.427 C  
ENDROOT
BRANCH   2   3
HETATM    3  C   UNL     1      -9.229  11.316  65.158  1.00  0.00    -0.168 C  
BRANCH   3   4
HETATM    4  C   UNL     1      -9.587  11.905  66.517  1.00  0.00    -0.226 C  
BRANCH   4   5
HETATM    5  C   UNL     1     -10.902  11.332  67.047  1.00  0.00    -0.332 C  
BRANCH   5   6
HETATM    6  C   UNL     1     -10.679   9.987  67.694  1.00  0.00    -0.340 A  
HETATM    7  C   UNL     1     -10.124   9.905  68.971  1.00  0.00    -0.199 A  
HETATM    8  C   UNL     1      -9.854   8.662  69.546  1.00  0.00    -0.187 A  
HETATM    9  C   UNL     1     -10.089   7.453  68.861  1.00  0.00    -0.188 A  
HETATM   10  O   UNL     1      -9.343   8.648  70.816  1.00  0.00    -0.166 OA 
HETATM   11  H   UNL     1     -11.439   6.562  65.959  1.00  0.00     0.000 HD 
HETATM   12  H   UNL     1      -9.159   7.801  71.207  1.00  0.00     0.000 HD 
HETATM   13  C   UNL     1     -10.690   7.562  67.593  1.00  0.00    -0.196 A  
HETATM   14  O   UNL     1     -11.033   6.489  66.814  1.00  0.00    -0.354 OA 
HETATM   15  C   UNL     1     -10.992   8.804  67.024  1.00  0.00     0.186 A  
BRANCH   9  16
HETATM   16  C   UNL     1      -9.773   6.094  69.505  1.00  0.00    -0.175 C  
HETATM   17  C   UNL     1     -10.824   5.771  70.536  1.00  0.00    -0.348 C  
HETATM   18  C   UNL     1     -10.594   5.666  71.850  1.00  0.00    -0.287 C  
HETATM   19  C   UNL     1      -9.229   5.841  72.441  1.00  0.00    -0.149 C  
HETATM   20  C   UNL     1     -11.712   5.437  72.829  1.00  0.00    -0.235 C  
HETATM   21  C   UNL     1      -8.031   5.835  71.487  1.00  0.00    -0.113 C  
HETATM   22  C   UNL     1      -8.282   5.950  69.965  1.00  0.00    -0.121 C  
BRANCH  22  23
HETATM   23  C   UNL     1      -7.528   4.869  69.171  1.00  0.00    -0.053 C  
HETATM   24  C   UNL     1      -6.651   5.204  68.210  1.00  0.00    -0.049 C  
HETATM   25  C   UNL     1      -7.764   3.420  69.493  1.00  0.00    -0.050 C  
ENDBRANCH  22  23
ENDBRANCH   9  16
ENDBRANCH   5   6
ENDBRANCH   4   5
ENDBRANCH   3   4
ENDBRANCH   2   3
TORSDOF 6
ENDMDL
MODEL      203
REMARK 921   NORMALIZED FREE ENERGY PREDICTED BY IDOCK:   -3.14 KCAL/MOL
REMARK 922        TOTAL FREE ENERGY PREDICTED BY IDOCK:   -5.17 KCAL/MOL
REMARK 923 INTER-LIGAND FREE ENERGY PREDICTED BY IDOCK:   -4.39 KCAL/MOL
REMARK 924 INTRA-LIGAND FREE ENERGY PREDICTED BY IDOCK:   -0.78 KCAL/MOL
REMARK 927      BINDING AFFINITY PREDICTED BY RF-SCORE:    0.00 PKD
ROOT
HETATM    1  C   UNL     1     -10.054  10.905  63.615  1.00  0.00    -0.414 C  
HETATM    2  C   UNL     1     -10.871  12.031  64.224  1.00  0.00    -0.389 C  
ENDROOT
BRANCH   2   3
HETATM    3  C   UNL     1      -9.978  13.021  64.974  1.00  0.00    -0.158 C  
BRANCH   3   4
HETATM    4  C   UNL     1     -10.417  13.157  66.426  1.00  0.00    -0.287 C  
BRANCH   4   5
HETATM    5  C   UNL     1     -11.451  12.095  66.801  1.00  0.00    -0.418 C  
BRANCH   5   6
HETATM    6  C   UNL     1     -10.806  10.967  67.569  1.00  0.00    -0.324 A  
HETATM    7  C   UNL     1      -9.834  11.238  68.532  1.00  0.00    -0.198 A  
HETATM    8  C   UNL     1      -9.187  10.195  69.197  1.00  0.00    -0.197 A  
HETATM    9  C   UNL     1      -9.453   8.843  68.906  1.00  0.00    -0.152 A  
HETATM   10  O   UNL     1      -8.268  10.527  70.155  1.00  0.00    -0.352 OA 
HETATM   11  H   UNL     1     -11.576   7.177  66.967  1.00  0.00     0.000 HD 
HETATM   12  H   UNL     1      -7.828   9.817  70.608  1.00  0.00     0.000 HD 
HETATM   13  C   UNL     1     -10.470   8.596  67.964  1.00  0.00    -0.197 A  
HETATM   14  O   UNL     1     -10.890   7.344  67.603  1.00  0.00    -0.215 OA 
HETATM   15  C   UNL     1     -11.143   9.637  67.316  1.00  0.00     0.050 A  
BRANCH   9  16
HETATM   16  C   UNL     1      -8.722   7.707  69.640  1.00  0.00    -0.136 C  
HETATM   17  C   UNL     1      -9.284   7.565  71.031  1.00  0.00    -0.153 C  
HETATM   18  C   UNL     1      -8.598   7.798  72.156  1.00  0.00    -0.166 C  
HETATM   19  C   UNL     1      -7.160   8.214  72.146  1.00  0.00    -0.095 C  
HETATM   20  C   UNL     1      -9.255   7.730  73.507  1.00  0.00    -0.350 C  
HETATM   21  C   UNL     1      -6.382   8.067  70.834  1.00  0.00    -0.037 C  
HETATM   22  C   UNL     1      -7.161   7.792  69.527  1.00  0.00    -0.079 C  
BRANCH  22  23
HETATM   23  C   UNL     1      -6.568   6.611  68.739  1.00  0.00    -0.051 C  
HETATM   24  C   UNL     1      -6.399   5.409  69.318  1.00  0.00    -0.034 C  
HETATM   25  C   UNL     1      -6.192   6.803  67.297  1.00  0.00    -0.036 C  
ENDBRANCH  22  23
ENDBRANCH   9  16
ENDBRANCH   5   6
ENDBRANCH   4   5
ENDBRANCH   3   4
ENDBRANCH   2   3
TORSDOF 6
ENDMDL
MODEL      204
REMARK 921   NORMALIZED FREE ENERGY PREDICTED BY IDOCK:   -3.14 KCAL/MOL
REMARK 922        TOTAL FREE ENERGY PREDICTED BY IDOCK:   -5.17 KCAL/MOL
REMARK 923 INTER-LIGAND FREE ENERGY PREDICTED BY IDOCK:   -4.33 KCAL/MOL
REMARK 924 INTRA-LIGAND FREE ENERGY PREDICTED BY IDOCK:   -0.84 KCAL/MOL
REMARK 927      BINDING AFFINITY PREDICTED BY RF-SCORE:    0.00 PKD
ROOT
HETATM    1  C   UNL     1      -8.921   2.762  72.365  1.00  0.00    -0.116 C  
HETATM    2  C   UNL     1      -7.809   2.239  71.473  1.00  0.00    -0.040 C  
ENDROOT
BRANCH   2   3
HETATM    3  C   UNL     1      -8.331   1.904  70.075  1.00  0.00    -0.073 C  
BRANCH   3   4
HETATM    4  C   UNL     1      -9.563   2.736  69.742  1.00  0.00    -0.077 C  
BRANCH   4   5
HETATM    5  C   UNL     1      -9.409   3.451  68.399  1.00  0.00    -0.238 C  
BRANCH   5   6
HETATM    6  C   UNL     1      -9.355   4.947  68.592  1.00  0.00    -0.182 A  
HETATM    7  C   UNL     1      -8.577   5.497  69.611  1.00  0.00    -0.108 A  
HETATM    8  C   UNL     1      -8.577   6.875  69.836  1.00  0.00    -0.141 A  
HETATM    9  C   UNL     1      -9.378   7.756  69.083  1.00  0.00    -0.151 A  
HETATM   10  O   UNL     1      -7.766   7.356  70.827  1.00  0.00    -0.085 OA 
HETATM   11  H   UNL     1     -11.409   7.511  66.464  1.00  0.00     0.000 HD 
HETATM   12  H   UNL     1      -7.766   8.294  70.980  1.00  0.00     0.000 HD 
HETATM   13  C   UNL     1     -10.120   7.182  68.033  1.00  0.00    -0.169 A  
HETATM   14  O   UNL     1     -10.909   7.898  67.173  1.00  0.00    -0.296 OA 
HETATM   15  C   UNL     1     -10.100   5.806  67.782  1.00  0.00    -0.196 A  
BRANCH   9  16
HETATM   16  C   UNL     1      -9.376   9.269  69.352  1.00  0.00    -0.164 C  
HETATM   17  C   UNL     1     -10.483   9.609  70.316  1.00  0.00    -0.338 C  
HETATM   18  C   UNL     1     -11.546  10.366  70.017  1.00  0.00    -0.378 C  
HETATM   19  C   UNL     1     -11.735  10.984  68.667  1.00  0.00    -0.367 C  
HETATM   20  C   UNL     1     -12.662  10.581  71.003  1.00  0.00    -0.504 C  
HETATM   21  C   UNL     1     -10.536  11.001  67.714  1.00  0.00    -0.232 C  
HETATM   22  C   UNL     1      -9.299  10.137  68.049  1.00  0.00    -0.149 C  
BRANCH  22  23
HETATM   23  C   UNL     1      -7.990  10.942  67.960  1.00  0.00    -0.109 C  
HETATM   24  C   UNL     1      -7.997  12.232  67.585  1.00  0.00    -0.161 C  
HETATM   25  C   UNL     1      -6.691  10.276  68.318  1.00  0.00    -0.057 C  
ENDBRANCH  22  23
ENDBRANCH   9  16
ENDBRANCH   5   6
ENDBRANCH   4   5
ENDBRANCH   3   4
ENDBRANCH   2   3
TORSDOF 6
ENDMDL
MODEL      205
REMARK 921   NORMALIZED FREE ENERGY PREDICTED BY IDOCK:   -3.10 KCAL/MOL
REMARK 922        TOTAL FREE ENERGY PREDICTED BY IDOCK:   -5.11 KCAL/MOL
REMARK 923 INTER-LIGAND FREE ENERGY PREDICTED BY IDOCK:   -4.28 KCAL/MOL
REMARK 924 INTRA-LIGAND FREE ENERGY PREDICTED BY IDOCK:   -0.84 KCAL/MOL
REMARK 927      BINDING AFFINITY PREDICTED BY RF-SCORE:    0.00 PKD
ROOT
HETATM    1  C   UNL     1     -14.268   7.643  71.456  1.00  0.00    -0.564 C  
HETATM    2  C   UNL     1     -12.808   7.225  71.449  1.00  0.00    -0.425 C  
ENDROOT
BRANCH   2   3
HETATM    3  C   UNL     1     -11.960   8.161  72.311  1.00  0.00    -0.434 C  
BRANCH   3   4
HETATM    4  C   UNL     1     -10.799   8.737  71.509  1.00  0.00    -0.374 C  
BRANCH   4   5
HETATM    5  C   UNL     1     -10.132   7.668  70.643  1.00  0.00    -0.187 C  
BRANCH   5   6
HETATM    6  C   UNL     1      -9.564   8.275  69.383  1.00  0.00    -0.171 A  
HETATM    7  C   UNL     1      -8.333   8.930  69.412  1.00  0.00    -0.112 A  
HETATM    8  C   UNL     1      -7.836   9.552  68.265  1.00  0.00    -0.086 A  
HETATM    9  C   UNL     1      -8.558   9.579  67.056  1.00  0.00    -0.131 A  
HETATM   10  O   UNL     1      -6.606  10.147  68.349  1.00  0.00    -0.053 OA 
HETATM   11  H   UNL     1     -11.399   8.278  65.926  1.00  0.00     0.000 HD 
HETATM   12  H   UNL     1      -6.268  10.570  67.568  1.00  0.00     0.000 HD 
HETATM   13  C   UNL     1      -9.776   8.873  67.040  1.00  0.00    -0.190 A  
HETATM   14  O   UNL     1     -10.577   8.754  65.936  1.00  0.00     0.529 OA 
HETATM   15  C   UNL     1     -10.265   8.222  68.178  1.00  0.00    -0.255 A  
BRANCH   9  16
HETATM   16  C   UNL     1      -8.000  10.279  65.806  1.00  0.00    -0.144 C  
HETATM   17  C   UNL     1      -8.984  11.318  65.333  1.00  0.00    -0.106 C  
HETATM   18  C   UNL     1      -9.637  11.271  64.165  1.00  0.00    -0.255 C  
HETATM   19  C   UNL     1      -9.435  10.163  63.178  1.00  0.00    -0.296 C  
HETATM   20  C   UNL     1     -10.678  12.294  63.804  1.00  0.00    -0.494 C  
HETATM   21  C   UNL     1      -8.231   9.238  63.379  1.00  0.00    -0.176 C  
HETATM   22  C   UNL     1      -7.463   9.285  64.720  1.00  0.00    -0.104 C  
BRANCH  22  23
HETATM   23  C   UNL     1      -5.943   9.414  64.512  1.00  0.00    -0.076 C  
HETATM   24  C   UNL     1      -5.323  10.597  64.665  1.00  0.00    -0.129 C  
HETATM   25  C   UNL     1      -5.144   8.193  64.152  1.00  0.00    -0.040 C  
ENDBRANCH  22  23
ENDBRANCH   9  16
ENDBRANCH   5   6
ENDBRANCH   4   5
ENDBRANCH   3   4
ENDBRANCH   2   3
TORSDOF 6
ENDMDL
MODEL      206
REMARK 921   NORMALIZED FREE ENERGY PREDICTED BY IDOCK:   -3.08 KCAL/MOL
REMARK 922        TOTAL FREE ENERGY PREDICTED BY IDOCK:   -5.09 KCAL/MOL
REMARK 923 INTER-LIGAND FREE ENERGY PREDICTED BY IDOCK:   -5.27 KCAL/MOL
REMARK 924 INTRA-LIGAND FREE ENERGY PREDICTED BY IDOCK:    0.18 KCAL/MOL
REMARK 927      BINDING AFFINITY PREDICTED BY RF-SCORE:    0.00 PKD
ROOT
HETATM    1  C   UNL     1      -9.408   5.227  73.933  1.00  0.00    -0.129 C  
HETATM    2  C   UNL     1      -8.540   4.049  73.525  1.00  0.00    -0.092 C  
ENDROOT
BRANCH   2   3
HETATM    3  C   UNL     1      -9.291   3.109  72.581  1.00  0.00    -0.148 C  
BRANCH   3   4
HETATM    4  C   UNL     1      -9.903   3.881  71.418  1.00  0.00    -0.243 C  
BRANCH   4   5
HETATM    5  C   UNL     1      -8.829   4.384  70.453  1.00  0.00    -0.133 C  
BRANCH   5   6
HETATM    6  C   UNL     1      -9.245   5.692  69.824  1.00  0.00    -0.165 A  
HETATM    7  C   UNL     1      -8.868   6.903  70.405  1.00  0.00    -0.152 A  
HETATM    8  C   UNL     1      -9.306   8.113  69.864  1.00  0.00    -0.159 A  
HETATM    9  C   UNL     1     -10.164   8.168  68.749  1.00  0.00    -0.221 A  
HETATM   10  O   UNL     1      -8.873   9.267  70.460  1.00  0.00    -0.206 OA 
HETATM   11  H   UNL     1     -11.494   5.977  66.634  1.00  0.00     0.000 HD 
HETATM   12  H   UNL     1      -9.171  10.091  70.091  1.00  0.00     0.000 HD 
HETATM   13  C   UNL     1     -10.493   6.935  68.154  1.00  0.00    -0.204 A  
HETATM   14  O   UNL     1     -11.273   6.809  67.035  1.00  0.00    -0.393 OA 
HETATM   15  C   UNL     1     -10.033   5.720  68.672  1.00  0.00    -0.201 A  
BRANCH   9  16
HETATM   16  C   UNL     1     -10.646   9.509  68.174  1.00  0.00    -0.265 C  
HETATM   17  C   UNL     1     -10.298   9.582  66.710  1.00  0.00    -0.298 C  
HETATM   18  C   UNL     1      -9.436  10.454  66.175  1.00  0.00    -0.227 C  
HETATM   19  C   UNL     1      -8.728  11.487  66.997  1.00  0.00    -0.169 C  
HETATM   20  C   UNL     1      -9.064  10.403  64.719  1.00  0.00    -0.247 C  
HETATM   21  C   UNL     1      -9.238  11.743  68.418  1.00  0.00    -0.175 C  
HETATM   22  C   UNL     1     -10.239  10.746  69.047  1.00  0.00    -0.229 C  
BRANCH  22  23
HETATM   23  C   UNL     1     -11.461  11.459  69.654  1.00  0.00    -0.380 C  
HETATM   24  C   UNL     1     -11.827  12.682  69.231  1.00  0.00    -0.358 C  
HETATM   25  C   UNL     1     -12.263  10.767  70.719  1.00  0.00    -0.480 C  
ENDBRANCH  22  23
ENDBRANCH   9  16
ENDBRANCH   5   6
ENDBRANCH   4   5
ENDBRANCH   3   4
ENDBRANCH   2   3
TORSDOF 6
ENDMDL
MODEL      207
REMARK 921   NORMALIZED FREE ENERGY PREDICTED BY IDOCK:   -3.05 KCAL/MOL
REMARK 922        TOTAL FREE ENERGY PREDICTED BY IDOCK:   -5.05 KCAL/MOL
REMARK 923 INTER-LIGAND FREE ENERGY PREDICTED BY IDOCK:   -4.19 KCAL/MOL
REMARK 924 INTRA-LIGAND FREE ENERGY PREDICTED BY IDOCK:   -0.85 KCAL/MOL
REMARK 927      BINDING AFFINITY PREDICTED BY RF-SCORE:    0.00 PKD
ROOT
HETATM    1  C   UNL     1     -10.857  13.551  68.825  1.00  0.00    -0.279 C  
HETATM    2  C   UNL     1     -10.467  14.620  67.819  1.00  0.00    -0.246 C  
ENDROOT
BRANCH   2   3
HETATM    3  C   UNL     1      -9.555  14.051  66.731  1.00  0.00    -0.293 C  
BRANCH   3   4
HETATM    4  C   UNL     1      -9.723  12.541  66.617  1.00  0.00    -0.244 C  
BRANCH   4   5
HETATM    5  C   UNL     1      -8.396  11.813  66.829  1.00  0.00    -0.165 C  
BRANCH   5   6
HETATM    6  C   UNL     1      -8.523  10.770  67.913  1.00  0.00    -0.122 A  
HETATM    7  C   UNL     1      -9.778  10.273  68.265  1.00  0.00    -0.154 A  
HETATM    8  C   UNL     1      -9.908   9.358  69.312  1.00  0.00    -0.174 A  
HETATM    9  C   UNL     1      -8.803   8.931  70.074  1.00  0.00    -0.165 A  
HETATM   10  O   UNL     1     -11.161   8.881  69.585  1.00  0.00    -0.425 OA 
HETATM   11  H   UNL     1      -5.512   9.385  69.994  1.00  0.00     0.000 HD 
HETATM   12  H   UNL     1     -11.249   8.258  70.298  1.00  0.00     0.000 HD 
HETATM   13  C   UNL     1      -7.543   9.413  69.670  1.00  0.00    -0.095 A  
HETATM   14  O   UNL     1      -6.362   9.060  70.267  1.00  0.00    -0.040 OA 
HETATM   15  C   UNL     1      -7.402  10.306  68.603  1.00  0.00    -0.083 A  
BRANCH   9  16
HETATM   16  C   UNL     1      -8.966   7.933  71.232  1.00  0.00    -0.155 C  
HETATM   17  C   UNL     1      -8.338   8.503  72.478  1.00  0.00    -0.162 C  
HETATM   18  C   UNL     1      -7.272   7.985  73.098  1.00  0.00    -0.144 C  
HETATM   19  C   UNL     1      -6.591   6.741  72.615  1.00  0.00    -0.062 C  
HETATM   20  C   UNL     1      -6.641   8.665  74.281  1.00  0.00    -0.135 C  
HETATM   21  C   UNL     1      -7.320   5.883  71.577  1.00  0.00    -0.088 C  
HETATM   22  C   UNL     1      -8.557   6.468  70.857  1.00  0.00    -0.135 C  
BRANCH  22  23
HETATM   23  C   UNL     1      -9.755   5.501  70.889  1.00  0.00    -0.231 C  
HETATM   24  C   UNL     1      -9.849   4.489  70.010  1.00  0.00    -0.296 C  
HETATM   25  C   UNL     1     -10.821   5.685  71.932  1.00  0.00    -0.302 C  
ENDBRANCH  22  23
ENDBRANCH   9  16
ENDBRANCH   5   6
ENDBRANCH   4   5
ENDBRANCH   3   4
ENDBRANCH   2   3
TORSDOF 6
ENDMDL
MODEL      208
REMARK 921   NORMALIZED FREE ENERGY PREDICTED BY IDOCK:   -3.04 KCAL/MOL
REMARK 922        TOTAL FREE ENERGY PREDICTED BY IDOCK:   -5.04 KCAL/MOL
REMARK 923 INTER-LIGAND FREE ENERGY PREDICTED BY IDOCK:   -4.10 KCAL/MOL
REMARK 924 INTRA-LIGAND FREE ENERGY PREDICTED BY IDOCK:   -0.94 KCAL/MOL
REMARK 927      BINDING AFFINITY PREDICTED BY RF-SCORE:    0.00 PKD
ROOT
HETATM    1  C   UNL     1     -10.498   6.515  68.487  1.00  0.00    -0.257 C  
HETATM    2  C   UNL     1      -9.387   6.731  69.500  1.00  0.00    -0.146 C  
ENDROOT
BRANCH   2   3
HETATM    3  C   UNL     1      -8.764   8.119  69.350  1.00  0.00    -0.143 C  
BRANCH   3   4
HETATM    4  C   UNL     1      -7.653   8.107  68.307  1.00  0.00    -0.102 C  
BRANCH   4   5
HETATM    5  C   UNL     1      -8.117   8.727  66.988  1.00  0.00    -0.099 C  
BRANCH   5   6
HETATM    6  C   UNL     1      -8.565  10.154  67.195  1.00  0.00    -0.125 A  
HETATM    7  C   UNL     1      -9.816  10.570  66.740  1.00  0.00    -0.237 A  
HETATM    8  C   UNL     1     -10.207  11.904  66.869  1.00  0.00    -0.208 A  
HETATM    9  C   UNL     1      -9.357  12.883  67.421  1.00  0.00    -0.194 A  
HETATM   10  O   UNL     1     -11.460  12.243  66.435  1.00  0.00    -0.340 OA 
HETATM   11  H   UNL     1      -6.361  12.928  68.857  1.00  0.00     0.000 HD 
HETATM   12  H   UNL     1     -11.726  13.151  66.523  1.00  0.00     0.000 HD 
HETATM   13  C   UNL     1      -8.119  12.429  67.913  1.00  0.00    -0.161 A  
HETATM   14  O   UNL     1      -7.196  13.235  68.525  1.00  0.00    -0.099 OA 
HETATM   15  C   UNL     1      -7.733  11.088  67.815  1.00  0.00    -0.108 A  
BRANCH   9  16
HETATM   16  C   UNL     1      -9.800  14.350  67.544  1.00  0.00    -0.220 C  
HETATM   17  C   UNL     1      -8.915  15.215  66.683  1.00  0.00    -0.319 C  
HETATM   18  C   UNL     1      -8.080  16.151  67.149  1.00  0.00    -0.223 C  
HETATM   19  C   UNL     1      -7.954  16.456  68.609  1.00  0.00    -0.220 C  
HETATM   20  C   UNL     1      -7.156  16.907  66.235  1.00  0.00    -0.170 C  
HETATM   21  C   UNL     1      -9.025  15.899  69.552  1.00  0.00    -0.135 C  
HETATM   22  C   UNL     1     -10.000  14.821  69.025  1.00  0.00    -0.218 C  
BRANCH  22  23
HETATM   23  C   UNL     1     -11.468  15.169  69.333  1.00  0.00    -0.322 C  
HETATM   24  C   UNL     1     -12.338  15.431  68.342  1.00  0.00     0.318 C  
HETATM   25  C   UNL     1     -11.934  15.195  70.761  1.00  0.00    -0.376 C  
ENDBRANCH  22  23
ENDBRANCH   9  16
ENDBRANCH   5   6
ENDBRANCH   4   5
ENDBRANCH   3   4
ENDBRANCH   2   3
TORSDOF 6
ENDMDL
MODEL      209
REMARK 921   NORMALIZED FREE ENERGY PREDICTED BY IDOCK:   -3.02 KCAL/MOL
REMARK 922        TOTAL FREE ENERGY PREDICTED BY IDOCK:   -5.00 KCAL/MOL
REMARK 923 INTER-LIGAND FREE ENERGY PREDICTED BY IDOCK:   -4.38 KCAL/MOL
REMARK 924 INTRA-LIGAND FREE ENERGY PREDICTED BY IDOCK:   -0.62 KCAL/MOL
REMARK 927      BINDING AFFINITY PREDICTED BY RF-SCORE:    0.00 PKD
ROOT
HETATM    1  C   UNL     1     -13.808  15.455  71.762  1.00  0.00    -0.620 C  
HETATM    2  C   UNL     1     -13.272  14.164  71.166  1.00  0.00    -0.369 C  
ENDROOT
BRANCH   2   3
HETATM    3  C   UNL     1     -12.515  14.426  69.864  1.00  0.00    -0.311 C  
BRANCH   3   4
HETATM    4  C   UNL     1     -11.818  13.162  69.376  1.00  0.00    -0.383 C  
BRANCH   4   5
HETATM    5  C   UNL     1     -10.536  13.490  68.611  1.00  0.00    -0.242 C  
BRANCH   5   6
HETATM    6  C   UNL     1      -9.918  12.238  68.037  1.00  0.00    -0.202 A  
HETATM    7  C   UNL     1     -10.688  11.087  67.874  1.00  0.00    -0.263 A  
HETATM    8  C   UNL     1     -10.106   9.907  67.407  1.00  0.00    -0.205 A  
HETATM    9  C   UNL     1      -8.730   9.814  67.120  1.00  0.00    -0.137 A  
HETATM   10  O   UNL     1     -10.921   8.821  67.235  1.00  0.00    -0.419 OA 
HETATM   11  H   UNL     1      -6.146  11.902  67.051  1.00  0.00     0.000 HD 
HETATM   12  H   UNL     1     -10.525   8.019  66.917  1.00  0.00     0.000 HD 
HETATM   13  C   UNL     1      -7.984  11.001  67.250  1.00  0.00    -0.126 A  
HETATM   14  O   UNL     1      -6.648  11.101  66.963  1.00  0.00    -0.088 OA 
HETATM   15  C   UNL     1      -8.568  12.195  67.688  1.00  0.00    -0.166 A  
BRANCH   9  16
HETATM   16  C   UNL     1      -8.103   8.504  66.618  1.00  0.00    -0.104 C  
HETATM   17  C   UNL     1      -7.475   7.773  67.777  1.00  0.00    -0.104 C  
HETATM   18  C   UNL     1      -6.163   7.540  67.908  1.00  0.00    -0.048 C  
HETATM   19  C   UNL     1      -5.165   7.975  66.880  1.00  0.00    -0.031 C  
HETATM   20  C   UNL     1      -5.599   6.889  69.141  1.00  0.00    -0.018 C  
HETATM   21  C   UNL     1      -5.694   8.418  65.513  1.00  0.00    -0.044 C  
HETATM   22  C   UNL     1      -7.207   8.685  65.345  1.00  0.00    -0.083 C  
BRANCH  22  23
HETATM   23  C   UNL     1      -7.788   7.964  64.115  1.00  0.00    -0.136 C  
HETATM   24  C   UNL     1      -7.790   6.622  64.039  1.00  0.00    -0.112 C  
HETATM   25  C   UNL     1      -8.379   8.776  62.997  1.00  0.00    -0.175 C  
ENDBRANCH  22  23
ENDBRANCH   9  16
ENDBRANCH   5   6
ENDBRANCH   4   5
ENDBRANCH   3   4
ENDBRANCH   2   3
TORSDOF 6
ENDMDL
MODEL      210
REMARK 921   NORMALIZED FREE ENERGY PREDICTED BY IDOCK:   -2.96 KCAL/MOL
REMARK 922        TOTAL FREE ENERGY PREDICTED BY IDOCK:   -4.93 KCAL/MOL
REMARK 923 INTER-LIGAND FREE ENERGY PREDICTED BY IDOCK:   -4.14 KCAL/MOL
REMARK 924 INTRA-LIGAND FREE ENERGY PREDICTED BY IDOCK:   -0.79 KCAL/MOL
REMARK 927      BINDING AFFINITY PREDICTED BY RF-SCORE:    0.00 PKD
ROOT
HETATM    1  C   UNL     1      -8.803  14.125  67.992  1.00  0.00    -0.182 C  
HETATM    2  C   UNL     1     -10.259  14.256  68.403  1.00  0.00    -0.245 C  
ENDROOT
BRANCH   2   3
HETATM    3  C   UNL     1     -11.175  14.328  67.181  1.00  0.00    -0.333 C  
BRANCH   3   4
HETATM    4  C   UNL     1     -11.972  13.038  67.021  1.00  0.00    -0.409 C  
BRANCH   4   5
HETATM    5  C   UNL     1     -11.376  12.144  65.934  1.00  0.00    -0.407 C  
BRANCH   5   6
HETATM    6  C   UNL     1     -10.588  11.010  66.545  1.00  0.00    -0.310 A  
HETATM    7  C   UNL     1     -11.107  10.296  67.625  1.00  0.00    -0.319 A  
HETATM    8  C   UNL     1     -10.354   9.291  68.236  1.00  0.00    -0.217 A  
HETATM    9  C   UNL     1      -9.044   8.981  67.822  1.00  0.00    -0.143 A  
HETATM   10  O   UNL     1     -10.933   8.604  69.269  1.00  0.00    -0.411 OA 
HETATM   11  H   UNL     1      -7.006   9.947  65.381  1.00  0.00     0.000 HD 
HETATM   12  H   UNL     1     -10.420   7.920  69.684  1.00  0.00     0.000 HD 
HETATM   13  C   UNL     1      -8.561   9.684  66.701  1.00  0.00    -0.130 A  
HETATM   14  O   UNL     1      -7.331   9.472  66.137  1.00  0.00    -0.091 OA 
HETATM   15  C   UNL     1      -9.322  10.671  66.066  1.00  0.00    -0.219 A  
BRANCH   9  16
HETATM   16  C   UNL     1      -8.225   7.880  68.514  1.00  0.00    -0.127 C  
HETATM   17  C   UNL     1      -7.592   8.436  69.763  1.00  0.00    -0.087 C  
HETATM   18  C   UNL     1      -6.274   8.572  69.953  1.00  0.00    -0.031 C  
HETATM   19  C   UNL     1      -5.269   8.154  68.925  1.00  0.00    -0.024 C  
HETATM   20  C   UNL     1      -5.720   9.226  71.188  1.00  0.00    -0.060 C  
HETATM   21  C   UNL     1      -5.753   7.274  67.768  1.00  0.00    -0.029 C  
HETATM   22  C   UNL     1      -7.273   7.103  67.541  1.00  0.00    -0.090 C  
BRANCH  22  23
HETATM   23  C   UNL     1      -7.673   5.624  67.391  1.00  0.00    -0.100 C  
HETATM   24  C   UNL     1      -7.114   4.677  68.163  1.00  0.00    -0.061 C  
HETATM   25  C   UNL     1      -8.717   5.243  66.379  1.00  0.00    -0.118 C  
ENDBRANCH  22  23
ENDBRANCH   9  16
ENDBRANCH   5   6
ENDBRANCH   4   5
ENDBRANCH   3   4
ENDBRANCH   2   3
TORSDOF 6
ENDMDL
MODEL      211
REMARK 921   NORMALIZED FREE ENERGY PREDICTED BY IDOCK:   -2.96 KCAL/MOL
REMARK 922        TOTAL FREE ENERGY PREDICTED BY IDOCK:   -4.93 KCAL/MOL
REMARK 923 INTER-LIGAND FREE ENERGY PREDICTED BY IDOCK:   -5.73 KCAL/MOL
REMARK 924 INTRA-LIGAND FREE ENERGY PREDICTED BY IDOCK:    0.80 KCAL/MOL
REMARK 927      BINDING AFFINITY PREDICTED BY RF-SCORE:    0.00 PKD
ROOT
HETATM    1  C   UNL     1     -14.008  15.732  72.616  1.00  0.00    -0.557 C  
HETATM    2  C   UNL     1     -13.412  14.932  71.470  1.00  0.00    -0.491 C  
ENDROOT
BRANCH   2   3
HETATM    3  C   UNL     1     -12.145  15.596  70.931  1.00  0.00    -0.452 C  
BRANCH   3   4
HETATM    4  C   UNL     1     -11.354  14.630  70.057  1.00  0.00    -0.288 C  
BRANCH   4   5
HETATM    5  C   UNL     1     -12.272  13.841  69.124  1.00  0.00    -0.289 C  
BRANCH   5   6
HETATM    6  C   UNL     1     -11.661  12.505  68.774  1.00  0.00    -0.366 A  
HETATM    7  C   UNL     1     -11.820  11.415  69.629  1.00  0.00    -0.431 A  
HETATM    8  C   UNL     1     -11.201  10.196  69.344  1.00  0.00    -0.215 A  
HETATM    9  C   UNL     1     -10.370  10.024  68.220  1.00  0.00    -0.224 A  
HETATM   10  O   UNL     1     -11.425   9.155  70.204  1.00  0.00    -0.407 OA 
HETATM   11  H   UNL     1      -9.466  11.857  65.600  1.00  0.00     0.000 HD 
HETATM   12  H   UNL     1     -11.003   8.325  70.009  1.00  0.00     0.000 HD 
HETATM   13  C   UNL     1     -10.262  11.125  67.350  1.00  0.00    -0.190 A  
HETATM   14  O   UNL     1      -9.538  11.114  66.187  1.00  0.00    -0.196 OA 
HETATM   15  C   UNL     1     -10.904  12.340  67.613  1.00  0.00    -0.262 A  
BRANCH   9  16
HETATM   16  C   UNL     1      -9.686   8.679  67.928  1.00  0.00    -0.192 C  
HETATM   17  C   UNL     1     -10.106   7.667  68.963  1.00  0.00    -0.199 C  
HETATM   18  C   UNL     1      -9.282   7.104  69.855  1.00  0.00    -0.141 C  
HETATM   19  C   UNL     1      -7.818   7.414  69.900  1.00  0.00    -0.115 C  
HETATM   20  C   UNL     1      -9.793   6.175  70.922  1.00  0.00    -0.215 C  
HETATM   21  C   UNL     1      -7.206   8.153  68.705  1.00  0.00    -0.083 C  
HETATM   22  C   UNL     1      -8.146   8.804  67.665  1.00  0.00    -0.106 C  
BRANCH  22  23
HETATM   23  C   UNL     1      -7.768   8.419  66.223  1.00  0.00    -0.094 C  
HETATM   24  C   UNL     1      -8.390   7.409  65.592  1.00  0.00    -0.143 C  
HETATM   25  C   UNL     1      -6.700   9.200  65.510  1.00  0.00    -0.073 C  
ENDBRANCH  22  23
ENDBRANCH   9  16
ENDBRANCH   5   6
ENDBRANCH   4   5
ENDBRANCH   3   4
ENDBRANCH   2   3
TORSDOF 6
ENDMDL
MODEL      212
REMARK 921   NORMALIZED FREE ENERGY PREDICTED BY IDOCK:   -2.94 KCAL/MOL
REMARK 922        TOTAL FREE ENERGY PREDICTED BY IDOCK:   -4.91 KCAL/MOL
REMARK 923 INTER-LIGAND FREE ENERGY PREDICTED BY IDOCK:   -4.09 KCAL/MOL
REMARK 924 INTRA-LIGAND FREE ENERGY PREDICTED BY IDOCK:   -0.82 KCAL/MOL
REMARK 927      BINDING AFFINITY PREDICTED BY RF-SCORE:    0.00 PKD
ROOT
HETATM    1  C   UNL     1      -9.539   4.532  74.192  1.00  0.00    -0.136 C  
HETATM    2  C   UNL     1      -9.245   3.287  73.373  1.00  0.00    -0.104 C  
ENDROOT
BRANCH   2   3
HETATM    3  C   UNL     1      -9.946   3.339  72.016  1.00  0.00    -0.222 C  
BRANCH   3   4
HETATM    4  C   UNL     1      -9.442   4.516  71.188  1.00  0.00    -0.226 C  
BRANCH   4   5
HETATM    5  C   UNL     1     -10.589   5.433  70.764  1.00  0.00    -0.293 C  
BRANCH   5   6
HETATM    6  C   UNL     1     -10.091   6.523  69.845  1.00  0.00    -0.202 A  
HETATM    7  C   UNL     1      -9.044   6.271  68.959  1.00  0.00    -0.129 A  
HETATM    8  C   UNL     1      -8.536   7.293  68.155  1.00  0.00    -0.123 A  
HETATM    9  C   UNL     1      -9.023   8.613  68.226  1.00  0.00    -0.142 A  
HETATM   10  O   UNL     1      -7.532   6.974  67.281  1.00  0.00    -0.094 OA 
HETATM   11  H   UNL     1     -11.469  10.186  69.834  1.00  0.00     0.000 HD 
HETATM   12  H   UNL     1      -7.187   7.670  66.735  1.00  0.00     0.000 HD 
HETATM   13  C   UNL     1     -10.109   8.831  69.095  1.00  0.00    -0.198 A  
HETATM   14  O   UNL     1     -10.736  10.039  69.248  1.00  0.00    -0.202 OA 
HETATM   15  C   UNL     1     -10.643   7.804  69.881  1.00  0.00    -0.239 A  
BRANCH   9  16
HETATM   16  C   UNL     1      -8.443   9.730  67.343  1.00  0.00    -0.121 C  
HETATM   17  C   UNL     1      -7.536  10.604  68.170  1.00  0.00    -0.092 C  
HETATM   18  C   UNL     1      -7.767  11.893  68.446  1.00  0.00    -0.131 C  
HETATM   19  C   UNL     1      -8.969  12.620  67.930  1.00  0.00    -0.189 C  
HETATM   20  C   UNL     1      -6.865  12.675  69.361  1.00  0.00     0.038 C  
HETATM   21  C   UNL     1      -9.783  11.956  66.815  1.00  0.00    -0.218 C  
HETATM   22  C   UNL     1      -9.523  10.469  66.481  1.00  0.00    -0.200 C  
BRANCH  22  23
HETATM   23  C   UNL     1      -9.321  10.242  64.972  1.00  0.00    -0.290 C  
HETATM   24  C   UNL     1     -10.025  10.945  64.068  1.00  0.00    -0.403 C  
HETATM   25  C   UNL     1      -8.307   9.235  64.509  1.00  0.00    -0.170 C  
ENDBRANCH  22  23
ENDBRANCH   9  16
ENDBRANCH   5   6
ENDBRANCH   4   5
ENDBRANCH   3   4
ENDBRANCH   2   3
TORSDOF 6
ENDMDL
MODEL      213
REMARK 921   NORMALIZED FREE ENERGY PREDICTED BY IDOCK:   -2.93 KCAL/MOL
REMARK 922        TOTAL FREE ENERGY PREDICTED BY IDOCK:   -4.88 KCAL/MOL
REMARK 923 INTER-LIGAND FREE ENERGY PREDICTED BY IDOCK:   -4.25 KCAL/MOL
REMARK 924 INTRA-LIGAND FREE ENERGY PREDICTED BY IDOCK:   -0.63 KCAL/MOL
REMARK 927      BINDING AFFINITY PREDICTED BY RF-SCORE:    0.00 PKD
ROOT
HETATM    1  C   UNL     1     -11.701   5.784  72.261  1.00  0.00    -0.265 C  
HETATM    2  C   UNL     1     -10.420   5.898  73.069  1.00  0.00    -0.247 C  
ENDROOT
BRANCH   2   3
HETATM    3  C   UNL     1     -10.336   7.246  73.786  1.00  0.00    -0.360 C  
BRANCH   3   4
HETATM    4  C   UNL     1      -9.773   8.319  72.862  1.00  0.00    -0.310 C  
BRANCH   4   5
HETATM    5  C   UNL     1      -8.596   7.790  72.043  1.00  0.00    -0.149 C  
BRANCH   5   6
HETATM    6  C   UNL     1      -8.483   8.525  70.729  1.00  0.00    -0.166 A  
HETATM    7  C   UNL     1      -9.121   8.031  69.591  1.00  0.00    -0.152 A  
HETATM    8  C   UNL     1      -8.964   8.671  68.359  1.00  0.00    -0.142 A  
HETATM    9  C   UNL     1      -8.141   9.803  68.203  1.00  0.00    -0.108 A  
HETATM   10  O   UNL     1      -9.644   8.158  67.288  1.00  0.00    -0.146 OA 
HETATM   11  H   UNL     1      -6.356  11.768  70.201  1.00  0.00     0.000 HD 
HETATM   12  H   UNL     1      -9.538   8.593  66.450  1.00  0.00     0.000 HD 
HETATM   13  C   UNL     1      -7.545  10.308  69.374  1.00  0.00    -0.137 A  
HETATM   14  O   UNL     1      -6.758  11.428  69.411  1.00  0.00    -0.103 OA 
HETATM   15  C   UNL     1      -7.722   9.690  70.617  1.00  0.00    -0.099 A  
BRANCH   9  16
HETATM   16  C   UNL     1      -7.971  10.487  66.837  1.00  0.00    -0.121 C  
HETATM   17  C   UNL     1      -9.179  11.340  66.549  1.00  0.00    -0.200 C  
HETATM   18  C   UNL     1     -10.046  11.120  65.554  1.00  0.00    -0.309 C  
HETATM   19  C   UNL     1      -9.886   9.987  64.588  1.00  0.00    -0.288 C  
HETATM   20  C   UNL     1     -11.284  11.958  65.388  1.00  0.00    -0.351 C  
HETATM   21  C   UNL     1      -8.540   9.258  64.557  1.00  0.00    -0.217 C  
HETATM   22  C   UNL     1      -7.526   9.507  65.697  1.00  0.00    -0.094 C  
BRANCH  22  23
HETATM   23  C   UNL     1      -6.121   9.835  65.161  1.00  0.00    -0.086 C  
HETATM   24  C   UNL     1      -5.367  10.788  65.737  1.00  0.00    -0.129 C  
HETATM   25  C   UNL     1      -5.582   9.064  63.989  1.00  0.00    -0.069 C  
ENDBRANCH  22  23
ENDBRANCH   9  16
ENDBRANCH   5   6
ENDBRANCH   4   5
ENDBRANCH   3   4
ENDBRANCH   2   3
TORSDOF 6
ENDMDL
MODEL      214
REMARK 921   NORMALIZED FREE ENERGY PREDICTED BY IDOCK:   -2.90 KCAL/MOL
REMARK 922        TOTAL FREE ENERGY PREDICTED BY IDOCK:   -4.85 KCAL/MOL
REMARK 923 INTER-LIGAND FREE ENERGY PREDICTED BY IDOCK:   -3.86 KCAL/MOL
REMARK 924 INTRA-LIGAND FREE ENERGY PREDICTED BY IDOCK:   -0.99 KCAL/MOL
REMARK 927      BINDING AFFINITY PREDICTED BY RF-SCORE:    0.00 PKD
ROOT
HETATM    1  C   UNL     1     -11.354   6.046  69.910  1.00  0.00    -0.355 C  
HETATM    2  C   UNL     1     -11.717   6.436  71.333  1.00  0.00    -0.364 C  
ENDROOT
BRANCH   2   3
HETATM    3  C   UNL     1     -10.525   6.265  72.275  1.00  0.00    -0.227 C  
BRANCH   3   4
HETATM    4  C   UNL     1      -9.676   7.530  72.313  1.00  0.00    -0.203 C  
BRANCH   4   5
HETATM    5  C   UNL     1      -8.352   7.338  71.572  1.00  0.00    -0.109 C  
BRANCH   5   6
HETATM    6  C   UNL     1      -8.354   8.096  70.267  1.00  0.00    -0.124 A  
HETATM    7  C   UNL     1      -7.264   8.006  69.401  1.00  0.00    -0.071 A  
HETATM    8  C   UNL     1      -7.232   8.758  68.225  1.00  0.00    -0.082 A  
HETATM    9  C   UNL     1      -8.262   9.654  67.881  1.00  0.00    -0.106 A  
HETATM   10  O   UNL     1      -6.151   8.599  67.400  1.00  0.00    -0.050 OA 
HETATM   11  H   UNL     1     -11.227  10.495  69.123  1.00  0.00     0.000 HD 
HETATM   12  H   UNL     1      -6.129   9.110  66.599  1.00  0.00     0.000 HD 
HETATM   13  C   UNL     1      -9.371   9.693  68.748  1.00  0.00    -0.148 A  
HETATM   14  O   UNL     1     -10.479  10.469  68.538  1.00  0.00    -0.169 OA 
HETATM   15  C   UNL     1      -9.423   8.920  69.913  1.00  0.00    -0.177 A  
BRANCH   9  16
HETATM   16  C   UNL     1      -8.204  10.483  66.588  1.00  0.00    -0.129 C  
HETATM   17  C   UNL     1      -8.286  11.949  66.927  1.00  0.00    -0.157 C  
HETATM   18  C   UNL     1      -9.295  12.756  66.578  1.00  0.00    -0.221 C  
HETATM   19  C   UNL     1     -10.464  12.274  65.775  1.00  0.00    -0.287 C  
HETATM   20  C   UNL     1      -9.355  14.186  67.038  1.00  0.00    -0.253 C  
HETATM   21  C   UNL     1     -10.345  10.913  65.084  1.00  0.00    -0.344 C  
HETATM   22  C   UNL     1      -9.181   9.973  65.473  1.00  0.00    -0.247 C  
BRANCH  22  23
HETATM   23  C   UNL     1      -8.431   9.440  64.239  1.00  0.00    -0.198 C  
HETATM   24  C   UNL     1      -7.641  10.247  63.510  1.00  0.00    -0.104 C  
HETATM   25  C   UNL     1      -8.572   7.993  63.861  1.00  0.00     0.266 C  
ENDBRANCH  22  23
ENDBRANCH   9  16
ENDBRANCH   5   6
ENDBRANCH   4   5
ENDBRANCH   3   4
ENDBRANCH   2   3
TORSDOF 6
ENDMDL
MODEL      215
REMARK 921   NORMALIZED FREE ENERGY PREDICTED BY IDOCK:   -2.89 KCAL/MOL
REMARK 922        TOTAL FREE ENERGY PREDICTED BY IDOCK:   -4.83 KCAL/MOL
REMARK 923 INTER-LIGAND FREE ENERGY PREDICTED BY IDOCK:   -4.29 KCAL/MOL
REMARK 924 INTRA-LIGAND FREE ENERGY PREDICTED BY IDOCK:   -0.55 KCAL/MOL
REMARK 927      BINDING AFFINITY PREDICTED BY RF-SCORE:    0.00 PKD
ROOT
HETATM    1  C   UNL     1     -11.732   5.583  72.414  1.00  0.00    -0.182 C  
HETATM    2  C   UNL     1     -10.422   5.371  73.155  1.00  0.00    -0.251 C  
ENDROOT
BRANCH   2   3
HETATM    3  C   UNL     1     -10.222   6.431  74.239  1.00  0.00    -0.362 C  
BRANCH   3   4
HETATM    4  C   UNL     1      -9.691   7.728  73.640  1.00  0.00    -0.248 C  
BRANCH   4   5
HETATM    5  C   UNL     1      -8.562   7.463  72.645  1.00  0.00    -0.141 C  
BRANCH   5   6
HETATM    6  C   UNL     1      -8.886   8.058  71.296  1.00  0.00    -0.163 A  
HETATM    7  C   UNL     1      -7.944   8.020  70.267  1.00  0.00    -0.104 A  
HETATM    8  C   UNL     1      -8.214   8.628  69.039  1.00  0.00    -0.122 A  
HETATM    9  C   UNL     1      -9.413   9.328  68.798  1.00  0.00    -0.150 A  
HETATM   10  O   UNL     1      -7.265   8.527  68.059  1.00  0.00    -0.084 OA 
HETATM   11  H   UNL     1     -12.241   9.886  70.450  1.00  0.00     0.000 HD 
HETATM   12  H   UNL     1      -7.449   8.940  67.224  1.00  0.00     0.000 HD 
HETATM   13  C   UNL     1     -10.364   9.312  69.836  1.00  0.00    -0.220 A  
HETATM   14  O   UNL     1     -11.599   9.897  69.750  1.00  0.00    -0.191 OA 
HETATM   15  C   UNL     1     -10.112   8.679  71.057  1.00  0.00    -0.273 A  
BRANCH   9  16
HETATM   16  C   UNL     1      -9.688  10.002  67.444  1.00  0.00    -0.196 C  
HETATM   17  C   UNL     1      -9.468   9.007  66.334  1.00  0.00    -0.288 C  
HETATM   18  C   UNL     1      -8.510   9.104  65.404  1.00  0.00    -0.163 C  
HETATM   19  C   UNL     1      -7.551  10.253  65.359  1.00  0.00    -0.146 C  
HETATM   20  C   UNL     1      -8.290   8.020  64.385  1.00  0.00    -0.026 C  
HETATM   21  C   UNL     1      -7.873  11.487  66.207  1.00  0.00     0.046 C  
HETATM   22  C   UNL     1      -8.981  11.391  67.282  1.00  0.00    -0.159 C  
BRANCH  22  23
HETATM   23  C   UNL     1      -9.988  12.550  67.179  1.00  0.00    -0.217 C  
HETATM   24  C   UNL     1     -11.310  12.325  67.259  1.00  0.00    -0.392 C  
HETATM   25  C   UNL     1      -9.479  13.954  67.008  1.00  0.00    -0.256 C  
ENDBRANCH  22  23
ENDBRANCH   9  16
ENDBRANCH   5   6
ENDBRANCH   4   5
ENDBRANCH   3   4
ENDBRANCH   2   3
TORSDOF 6
ENDMDL
MODEL      216
REMARK 921   NORMALIZED FREE ENERGY PREDICTED BY IDOCK:   -2.89 KCAL/MOL
REMARK 922        TOTAL FREE ENERGY PREDICTED BY IDOCK:   -4.83 KCAL/MOL
REMARK 923 INTER-LIGAND FREE ENERGY PREDICTED BY IDOCK:   -4.38 KCAL/MOL
REMARK 924 INTRA-LIGAND FREE ENERGY PREDICTED BY IDOCK:   -0.45 KCAL/MOL
REMARK 927      BINDING AFFINITY PREDICTED BY RF-SCORE:    0.00 PKD
ROOT
HETATM    1  C   UNL     1      -6.457   4.304  63.044  1.00  0.00    -0.026 C  
HETATM    2  C   UNL     1      -6.618   3.739  64.445  1.00  0.00    -0.043 C  
ENDROOT
BRANCH   2   3
HETATM    3  C   UNL     1      -7.809   2.783  64.522  1.00  0.00    -0.078 C  
BRANCH   3   4
HETATM    4  C   UNL     1      -9.027   3.480  65.117  1.00  0.00    -0.135 C  
BRANCH   4   5
HETATM    5  C   UNL     1      -9.133   3.233  66.622  1.00  0.00    -0.180 C  
BRANCH   5   6
HETATM    6  C   UNL     1      -9.053   4.533  67.385  1.00  0.00    -0.141 A  
HETATM    7  C   UNL     1     -10.197   5.076  67.970  1.00  0.00    -0.144 A  
HETATM    8  C   UNL     1     -10.141   6.312  68.618  1.00  0.00    -0.157 A  
HETATM    9  C   UNL     1      -8.957   7.072  68.680  1.00  0.00    -0.130 A  
HETATM   10  O   UNL     1     -11.290   6.774  69.202  1.00  0.00    -0.514 OA 
HETATM   11  H   UNL     1      -5.789   6.660  67.765  1.00  0.00     0.000 HD 
HETATM   12  H   UNL     1     -11.251   7.614  69.644  1.00  0.00     0.000 HD 
HETATM   13  C   UNL     1      -7.807   6.481  68.122  1.00  0.00    -0.106 A  
HETATM   14  O   UNL     1      -6.565   7.059  68.141  1.00  0.00    -0.051 OA 
HETATM   15  C   UNL     1      -7.849   5.230  67.498  1.00  0.00    -0.096 A  
BRANCH   9  16
HETATM   16  C   UNL     1      -8.917   8.436  69.388  1.00  0.00    -0.153 C  
HETATM   17  C   UNL     1      -8.595   8.235  70.846  1.00  0.00    -0.152 C  
HETATM   18  C   UNL     1      -9.429   8.514  71.855  1.00  0.00    -0.350 C  
HETATM   19  C   UNL     1     -10.792   9.090  71.631  1.00  0.00    -0.437 C  
HETATM   20  C   UNL     1      -9.074   8.195  73.281  1.00  0.00    -0.327 C  
HETATM   21  C   UNL     1     -11.112   9.653  70.243  1.00  0.00    -0.327 C  
HETATM   22  C   UNL     1     -10.154   9.343  69.069  1.00  0.00    -0.202 C  
BRANCH  22  23
HETATM   23  C   UNL     1      -9.762  10.612  68.292  1.00  0.00    -0.169 C  
HETATM   24  C   UNL     1      -8.511  11.101  68.354  1.00  0.00    -0.151 C  
HETATM   25  C   UNL     1     -10.790  11.299  67.438  1.00  0.00    -0.311 C  
ENDBRANCH  22  23
ENDBRANCH   9  16
ENDBRANCH   5   6
ENDBRANCH   4   5
ENDBRANCH   3   4
ENDBRANCH   2   3
TORSDOF 6
ENDMDL
MODEL      217
REMARK 921   NORMALIZED FREE ENERGY PREDICTED BY IDOCK:   -2.87 KCAL/MOL
REMARK 922        TOTAL FREE ENERGY PREDICTED BY IDOCK:   -4.81 KCAL/MOL
REMARK 923 INTER-LIGAND FREE ENERGY PREDICTED BY IDOCK:   -3.99 KCAL/MOL
REMARK 924 INTRA-LIGAND FREE ENERGY PREDICTED BY IDOCK:   -0.82 KCAL/MOL
REMARK 927      BINDING AFFINITY PREDICTED BY RF-SCORE:    0.00 PKD
ROOT
HETATM    1  C   UNL     1     -11.217   6.619  67.585  1.00  0.00    -0.260 C  
HETATM    2  C   UNL     1     -10.069   7.464  67.060  1.00  0.00    -0.328 C  
ENDROOT
BRANCH   2   3
HETATM    3  C   UNL     1     -10.232   8.930  67.464  1.00  0.00    -0.309 C  
BRANCH   3   4
HETATM    4  C   UNL     1      -9.027   9.752  67.022  1.00  0.00    -0.152 C  
BRANCH   4   5
HETATM    5  C   UNL     1      -9.396  10.734  65.911  1.00  0.00    -0.220 C  
BRANCH   5   6
HETATM    6  C   UNL     1      -9.038  12.147  66.304  1.00  0.00    -0.141 A  
HETATM    7  C   UNL     1      -7.928  12.392  67.112  1.00  0.00    -0.153 A  
HETATM    8  C   UNL     1      -7.632  13.690  67.533  1.00  0.00    -0.170 A  
HETATM    9  C   UNL     1      -8.447  14.789  67.199  1.00  0.00    -0.247 A  
HETATM   10  O   UNL     1      -6.510  13.869  68.295  1.00  0.00    -0.088 OA 
HETATM   11  H   UNL     1     -11.130  15.301  65.307  1.00  0.00     0.000 HD 
HETATM   12  H   UNL     1      -6.308  14.753  68.581  1.00  0.00     0.000 HD 
HETATM   13  C   UNL     1      -9.535  14.523  66.346  1.00  0.00    -0.291 A  
HETATM   14  O   UNL     1     -10.397  15.481  65.883  1.00  0.00    -0.302 OA 
HETATM   15  C   UNL     1      -9.820  13.229  65.896  1.00  0.00    -0.241 A  
BRANCH   9  16
HETATM   16  C   UNL     1      -8.113  16.210  67.682  1.00  0.00    -0.163 C  
HETATM   17  C   UNL     1      -9.119  16.636  68.720  1.00  0.00    -0.256 C  
HETATM   18  C   UNL     1      -9.991  17.640  68.567  1.00  0.00    -0.368 C  
HETATM   19  C   UNL     1     -10.040  18.476  67.325  1.00  0.00    -0.376 C  
HETATM   20  C   UNL     1     -11.031  17.945  69.609  1.00  0.00     1.304 C  
HETATM   21  C   UNL     1      -8.867  18.373  66.346  1.00  0.00    -0.262 C  
HETATM   22  C   UNL     1      -7.849  17.221  66.514  1.00  0.00    -0.322 C  
BRANCH  22  23
HETATM   23  C   UNL     1      -6.396  17.728  66.498  1.00  0.00    -0.238 C  
HETATM   24  C   UNL     1      -6.072  18.879  65.884  1.00  0.00    -0.223 C  
HETATM   25  C   UNL     1      -5.331  16.931  67.198  1.00  0.00    -0.185 C  
ENDBRANCH  22  23
ENDBRANCH   9  16
ENDBRANCH   5   6
ENDBRANCH   4   5
ENDBRANCH   3   4
ENDBRANCH   2   3
TORSDOF 6
ENDMDL
MODEL      218
REMARK 921   NORMALIZED FREE ENERGY PREDICTED BY IDOCK:   -2.86 KCAL/MOL
REMARK 922        TOTAL FREE ENERGY PREDICTED BY IDOCK:   -4.79 KCAL/MOL
REMARK 923 INTER-LIGAND FREE ENERGY PREDICTED BY IDOCK:   -4.32 KCAL/MOL
REMARK 924 INTRA-LIGAND FREE ENERGY PREDICTED BY IDOCK:   -0.47 KCAL/MOL
REMARK 927      BINDING AFFINITY PREDICTED BY RF-SCORE:    0.00 PKD
ROOT
HETATM    1  C   UNL     1      -6.779  16.725  67.938  1.00  0.00    -0.153 C  
HETATM    2  C   UNL     1      -7.319  15.483  67.251  1.00  0.00    -0.249 C  
ENDROOT
BRANCH   2   3
HETATM    3  C   UNL     1      -7.743  14.426  68.271  1.00  0.00    -0.129 C  
BRANCH   3   4
HETATM    4  C   UNL     1      -7.595  13.023  67.694  1.00  0.00    -0.160 C  
BRANCH   4   5
HETATM    5  C   UNL     1      -6.543  12.214  68.453  1.00  0.00    -0.059 C  
BRANCH   5   6
HETATM    6  C   UNL     1      -7.116  10.899  68.924  1.00  0.00    -0.090 A  
HETATM    7  C   UNL     1      -7.967  10.167  68.097  1.00  0.00    -0.104 A  
HETATM    8  C   UNL     1      -8.552   8.984  68.554  1.00  0.00    -0.129 A  
HETATM    9  C   UNL     1      -8.344   8.503  69.862  1.00  0.00    -0.123 A  
HETATM   10  O   UNL     1      -9.350   8.294  67.683  1.00  0.00    -0.136 OA 
HETATM   11  H   UNL     1      -6.486   9.376  72.474  1.00  0.00     0.000 HD 
HETATM   12  H   UNL     1      -9.748   7.489  67.994  1.00  0.00     0.000 HD 
HETATM   13  C   UNL     1      -7.446   9.236  70.661  1.00  0.00    -0.136 A  
HETATM   14  O   UNL     1      -7.092   8.882  71.935  1.00  0.00    -0.248 OA 
HETATM   15  C   UNL     1      -6.833  10.405  70.199  1.00  0.00    -0.155 A  
BRANCH   9  16
HETATM   16  C   UNL     1      -9.007   7.206  70.352  1.00  0.00    -0.155 C  
HETATM   17  C   UNL     1      -8.397   6.029  69.635  1.00  0.00    -0.119 C  
HETATM   18  C   UNL     1      -9.057   5.228  68.790  1.00  0.00    -0.134 C  
HETATM   19  C   UNL     1     -10.511   5.413  68.481  1.00  0.00    -0.192 C  
HETATM   20  C   UNL     1      -8.357   4.132  68.036  1.00  0.00    -0.098 C  
HETATM   21  C   UNL     1     -11.321   6.345  69.387  1.00  0.00    -0.443 C  
HETATM   22  C   UNL     1     -10.573   7.271  70.372  1.00  0.00    -0.240 C  
BRANCH  22  23
HETATM   23  C   UNL     1     -11.142   7.179  71.799  1.00  0.00    -0.267 C  
HETATM   24  C   UNL     1     -11.315   8.283  72.546  1.00  0.00    -0.455 C  
HETATM   25  C   UNL     1     -11.527   5.836  72.352  1.00  0.00    -0.343 C  
ENDBRANCH  22  23
ENDBRANCH   9  16
ENDBRANCH   5   6
ENDBRANCH   4   5
ENDBRANCH   3   4
ENDBRANCH   2   3
TORSDOF 6
ENDMDL
MODEL      219
REMARK 921   NORMALIZED FREE ENERGY PREDICTED BY IDOCK:   -2.85 KCAL/MOL
REMARK 922        TOTAL FREE ENERGY PREDICTED BY IDOCK:   -4.77 KCAL/MOL
REMARK 923 INTER-LIGAND FREE ENERGY PREDICTED BY IDOCK:   -3.91 KCAL/MOL
REMARK 924 INTRA-LIGAND FREE ENERGY PREDICTED BY IDOCK:   -0.87 KCAL/MOL
REMARK 927      BINDING AFFINITY PREDICTED BY RF-SCORE:    0.00 PKD
ROOT
HETATM    1  C   UNL     1     -13.774  13.271  72.475  1.00  0.00    -0.613 C  
HETATM    2  C   UNL     1     -13.125  14.254  71.516  1.00  0.00    -0.413 C  
ENDROOT
BRANCH   2   3
HETATM    3  C   UNL     1     -11.958  13.610  70.767  1.00  0.00    -0.286 C  
BRANCH   3   4
HETATM    4  C   UNL     1     -12.011  12.091  70.882  1.00  0.00    -0.025 C  
BRANCH   4   5
HETATM    5  C   UNL     1     -11.921  11.422  69.511  1.00  0.00    -0.409 C  
BRANCH   5   6
HETATM    6  C   UNL     1     -10.836  10.373  69.495  1.00  0.00    -0.295 A  
HETATM    7  C   UNL     1      -9.549  10.700  69.068  1.00  0.00    -0.207 A  
HETATM    8  C   UNL     1      -8.560   9.718  68.988  1.00  0.00    -0.146 A  
HETATM    9  C   UNL     1      -8.819   8.368  69.294  1.00  0.00    -0.142 A  
HETATM   10  O   UNL     1      -7.308  10.109  68.596  1.00  0.00    -0.078 OA 
HETATM   11  H   UNL     1     -11.391   6.624  70.473  1.00  0.00     0.000 HD 
HETATM   12  H   UNL     1      -6.635   9.440  68.542  1.00  0.00     0.000 HD 
HETATM   13  C   UNL     1     -10.113   8.072  69.765  1.00  0.00    -0.196 A  
HETATM   14  O   UNL     1     -10.518   6.823  70.155  1.00  0.00    -0.198 OA 
HETATM   15  C   UNL     1     -11.100   9.057  69.877  1.00  0.00    -0.155 A  
BRANCH   9  16
HETATM   16  C   UNL     1      -7.721   7.297  69.189  1.00  0.00    -0.108 C  
HETATM   17  C   UNL     1      -8.056   6.343  68.072  1.00  0.00    -0.116 C  
HETATM   18  C   UNL     1      -8.339   5.045  68.239  1.00  0.00    -0.095 C  
HETATM   19  C   UNL     1      -8.328   4.390  69.585  1.00  0.00    -0.074 C  
HETATM   20  C   UNL     1      -8.761   4.176  67.086  1.00  0.00    -0.115 C  
HETATM   21  C   UNL     1      -7.681   5.152  70.746  1.00  0.00    -0.080 C  
HETATM   22  C   UNL     1      -7.344   6.650  70.565  1.00  0.00    -0.081 C  
BRANCH  22  23
HETATM   23  C   UNL     1      -5.899   6.973  70.986  1.00  0.00    -0.032 C  
HETATM   24  C   UNL     1      -5.247   8.025  70.463  1.00  0.00    -0.023 C  
HETATM   25  C   UNL     1      -5.220   6.107  72.010  1.00  0.00    -0.022 C  
ENDBRANCH  22  23
ENDBRANCH   9  16
ENDBRANCH   5   6
ENDBRANCH   4   5
ENDBRANCH   3   4
ENDBRANCH   2   3
TORSDOF 6
ENDMDL
MODEL      220
REMARK 921   NORMALIZED FREE ENERGY PREDICTED BY IDOCK:   -2.84 KCAL/MOL
REMARK 922        TOTAL FREE ENERGY PREDICTED BY IDOCK:   -4.77 KCAL/MOL
REMARK 923 INTER-LIGAND FREE ENERGY PREDICTED BY IDOCK:   -4.36 KCAL/MOL
REMARK 924 INTRA-LIGAND FREE ENERGY PREDICTED BY IDOCK:   -0.41 KCAL/MOL
REMARK 927      BINDING AFFINITY PREDICTED BY RF-SCORE:    0.00 PKD
ROOT
HETATM    1  C   UNL     1     -13.475   7.072  71.521  1.00  0.00    -0.363 C  
HETATM    2  C   UNL     1     -12.874   8.391  71.977  1.00  0.00    -0.389 C  
ENDROOT
BRANCH   2   3
HETATM    3  C   UNL     1     -13.487   9.570  71.220  1.00  0.00    -0.352 C  
BRANCH   3   4
HETATM    4  C   UNL     1     -12.750  10.864  71.541  1.00  0.00    -0.533 C  
BRANCH   4   5
HETATM    5  C   UNL     1     -12.272  11.566  70.269  1.00  0.00    -0.415 C  
BRANCH   5   6
HETATM    6  C   UNL     1     -11.277  10.708  69.525  1.00  0.00    -0.331 A  
HETATM    7  C   UNL     1     -10.214  10.115  70.204  1.00  0.00    -0.235 A  
HETATM    8  C   UNL     1      -9.254   9.376  69.509  1.00  0.00    -0.176 A  
HETATM    9  C   UNL     1      -9.293   9.229  68.109  1.00  0.00    -0.143 A  
HETATM   10  O   UNL     1      -8.255   8.790  70.238  1.00  0.00    -0.100 OA 
HETATM   11  H   UNL     1     -11.367  10.093  65.660  1.00  0.00     0.000 HD 
HETATM   12  H   UNL     1      -7.602   8.287  69.764  1.00  0.00     0.000 HD 
HETATM   13  C   UNL     1     -10.400   9.800  67.452  1.00  0.00    -0.240 A  
HETATM   14  O   UNL     1     -10.620   9.708  66.103  1.00  0.00    -0.101 OA 
HETATM   15  C   UNL     1     -11.381  10.515  68.146  1.00  0.00    -0.324 A  
BRANCH   9  16
HETATM   16  C   UNL     1      -8.221   8.423  67.358  1.00  0.00    -0.120 C  
HETATM   17  C   UNL     1      -8.104   7.051  67.971  1.00  0.00    -0.119 C  
HETATM   18  C   UNL     1      -7.018   6.590  68.603  1.00  0.00    -0.080 C  
HETATM   19  C   UNL     1      -5.770   7.404  68.750  1.00  0.00    -0.023 C  
HETATM   20  C   UNL     1      -7.011   5.245  69.275  1.00  0.00    -0.055 C  
HETATM   21  C   UNL     1      -5.634   8.666  67.891  1.00  0.00    -0.035 C  
HETATM   22  C   UNL     1      -6.879   9.207  67.151  1.00  0.00    -0.080 C  
BRANCH  22  23
HETATM   23  C   UNL     1      -6.591   9.488  65.665  1.00  0.00    -0.072 C  
HETATM   24  C   UNL     1      -6.817   8.550  64.729  1.00  0.00    -0.072 C  
HETATM   25  C   UNL     1      -6.070  10.838  65.259  1.00  0.00    -0.002 C  
ENDBRANCH  22  23
ENDBRANCH   9  16
ENDBRANCH   5   6
ENDBRANCH   4   5
ENDBRANCH   3   4
ENDBRANCH   2   3
TORSDOF 6
ENDMDL
MODEL      221
REMARK 921   NORMALIZED FREE ENERGY PREDICTED BY IDOCK:   -2.84 KCAL/MOL
REMARK 922        TOTAL FREE ENERGY PREDICTED BY IDOCK:   -4.77 KCAL/MOL
REMARK 923 INTER-LIGAND FREE ENERGY PREDICTED BY IDOCK:   -3.90 KCAL/MOL
REMARK 924 INTRA-LIGAND FREE ENERGY PREDICTED BY IDOCK:   -0.87 KCAL/MOL
REMARK 927      BINDING AFFINITY PREDICTED BY RF-SCORE:    0.00 PKD
ROOT
HETATM    1  C   UNL     1      -9.259  14.511  68.373  1.00  0.00    -0.196 C  
HETATM    2  C   UNL     1     -10.636  14.023  68.788  1.00  0.00    -0.260 C  
ENDROOT
BRANCH   2   3
HETATM    3  C   UNL     1     -11.339  13.304  67.636  1.00  0.00    -0.328 C  
BRANCH   3   4
HETATM    4  C   UNL     1     -11.440  11.808  67.911  1.00  0.00    -0.387 C  
BRANCH   4   5
HETATM    5  C   UNL     1     -10.642  10.997  66.889  1.00  0.00    -0.307 C  
BRANCH   5   6
HETATM    6  C   UNL     1     -10.245   9.657  67.461  1.00  0.00    -0.274 A  
HETATM    7  C   UNL     1     -11.009   8.522  67.187  1.00  0.00     0.153 A  
HETATM    8  C   UNL     1     -10.685   7.295  67.768  1.00  0.00    -0.197 A  
HETATM    9  C   UNL     1      -9.613   7.154  68.671  1.00  0.00    -0.140 A  
HETATM   10  O   UNL     1     -11.452   6.212  67.432  1.00  0.00    -0.541 OA 
HETATM   11  H   UNL     1      -7.198   9.105  69.854  1.00  0.00     0.000 HD 
HETATM   12  H   UNL     1     -11.231   5.377  67.827  1.00  0.00     0.000 HD 
HETATM   13  C   UNL     1      -8.831   8.303  68.896  1.00  0.00    -0.140 A  
HETATM   14  O   UNL     1      -7.725   8.330  69.703  1.00  0.00    -0.095 OA 
HETATM   15  C   UNL     1      -9.132   9.529  68.293  1.00  0.00    -0.127 A  
BRANCH   9  16
HETATM   16  C   UNL     1      -9.278   5.797  69.311  1.00  0.00    -0.135 C  
HETATM   17  C   UNL     1      -9.565   5.855  70.789  1.00  0.00    -0.203 C  
HETATM   18  C   UNL     1      -8.638   5.754  71.749  1.00  0.00    -0.131 C  
HETATM   19  C   UNL     1      -7.187   5.546  71.442  1.00  0.00    -0.073 C  
HETATM   20  C   UNL     1      -8.988   5.919  73.202  1.00  0.00    -0.131 C  
HETATM   21  C   UNL     1      -6.809   5.135  70.016  1.00  0.00    -0.052 C  
HETATM   22  C   UNL     1      -7.872   5.241  68.898  1.00  0.00    -0.083 C  
BRANCH  22  23
HETATM   23  C   UNL     1      -7.977   3.944  68.075  1.00  0.00    -0.080 C  
HETATM   24  C   UNL     1      -8.256   2.771  68.667  1.00  0.00    -0.080 C  
HETATM   25  C   UNL     1      -7.782   4.001  66.586  1.00  0.00    -0.089 C  
ENDBRANCH  22  23
ENDBRANCH   9  16
ENDBRANCH   5   6
ENDBRANCH   4   5
ENDBRANCH   3   4
ENDBRANCH   2   3
TORSDOF 6
ENDMDL
MODEL      222
REMARK 921   NORMALIZED FREE ENERGY PREDICTED BY IDOCK:   -2.83 KCAL/MOL
REMARK 922        TOTAL FREE ENERGY PREDICTED BY IDOCK:   -4.76 KCAL/MOL
REMARK 923 INTER-LIGAND FREE ENERGY PREDICTED BY IDOCK:   -4.09 KCAL/MOL
REMARK 924 INTRA-LIGAND FREE ENERGY PREDICTED BY IDOCK:   -0.67 KCAL/MOL
REMARK 927      BINDING AFFINITY PREDICTED BY RF-SCORE:    0.00 PKD
ROOT
HETATM    1  C   UNL     1     -13.804  15.455  71.765  1.00  0.00    -0.620 C  
HETATM    2  C   UNL     1     -13.148  14.229  71.155  1.00  0.00    -0.412 C  
ENDROOT
BRANCH   2   3
HETATM    3  C   UNL     1     -12.420  14.578  69.857  1.00  0.00    -0.300 C  
BRANCH   3   4
HETATM    4  C   UNL     1     -11.536  13.423  69.401  1.00  0.00    -0.365 C  
BRANCH   4   5
HETATM    5  C   UNL     1     -10.321  13.923  68.619  1.00  0.00    -0.237 C  
BRANCH   5   6
HETATM    6  C   UNL     1      -9.477  12.765  68.144  1.00  0.00    -0.219 A  
HETATM    7  C   UNL     1      -8.107  12.932  67.942  1.00  0.00    -0.161 A  
HETATM    8  C   UNL     1      -7.334  11.884  67.438  1.00  0.00    -0.145 A  
HETATM    9  C   UNL     1      -7.896  10.643  67.082  1.00  0.00    -0.117 A  
HETATM   10  O   UNL     1      -5.989  12.099  67.296  1.00  0.00    -0.128 OA 
HETATM   11  H   UNL     1     -10.895   9.223  67.273  1.00  0.00     0.000 HD 
HETATM   12  H   UNL     1      -5.464  11.385  66.954  1.00  0.00     0.000 HD 
HETATM   13  C   UNL     1      -9.272  10.485  67.338  1.00  0.00    -0.142 A  
HETATM   14  O   UNL     1      -9.967   9.329  67.100  1.00  0.00    -0.186 OA 
HETATM   15  C   UNL     1     -10.047  11.521  67.870  1.00  0.00    -0.202 A  
BRANCH   9  16
HETATM   16  C   UNL     1      -7.032   9.503  66.518  1.00  0.00    -0.085 C  
HETATM   17  C   UNL     1      -7.170   9.465  65.018  1.00  0.00    -0.105 C  
HETATM   18  C   UNL     1      -7.720   8.457  64.330  1.00  0.00    -0.136 C  
HETATM   19  C   UNL     1      -8.246   7.225  64.998  1.00  0.00    -0.100 C  
HETATM   20  C   UNL     1      -7.912   8.533  62.840  1.00  0.00    -0.159 C  
HETATM   21  C   UNL     1      -7.866   6.987  66.463  1.00  0.00    -0.106 C  
HETATM   22  C   UNL     1      -7.225   8.141  67.268  1.00  0.00    -0.084 C  
BRANCH  22  23
HETATM   23  C   UNL     1      -5.949   7.694  68.003  1.00  0.00    -0.040 C  
HETATM   24  C   UNL     1      -5.234   8.564  68.736  1.00  0.00    -0.033 C  
HETATM   25  C   UNL     1      -5.514   6.258  67.914  1.00  0.00    -0.005 C  
ENDBRANCH  22  23
ENDBRANCH   9  16
ENDBRANCH   5   6
ENDBRANCH   4   5
ENDBRANCH   3   4
ENDBRANCH   2   3
TORSDOF 6
ENDMDL
MODEL      223
REMARK 921   NORMALIZED FREE ENERGY PREDICTED BY IDOCK:   -2.75 KCAL/MOL
REMARK 922        TOTAL FREE ENERGY PREDICTED BY IDOCK:   -4.64 KCAL/MOL
REMARK 923 INTER-LIGAND FREE ENERGY PREDICTED BY IDOCK:   -3.57 KCAL/MOL
REMARK 924 INTRA-LIGAND FREE ENERGY PREDICTED BY IDOCK:   -1.07 KCAL/MOL
REMARK 927      BINDING AFFINITY PREDICTED BY RF-SCORE:    0.00 PKD
ROOT
HETATM    1  C   UNL     1     -14.308   7.226  71.551  1.00  0.00    -0.558 C  
HETATM    2  C   UNL     1     -14.222   8.652  72.067  1.00  0.00    -0.524 C  
ENDROOT
BRANCH   2   3
HETATM    3  C   UNL     1     -13.614   9.584  71.019  1.00  0.00    -0.143 C  
BRANCH   3   4
HETATM    4  C   UNL     1     -12.298  10.172  71.512  1.00  0.00    -0.505 C  
BRANCH   4   5
HETATM    5  C   UNL     1     -11.337  10.444  70.354  1.00  0.00    -0.417 C  
BRANCH   5   6
HETATM    6  C   UNL     1     -10.594   9.188  69.968  1.00  0.00    -0.250 A  
HETATM    7  C   UNL     1     -10.405   8.868  68.624  1.00  0.00    -0.228 A  
HETATM    8  C   UNL     1      -9.778   7.674  68.262  1.00  0.00    -0.157 A  
HETATM    9  C   UNL     1      -9.346   6.736  69.219  1.00  0.00    -0.144 A  
HETATM   10  O   UNL     1      -9.591   7.435  66.927  1.00  0.00    -0.166 OA 
HETATM   11  H   UNL     1      -9.207   6.580  72.536  1.00  0.00     0.000 HD 
HETATM   12  H   UNL     1      -9.164   6.623  66.682  1.00  0.00     0.000 HD 
HETATM   13  C   UNL     1      -9.507   7.102  70.569  1.00  0.00    -0.162 A  
HETATM   14  O   UNL     1      -9.098   6.332  71.625  1.00  0.00    -0.145 OA 
HETATM   15  C   UNL     1     -10.108   8.310  70.939  1.00  0.00    -0.224 A  
BRANCH   9  16
HETATM   16  C   UNL     1      -8.668   5.421  68.803  1.00  0.00    -0.098 C  
HETATM   17  C   UNL     1      -9.568   4.261  69.147  1.00  0.00    -0.249 C  
HETATM   18  C   UNL     1      -9.279   3.317  70.050  1.00  0.00    -0.221 C  
HETATM   19  C   UNL     1      -7.991   3.305  70.814  1.00  0.00    -0.053 C  
HETATM   20  C   UNL     1     -10.270   2.245  70.411  1.00  0.00     0.840 C  
HETATM   21  C   UNL     1      -6.861   4.215  70.324  1.00  0.00    -0.034 C  
HETATM   22  C   UNL     1      -7.178   5.308  69.277  1.00  0.00    -0.057 C  
BRANCH  22  23
HETATM   23  C   UNL     1      -6.191   5.280  68.096  1.00  0.00    -0.034 C  
HETATM   24  C   UNL     1      -6.228   4.289  67.188  1.00  0.00    -0.039 C  
HETATM   25  C   UNL     1      -5.188   6.389  67.950  1.00  0.00    -0.004 C  
ENDBRANCH  22  23
ENDBRANCH   9  16
ENDBRANCH   5   6
ENDBRANCH   4   5
ENDBRANCH   3   4
ENDBRANCH   2   3
TORSDOF 6
ENDMDL
MODEL      224
REMARK 921   NORMALIZED FREE ENERGY PREDICTED BY IDOCK:   -2.73 KCAL/MOL
REMARK 922        TOTAL FREE ENERGY PREDICTED BY IDOCK:   -4.61 KCAL/MOL
REMARK 923 INTER-LIGAND FREE ENERGY PREDICTED BY IDOCK:   -3.69 KCAL/MOL
REMARK 924 INTRA-LIGAND FREE ENERGY PREDICTED BY IDOCK:   -0.92 KCAL/MOL
REMARK 927      BINDING AFFINITY PREDICTED BY RF-SCORE:    0.00 PKD
ROOT
HETATM    1  C   UNL     1      -8.733   3.903  72.451  1.00  0.00    -0.116 C  
HETATM    2  C   UNL     1      -7.990   2.941  71.541  1.00  0.00    -0.056 C  
ENDROOT
BRANCH   2   3
HETATM    3  C   UNL     1      -8.928   2.323  70.504  1.00  0.00    -0.153 C  
BRANCH   3   4
HETATM    4  C   UNL     1      -9.654   3.405  69.714  1.00  0.00    -0.180 C  
BRANCH   4   5
HETATM    5  C   UNL     1      -9.041   3.590  68.325  1.00  0.00    -0.201 C  
BRANCH   5   6
HETATM    6  C   UNL     1      -8.995   5.051  67.949  1.00  0.00    -0.116 A  
HETATM    7  C   UNL     1      -9.898   5.951  68.515  1.00  0.00    -0.166 A  
HETATM    8  C   UNL     1      -9.904   7.290  68.120  1.00  0.00    -0.149 A  
HETATM    9  C   UNL     1      -9.039   7.780  67.123  1.00  0.00    -0.154 A  
HETATM   10  O   UNL     1     -10.790   8.130  68.738  1.00  0.00    -0.408 OA 
HETATM   11  H   UNL     1      -6.533   6.564  65.310  1.00  0.00     0.000 HD 
HETATM   12  H   UNL     1     -10.794   9.041  68.470  1.00  0.00     0.000 HD 
HETATM   13  C   UNL     1      -8.107   6.863  66.600  1.00  0.00    -0.110 A  
HETATM   14  O   UNL     1      -7.162   7.183  65.662  1.00  0.00    -0.066 OA 
HETATM   15  C   UNL     1      -8.076   5.527  67.013  1.00  0.00    -0.101 A  
BRANCH   9  16
HETATM   16  C   UNL     1      -9.067   9.255  66.691  1.00  0.00    -0.177 C  
HETATM   17  C   UNL     1      -9.462   9.346  65.240  1.00  0.00    -0.296 C  
HETATM   18  C   UNL     1      -8.666   9.794  64.262  1.00  0.00    -0.227 C  
HETATM   19  C   UNL     1      -7.275  10.284  64.522  1.00  0.00    -0.073 C  
HETATM   20  C   UNL     1      -9.096   9.764  62.821  1.00  0.00    -0.286 C  
HETATM   21  C   UNL     1      -6.874  10.563  65.974  1.00  0.00    -0.134 C  
HETATM   22  C   UNL     1      -7.787  10.055  67.114  1.00  0.00    -0.099 C  
BRANCH  22  23
HETATM   23  C   UNL     1      -8.101  11.160  68.138  1.00  0.00    -0.128 C  
HETATM   24  C   UNL     1      -9.315  11.737  68.181  1.00  0.00    -0.190 C  
HETATM   25  C   UNL     1      -7.040  11.582  69.114  1.00  0.00    -0.105 C  
ENDBRANCH  22  23
ENDBRANCH   9  16
ENDBRANCH   5   6
ENDBRANCH   4   5
ENDBRANCH   3   4
ENDBRANCH   2   3
TORSDOF 6
ENDMDL
MODEL      225
REMARK 921   NORMALIZED FREE ENERGY PREDICTED BY IDOCK:   -2.71 KCAL/MOL
REMARK 922        TOTAL FREE ENERGY PREDICTED BY IDOCK:   -4.59 KCAL/MOL
REMARK 923 INTER-LIGAND FREE ENERGY PREDICTED BY IDOCK:   -4.88 KCAL/MOL
REMARK 924 INTRA-LIGAND FREE ENERGY PREDICTED BY IDOCK:    0.29 KCAL/MOL
REMARK 927      BINDING AFFINITY PREDICTED BY RF-SCORE:    0.00 PKD
ROOT
HETATM    1  C   UNL     1      -7.865   5.523  69.382  1.00  0.00    -0.087 C  
HETATM    2  C   UNL     1      -6.869   5.670  68.244  1.00  0.00    -0.063 C  
ENDROOT
BRANCH   2   3
HETATM    3  C   UNL     1      -5.734   6.621  68.621  1.00  0.00    -0.017 C  
BRANCH   3   4
HETATM    4  C   UNL     1      -6.264   8.028  68.873  1.00  0.00    -0.040 C  
BRANCH   4   5
HETATM    5  C   UNL     1      -6.015   8.943  67.674  1.00  0.00    -0.047 C  
BRANCH   5   6
HETATM    6  C   UNL     1      -7.141   9.935  67.514  1.00  0.00    -0.088 A  
HETATM    7  C   UNL     1      -6.863  11.286  67.309  1.00  0.00    -0.108 A  
HETATM    8  C   UNL     1      -7.900  12.218  67.228  1.00  0.00    -0.171 A  
HETATM    9  C   UNL     1      -9.251  11.849  67.385  1.00  0.00    -0.177 A  
HETATM   10  O   UNL     1      -7.564  13.523  66.990  1.00  0.00    -0.368 OA 
HETATM   11  H   UNL     1     -10.936   9.011  67.771  1.00  0.00     0.000 HD 
HETATM   12  H   UNL     1      -8.270  14.156  66.935  1.00  0.00     0.000 HD 
HETATM   13  C   UNL     1      -9.508  10.474  67.546  1.00  0.00    -0.149 A  
HETATM   14  O   UNL     1     -10.763   9.939  67.662  1.00  0.00    -0.254 OA 
HETATM   15  C   UNL     1      -8.475   9.532  67.598  1.00  0.00    -0.122 A  
BRANCH   9  16
HETATM   16  C   UNL     1     -10.379  12.890  67.306  1.00  0.00    -0.234 C  
HETATM   17  C   UNL     1     -11.399  12.447  66.288  1.00  0.00    -0.388 C  
HETATM   18  C   UNL     1     -11.663  13.093  65.146  1.00  0.00    -0.367 C  
HETATM   19  C   UNL     1     -10.971  14.365  64.766  1.00  0.00    -0.409 C  
HETATM   20  C   UNL     1     -12.625  12.538  64.132  1.00  0.00    -0.474 C  
HETATM   21  C   UNL     1     -10.172  15.096  65.849  1.00  0.00    -0.345 C  
HETATM   22  C   UNL     1      -9.863  14.364  67.176  1.00  0.00    -0.254 C  
BRANCH  22  23
HETATM   23  C   UNL     1     -10.223  15.218  68.404  1.00  0.00    -0.223 C  
HETATM   24  C   UNL     1      -9.479  15.166  69.523  1.00  0.00    -0.151 C  
HETATM   25  C   UNL     1     -11.410  16.137  68.340  1.00  0.00    -0.345 C  
ENDBRANCH  22  23
ENDBRANCH   9  16
ENDBRANCH   5   6
ENDBRANCH   4   5
ENDBRANCH   3   4
ENDBRANCH   2   3
TORSDOF 6
ENDMDL
MODEL      226
REMARK 921   NORMALIZED FREE ENERGY PREDICTED BY IDOCK:   -2.71 KCAL/MOL
REMARK 922        TOTAL FREE ENERGY PREDICTED BY IDOCK:   -4.59 KCAL/MOL
REMARK 923 INTER-LIGAND FREE ENERGY PREDICTED BY IDOCK:   -3.50 KCAL/MOL
REMARK 924 INTRA-LIGAND FREE ENERGY PREDICTED BY IDOCK:   -1.09 KCAL/MOL
REMARK 927      BINDING AFFINITY PREDICTED BY RF-SCORE:    0.00 PKD
ROOT
HETATM    1  C   UNL     1      -7.356   9.597  65.195  1.00  0.00    -0.115 C  
HETATM    2  C   UNL     1      -8.568  10.284  65.801  1.00  0.00    -0.163 C  
ENDROOT
BRANCH   2   3
HETATM    3  C   UNL     1      -8.193  11.053  67.068  1.00  0.00    -0.138 C  
BRANCH   3   4
HETATM    4  C   UNL     1      -9.193  10.780  68.185  1.00  0.00    -0.151 C  
BRANCH   4   5
HETATM    5  C   UNL     1     -10.128   9.623  67.829  1.00  0.00    -0.232 C  
BRANCH   5   6
HETATM    6  C   UNL     1      -9.831   8.413  68.681  1.00  0.00    -0.180 A  
HETATM    7  C   UNL     1      -9.380   8.569  69.992  1.00  0.00    -0.164 A  
HETATM    8  C   UNL     1      -9.040   7.454  70.760  1.00  0.00    -0.151 A  
HETATM    9  C   UNL     1      -9.100   6.144  70.246  1.00  0.00    -0.158 A  
HETATM   10  O   UNL     1      -8.638   7.672  72.050  1.00  0.00    -0.104 OA 
HETATM   11  H   UNL     1     -10.113   4.718  67.421  1.00  0.00     0.000 HD 
HETATM   12  H   UNL     1      -8.407   6.913  72.573  1.00  0.00     0.000 HD 
HETATM   13  C   UNL     1      -9.602   6.010  68.938  1.00  0.00    -0.126 A  
HETATM   14  O   UNL     1      -9.774   4.808  68.304  1.00  0.00    -0.143 OA 
HETATM   15  C   UNL     1      -9.972   7.121  68.172  1.00  0.00    -0.172 A  
BRANCH   9  16
HETATM   16  C   UNL     1      -8.711   4.929  71.103  1.00  0.00    -0.143 C  
HETATM   17  C   UNL     1      -7.437   4.326  70.569  1.00  0.00    -0.049 C  
HETATM   18  C   UNL     1      -7.341   3.104  70.031  1.00  0.00    -0.041 C  
HETATM   19  C   UNL     1      -8.516   2.182  69.923  1.00  0.00    -0.086 C  
HETATM   20  C   UNL     1      -6.056   2.608  69.429  1.00  0.00    -0.024 C  
HETATM   21  C   UNL     1      -9.774   2.530  70.724  1.00  0.00    -0.100 C  
HETATM   22  C   UNL     1      -9.897   3.936  71.356  1.00  0.00    -0.243 C  
BRANCH  22  23
HETATM   23  C   UNL     1     -10.296   3.869  72.841  1.00  0.00    -0.241 C  
HETATM   24  C   UNL     1     -11.037   4.841  73.400  1.00  0.00    -0.422 C  
HETATM   25  C   UNL     1      -9.866   2.690  73.667  1.00  0.00    -0.150 C  
ENDBRANCH  22  23
ENDBRANCH   9  16
ENDBRANCH   5   6
ENDBRANCH   4   5
ENDBRANCH   3   4
ENDBRANCH   2   3
TORSDOF 6
ENDMDL
MODEL      227
REMARK 921   NORMALIZED FREE ENERGY PREDICTED BY IDOCK:   -2.68 KCAL/MOL
REMARK 922        TOTAL FREE ENERGY PREDICTED BY IDOCK:   -4.56 KCAL/MOL
REMARK 923 INTER-LIGAND FREE ENERGY PREDICTED BY IDOCK:   -4.56 KCAL/MOL
REMARK 924 INTRA-LIGAND FREE ENERGY PREDICTED BY IDOCK:    0.01 KCAL/MOL
REMARK 927      BINDING AFFINITY PREDICTED BY RF-SCORE:    0.00 PKD
ROOT
HETATM    1  C   UNL     1     -13.924   7.488  71.834  1.00  0.00    -0.391 C  
HETATM    2  C   UNL     1     -14.083   8.940  72.254  1.00  0.00    -0.512 C  
ENDROOT
BRANCH   2   3
HETATM    3  C   UNL     1     -13.732   9.889  71.108  1.00  0.00    -0.117 C  
BRANCH   3   4
HETATM    4  C   UNL     1     -12.704  10.922  71.552  1.00  0.00    -0.533 C  
BRANCH   4   5
HETATM    5  C   UNL     1     -11.555  11.035  70.551  1.00  0.00    -0.344 C  
BRANCH   5   6
HETATM    6  C   UNL     1     -10.659   9.822  70.625  1.00  0.00    -0.382 A  
HETATM    7  C   UNL     1     -10.076   9.307  69.467  1.00  0.00    -0.205 A  
HETATM    8  C   UNL     1      -9.302   8.146  69.521  1.00  0.00    -0.155 A  
HETATM    9  C   UNL     1      -9.107   7.431  70.719  1.00  0.00    -0.151 A  
HETATM   10  O   UNL     1      -8.729   7.712  68.356  1.00  0.00    -0.128 OA 
HETATM   11  H   UNL     1      -9.910   7.842  73.917  1.00  0.00     0.000 HD 
HETATM   12  H   UNL     1      -8.202   6.922  68.393  1.00  0.00     0.000 HD 
HETATM   13  C   UNL     1      -9.668   7.996  71.880  1.00  0.00    -0.190 A  
HETATM   14  O   UNL     1      -9.532   7.461  73.134  1.00  0.00    -0.163 OA 
HETATM   15  C   UNL     1     -10.419   9.175  71.839  1.00  0.00    -0.280 A  
BRANCH   9  16
HETATM   16  C   UNL     1      -8.262   6.148  70.757  1.00  0.00    -0.125 C  
HETATM   17  C   UNL     1      -8.696   5.228  69.646  1.00  0.00    -0.112 C  
HETATM   18  C   UNL     1      -9.266   4.031  69.828  1.00  0.00    -0.212 C  
HETATM   19  C   UNL     1      -9.516   3.462  71.190  1.00  0.00    -0.224 C  
HETATM   20  C   UNL     1      -9.762   3.211  68.670  1.00  0.00     0.042 C  
HETATM   21  C   UNL     1      -8.824   4.130  72.383  1.00  0.00    -0.121 C  
HETATM   22  C   UNL     1      -8.157   5.511  72.185  1.00  0.00    -0.111 C  
BRANCH  22  23
HETATM   23  C   UNL     1      -6.719   5.541  72.734  1.00  0.00    -0.072 C  
HETATM   24  C   UNL     1      -6.172   4.451  73.297  1.00  0.00    -0.032 C  
HETATM   25  C   UNL     1      -5.914   6.805  72.617  1.00  0.00    -0.042 C  
ENDBRANCH  22  23
ENDBRANCH   9  16
ENDBRANCH   5   6
ENDBRANCH   4   5
ENDBRANCH   3   4
ENDBRANCH   2   3
TORSDOF 6
ENDMDL
MODEL      228
REMARK 921   NORMALIZED FREE ENERGY PREDICTED BY IDOCK:   -2.65 KCAL/MOL
REMARK 922        TOTAL FREE ENERGY PREDICTED BY IDOCK:   -4.51 KCAL/MOL
REMARK 923 INTER-LIGAND FREE ENERGY PREDICTED BY IDOCK:   -3.70 KCAL/MOL
REMARK 924 INTRA-LIGAND FREE ENERGY PREDICTED BY IDOCK:   -0.82 KCAL/MOL
REMARK 927      BINDING AFFINITY PREDICTED BY RF-SCORE:    0.00 PKD
ROOT
HETATM    1  C   UNL     1     -11.322  15.117  65.187  1.00  0.00    -0.357 C  
HETATM    2  C   UNL     1     -11.663  13.817  64.478  1.00  0.00    -0.432 C  
ENDROOT
BRANCH   2   3
HETATM    3  C   UNL     1     -12.209  12.778  65.459  1.00  0.00    -0.519 C  
BRANCH   3   4
HETATM    4  C   UNL     1     -11.223  12.533  66.595  1.00  0.00    -0.357 C  
BRANCH   4   5
HETATM    5  C   UNL     1      -9.902  11.963  66.077  1.00  0.00    -0.258 C  
BRANCH   5   6
HETATM    6  C   UNL     1      -9.627  10.609  66.685  1.00  0.00    -0.209 A  
HETATM    7  C   UNL     1      -9.448  10.481  68.062  1.00  0.00    -0.157 A  
HETATM    8  C   UNL     1      -9.126   9.243  68.621  1.00  0.00    -0.132 A  
HETATM    9  C   UNL     1      -8.934   8.092  67.832  1.00  0.00    -0.133 A  
HETATM   10  O   UNL     1      -8.998   9.175  69.982  1.00  0.00    -0.157 OA 
HETATM   11  H   UNL     1      -9.230   7.311  64.615  1.00  0.00     0.000 HD 
HETATM   12  H   UNL     1      -8.779   8.332  70.362  1.00  0.00     0.000 HD 
HETATM   13  C   UNL     1      -9.165   8.238  66.450  1.00  0.00    -0.195 A  
HETATM   14  O   UNL     1      -9.073   7.213  65.547  1.00  0.00     0.037 OA 
HETATM   15  C   UNL     1      -9.517   9.469  65.887  1.00  0.00    -0.307 A  
BRANCH   9  16
HETATM   16  C   UNL     1      -8.568   6.739  68.463  1.00  0.00    -0.125 C  
HETATM   17  C   UNL     1      -7.113   6.444  68.207  1.00  0.00    -0.083 C  
HETATM   18  C   UNL     1      -6.663   5.431  67.457  1.00  0.00    -0.055 C  
HETATM   19  C   UNL     1      -7.583   4.452  66.797  1.00  0.00    -0.086 C  
HETATM   20  C   UNL     1      -5.198   5.257  67.167  1.00  0.00    -0.008 C  
HETATM   21  C   UNL     1      -9.048   4.433  67.246  1.00  0.00    -0.145 C  
HETATM   22  C   UNL     1      -9.580   5.593  68.117  1.00  0.00    -0.135 C  
BRANCH  22  23
HETATM   23  C   UNL     1     -10.333   5.085  69.360  1.00  0.00    -0.215 C  
HETATM   24  C   UNL     1      -9.825   4.097  70.118  1.00  0.00    -0.242 C  
HETATM   25  C   UNL     1     -11.642   5.718  69.738  1.00  0.00     0.573 C  
ENDBRANCH  22  23
ENDBRANCH   9  16
ENDBRANCH   5   6
ENDBRANCH   4   5
ENDBRANCH   3   4
ENDBRANCH   2   3
TORSDOF 6
ENDMDL
MODEL      229
REMARK 921   NORMALIZED FREE ENERGY PREDICTED BY IDOCK:   -2.65 KCAL/MOL
REMARK 922        TOTAL FREE ENERGY PREDICTED BY IDOCK:   -4.51 KCAL/MOL
REMARK 923 INTER-LIGAND FREE ENERGY PREDICTED BY IDOCK:   -4.19 KCAL/MOL
REMARK 924 INTRA-LIGAND FREE ENERGY PREDICTED BY IDOCK:   -0.32 KCAL/MOL
REMARK 927      BINDING AFFINITY PREDICTED BY RF-SCORE:    0.00 PKD
ROOT
HETATM    1  C   UNL     1      -9.335   7.005  68.822  1.00  0.00    -0.134 C  
HETATM    2  C   UNL     1      -8.657   7.093  70.179  1.00  0.00    -0.140 C  
ENDROOT
BRANCH   2   3
HETATM    3  C   UNL     1      -8.019   8.467  70.391  1.00  0.00    -0.099 C  
BRANCH   3   4
HETATM    4  C   UNL     1      -6.677   8.559  69.676  1.00  0.00    -0.040 C  
BRANCH   4   5
HETATM    5  C   UNL     1      -6.849   8.964  68.212  1.00  0.00    -0.065 C  
BRANCH   5   6
HETATM    6  C   UNL     1      -7.516  10.314  68.104  1.00  0.00    -0.086 A  
HETATM    7  C   UNL     1      -6.832  11.468  68.486  1.00  0.00    -0.074 A  
HETATM    8  C   UNL     1      -7.467  12.711  68.451  1.00  0.00    -0.127 A  
HETATM    9  C   UNL     1      -8.817  12.851  68.072  1.00  0.00    -0.195 A  
HETATM   10  O   UNL     1      -6.732  13.809  68.805  1.00  0.00    -0.091 OA 
HETATM   11  H   UNL     1     -11.205  10.852  66.912  1.00  0.00     0.000 HD 
HETATM   12  H   UNL     1      -7.164  14.655  68.781  1.00  0.00     0.000 HD 
HETATM   13  C   UNL     1      -9.471  11.678  67.648  1.00  0.00    -0.177 A  
HETATM   14  O   UNL     1     -10.764  11.643  67.199  1.00  0.00    -0.225 OA 
HETATM   15  C   UNL     1      -8.831  10.435  67.651  1.00  0.00    -0.124 A  
BRANCH   9  16
HETATM   16  C   UNL     1      -9.504  14.226  68.051  1.00  0.00    -0.204 C  
HETATM   17  C   UNL     1      -9.984  14.567  69.438  1.00  0.00     0.026 C  
HETATM   18  C   UNL     1     -11.270  14.701  69.786  1.00  0.00    -0.296 C  
HETATM   19  C   UNL     1     -12.387  14.544  68.802  1.00  0.00    -0.064 C  
HETATM   20  C   UNL     1     -11.677  14.947  71.213  1.00  0.00    -0.382 C  
HETATM   21  C   UNL     1     -12.032  14.534  67.312  1.00  0.00    -0.375 C  
HETATM   22  C   UNL     1     -10.550  14.385  66.895  1.00  0.00    -0.278 C  
BRANCH  22  23
HETATM   23  C   UNL     1     -10.128  15.452  65.869  1.00  0.00    -0.370 C  
HETATM   24  C   UNL     1      -8.923  16.042  65.943  1.00  0.00    -0.256 C  
HETATM   25  C   UNL     1     -11.073  15.819  64.760  1.00  0.00    -0.413 C  
ENDBRANCH  22  23
ENDBRANCH   9  16
ENDBRANCH   5   6
ENDBRANCH   4   5
ENDBRANCH   3   4
ENDBRANCH   2   3
TORSDOF 6
ENDMDL
MODEL      230
REMARK 921   NORMALIZED FREE ENERGY PREDICTED BY IDOCK:   -2.64 KCAL/MOL
REMARK 922        TOTAL FREE ENERGY PREDICTED BY IDOCK:   -4.49 KCAL/MOL
REMARK 923 INTER-LIGAND FREE ENERGY PREDICTED BY IDOCK:   -3.55 KCAL/MOL
REMARK 924 INTRA-LIGAND FREE ENERGY PREDICTED BY IDOCK:   -0.95 KCAL/MOL
REMARK 927      BINDING AFFINITY PREDICTED BY RF-SCORE:    0.00 PKD
ROOT
HETATM    1  C   UNL     1      -8.889   4.167  73.572  1.00  0.00    -0.093 C  
HETATM    2  C   UNL     1      -8.035   3.171  72.806  1.00  0.00    -0.063 C  
ENDROOT
BRANCH   2   3
HETATM    3  C   UNL     1      -8.842   2.482  71.705  1.00  0.00    -0.123 C  
BRANCH   3   4
HETATM    4  C   UNL     1      -9.667   3.495  70.921  1.00  0.00    -0.213 C  
BRANCH   4   5
HETATM    5  C   UNL     1      -9.495   3.310  69.413  1.00  0.00    -0.203 C  
BRANCH   5   6
HETATM    6  C   UNL     1      -9.173   4.625  68.745  1.00  0.00    -0.179 A  
HETATM    7  C   UNL     1      -7.847   5.031  68.594  1.00  0.00    -0.078 A  
HETATM    8  C   UNL     1      -7.548   6.276  68.038  1.00  0.00    -0.102 A  
HETATM    9  C   UNL     1      -8.553   7.181  67.644  1.00  0.00    -0.122 A  
HETATM   10  O   UNL     1      -6.228   6.602  67.885  1.00  0.00    -0.032 OA 
HETATM   11  H   UNL     1     -11.871   7.154  67.463  1.00  0.00     0.000 HD 
HETATM   12  H   UNL     1      -6.024   7.449  67.506  1.00  0.00     0.000 HD 
HETATM   13  C   UNL     1      -9.881   6.729  67.764  1.00  0.00    -0.126 A  
HETATM   14  O   UNL     1     -10.975   7.459  67.381  1.00  0.00    -0.243 OA 
HETATM   15  C   UNL     1     -10.187   5.471  68.293  1.00  0.00    -0.237 A  
BRANCH   9  16
HETATM   16  C   UNL     1      -8.205   8.553  67.044  1.00  0.00    -0.107 C  
HETATM   17  C   UNL     1      -8.686   9.641  67.970  1.00  0.00    -0.119 C  
HETATM   18  C   UNL     1      -9.643  10.527  67.671  1.00  0.00    -0.175 C  
HETATM   19  C   UNL     1     -10.337  10.539  66.344  1.00  0.00    -0.283 C  
HETATM   20  C   UNL     1     -10.139  11.523  68.683  1.00  0.00    -0.214 C  
HETATM   21  C   UNL     1      -9.719   9.720  65.206  1.00  0.00    -0.371 C  
HETATM   22  C   UNL     1      -8.607   8.697  65.537  1.00  0.00    -0.200 C  
BRANCH  22  23
HETATM   23  C   UNL     1      -7.382   8.859  64.619  1.00  0.00    -0.101 C  
HETATM   24  C   UNL     1      -6.461   7.884  64.519  1.00  0.00    -0.056 C  
HETATM   25  C   UNL     1      -7.229  10.116  63.811  1.00  0.00    -0.106 C  
ENDBRANCH  22  23
ENDBRANCH   9  16
ENDBRANCH   5   6
ENDBRANCH   4   5
ENDBRANCH   3   4
ENDBRANCH   2   3
TORSDOF 6
ENDMDL
MODEL      231
REMARK 921   NORMALIZED FREE ENERGY PREDICTED BY IDOCK:   -2.63 KCAL/MOL
REMARK 922        TOTAL FREE ENERGY PREDICTED BY IDOCK:   -4.49 KCAL/MOL
REMARK 923 INTER-LIGAND FREE ENERGY PREDICTED BY IDOCK:   -3.54 KCAL/MOL
REMARK 924 INTRA-LIGAND FREE ENERGY PREDICTED BY IDOCK:   -0.95 KCAL/MOL
REMARK 927      BINDING AFFINITY PREDICTED BY RF-SCORE:    0.00 PKD
ROOT
HETATM    1  C   UNL     1      -8.282   4.537  74.559  1.00  0.00    -0.094 C  
HETATM    2  C   UNL     1      -8.482   3.042  74.382  1.00  0.00    -0.069 C  
ENDROOT
BRANCH   2   3
HETATM    3  C   UNL     1      -9.963   2.668  74.458  1.00  0.00    -0.161 C  
BRANCH   3   4
HETATM    4  C   UNL     1     -10.633   2.819  73.098  1.00  0.00    -0.259 C  
BRANCH   4   5
HETATM    5  C   UNL     1     -11.340   4.168  72.969  1.00  0.00    -0.115 C  
BRANCH   5   6
HETATM    6  C   UNL     1     -10.706   5.005  71.883  1.00  0.00    -0.181 A  
HETATM    7  C   UNL     1      -9.667   4.484  71.112  1.00  0.00    -0.256 A  
HETATM    8  C   UNL     1      -9.033   5.276  70.153  1.00  0.00    -0.129 A  
HETATM    9  C   UNL     1      -9.380   6.626  69.949  1.00  0.00    -0.153 A  
HETATM   10  O   UNL     1      -8.045   4.697  69.404  1.00  0.00    -0.069 OA 
HETATM   11  H   UNL     1     -11.690   8.713  71.111  1.00  0.00     0.000 HD 
HETATM   12  H   UNL     1      -7.613   5.236  68.752  1.00  0.00     0.000 HD 
HETATM   13  C   UNL     1     -10.461   7.114  70.708  1.00  0.00    -0.212 A  
HETATM   14  O   UNL     1     -10.961   8.384  70.599  1.00  0.00    -0.235 OA 
HETATM   15  C   UNL     1     -11.121   6.316  71.649  1.00  0.00    -0.325 A  
BRANCH   9  16
HETATM   16  C   UNL     1      -8.663   7.487  68.897  1.00  0.00    -0.132 C  
HETATM   17  C   UNL     1      -7.608   8.327  69.571  1.00  0.00    -0.095 C  
HETATM   18  C   UNL     1      -7.630   9.663  69.641  1.00  0.00    -0.114 C  
HETATM   19  C   UNL     1      -8.721  10.480  69.023  1.00  0.00    -0.160 C  
HETATM   20  C   UNL     1      -6.592  10.427  70.416  1.00  0.00    -0.121 C  
HETATM   21  C   UNL     1      -9.659   9.787  68.031  1.00  0.00    -0.160 C  
HETATM   22  C   UNL     1      -9.641   8.244  67.934  1.00  0.00    -0.176 C  
BRANCH  22  23
HETATM   23  C   UNL     1      -9.521   7.757  66.479  1.00  0.00    -0.262 C  
HETATM   24  C   UNL     1      -8.896   8.502  65.551  1.00  0.00    -0.196 C  
HETATM   25  C   UNL     1     -10.094   6.420  66.101  1.00  0.00     0.139 C  
ENDBRANCH  22  23
ENDBRANCH   9  16
ENDBRANCH   5   6
ENDBRANCH   4   5
ENDBRANCH   3   4
ENDBRANCH   2   3
TORSDOF 6
ENDMDL
MODEL      232
REMARK 921   NORMALIZED FREE ENERGY PREDICTED BY IDOCK:   -2.58 KCAL/MOL
REMARK 922        TOTAL FREE ENERGY PREDICTED BY IDOCK:   -4.42 KCAL/MOL
REMARK 923 INTER-LIGAND FREE ENERGY PREDICTED BY IDOCK:   -4.31 KCAL/MOL
REMARK 924 INTRA-LIGAND FREE ENERGY PREDICTED BY IDOCK:   -0.11 KCAL/MOL
REMARK 927      BINDING AFFINITY PREDICTED BY RF-SCORE:    0.00 PKD
ROOT
HETATM    1  C   UNL     1      -7.851   6.707  69.822  1.00  0.00    -0.115 C  
HETATM    2  C   UNL     1      -7.330   6.338  68.443  1.00  0.00    -0.086 C  
ENDROOT
BRANCH   2   3
HETATM    3  C   UNL     1      -5.991   7.019  68.157  1.00  0.00    -0.029 C  
BRANCH   3   4
HETATM    4  C   UNL     1      -6.084   8.522  68.391  1.00  0.00    -0.050 C  
BRANCH   4   5
HETATM    5  C   UNL     1      -5.908   9.302  67.088  1.00  0.00    -0.045 C  
BRANCH   5   6
HETATM    6  C   UNL     1      -6.781  10.534  67.078  1.00  0.00    -0.082 A  
HETATM    7  C   UNL     1      -6.221  11.793  67.290  1.00  0.00    -0.130 A  
HETATM    8  C   UNL     1      -7.033  12.927  67.349  1.00  0.00    -0.124 A  
HETATM    9  C   UNL     1      -8.435  12.850  67.237  1.00  0.00    -0.197 A  
HETATM   10  O   UNL     1      -6.420  14.138  67.525  1.00  0.00    -0.264 OA 
HETATM   11  H   UNL     1     -10.667  10.468  66.618  1.00  0.00     0.000 HD 
HETATM   12  H   UNL     1      -6.973  14.910  67.564  1.00  0.00     0.000 HD 
HETATM   13  C   UNL     1      -8.971  11.574  66.979  1.00  0.00    -0.174 A  
HETATM   14  O   UNL     1     -10.305  11.328  66.792  1.00  0.00    -0.221 OA 
HETATM   15  C   UNL     1      -8.160  10.438  66.888  1.00  0.00    -0.118 A  
BRANCH   9  16
HETATM   16  C   UNL     1      -9.315  14.108  67.317  1.00  0.00    -0.225 C  
HETATM   17  C   UNL     1      -8.666  15.225  66.541  1.00  0.00    -0.314 C  
HETATM   18  C   UNL     1      -8.203  16.358  67.082  1.00  0.00    -0.209 C  
HETATM   19  C   UNL     1      -8.307  16.647  68.548  1.00  0.00    -0.228 C  
HETATM   20  C   UNL     1      -7.478  17.386  66.257  1.00  0.00    -0.354 C  
HETATM   21  C   UNL     1      -9.235  15.764  69.387  1.00  0.00    -0.263 C  
HETATM   22  C   UNL     1      -9.782  14.454  68.773  1.00  0.00    -0.190 C  
BRANCH  22  23
HETATM   23  C   UNL     1     -11.306  14.328  68.942  1.00  0.00    -0.302 C  
HETATM   24  C   UNL     1     -11.870  14.354  70.162  1.00  0.00    -0.380 C  
HETATM   25  C   UNL     1     -12.174  14.194  67.723  1.00  0.00    -0.208 C  
ENDBRANCH  22  23
ENDBRANCH   9  16
ENDBRANCH   5   6
ENDBRANCH   4   5
ENDBRANCH   3   4
ENDBRANCH   2   3
TORSDOF 6
ENDMDL
MODEL      233
REMARK 921   NORMALIZED FREE ENERGY PREDICTED BY IDOCK:   -2.43 KCAL/MOL
REMARK 922        TOTAL FREE ENERGY PREDICTED BY IDOCK:   -4.21 KCAL/MOL
REMARK 923 INTER-LIGAND FREE ENERGY PREDICTED BY IDOCK:   -4.93 KCAL/MOL
REMARK 924 INTRA-LIGAND FREE ENERGY PREDICTED BY IDOCK:    0.72 KCAL/MOL
REMARK 927      BINDING AFFINITY PREDICTED BY RF-SCORE:    0.00 PKD
ROOT
HETATM    1  C   UNL     1      -8.272   4.548  74.558  1.00  0.00    -0.094 C  
HETATM    2  C   UNL     1      -8.461   3.094  74.160  1.00  0.00    -0.073 C  
ENDROOT
BRANCH   2   3
HETATM    3  C   UNL     1      -9.943   2.718  74.122  1.00  0.00    -0.159 C  
BRANCH   3   4
HETATM    4  C   UNL     1     -10.604   3.239  72.851  1.00  0.00    -0.209 C  
BRANCH   4   5
HETATM    5  C   UNL     1     -11.388   4.525  73.115  1.00  0.00    -0.318 C  
BRANCH   5   6
HETATM    6  C   UNL     1     -10.931   5.630  72.194  1.00  0.00    -0.307 A  
HETATM    7  C   UNL     1      -9.966   5.378  71.219  1.00  0.00    -0.253 A  
HETATM    8  C   UNL     1      -9.492   6.412  70.410  1.00  0.00    -0.162 A  
HETATM    9  C   UNL     1      -9.930   7.743  70.562  1.00  0.00    -0.187 A  
HETATM   10  O   UNL     1      -8.572   6.094  69.448  1.00  0.00    -0.121 OA 
HETATM   11  H   UNL     1     -12.189   9.330  72.410  1.00  0.00     0.000 HD 
HETATM   12  H   UNL     1      -8.249   6.798  68.898  1.00  0.00     0.000 HD 
HETATM   13  C   UNL     1     -10.936   7.962  71.522  1.00  0.00    -0.231 A  
HETATM   14  O   UNL     1     -11.510   9.182  71.763  1.00  0.00    -0.347 OA 
HETATM   15  C   UNL     1     -11.438   6.925  72.315  1.00  0.00    -0.313 A  
BRANCH   9  16
HETATM   16  C   UNL     1      -9.388   8.871  69.670  1.00  0.00    -0.163 C  
HETATM   17  C   UNL     1     -10.148  10.142  69.951  1.00  0.00    -0.268 C  
HETATM   18  C   UNL     1     -10.939  10.765  69.069  1.00  0.00    -0.289 C  
HETATM   19  C   UNL     1     -11.135  10.263  67.673  1.00  0.00    -0.319 C  
HETATM   20  C   UNL     1     -11.744  11.976  69.453  1.00  0.00    -0.402 C  
HETATM   21  C   UNL     1     -10.171   9.190  67.157  1.00  0.00    -0.329 C  
HETATM   22  C   UNL     1      -9.247   8.465  68.163  1.00  0.00    -0.141 C  
BRANCH  22  23
HETATM   23  C   UNL     1      -7.781   8.453  67.696  1.00  0.00    -0.099 C  
HETATM   24  C   UNL     1      -7.403   7.734  66.625  1.00  0.00    -0.088 C  
HETATM   25  C   UNL     1      -6.765   9.273  68.440  1.00  0.00    -0.059 C  
ENDBRANCH  22  23
ENDBRANCH   9  16
ENDBRANCH   5   6
ENDBRANCH   4   5
ENDBRANCH   3   4
ENDBRANCH   2   3
TORSDOF 6
ENDMDL
MODEL      234
REMARK 921   NORMALIZED FREE ENERGY PREDICTED BY IDOCK:   -2.27 KCAL/MOL
REMARK 922        TOTAL FREE ENERGY PREDICTED BY IDOCK:   -4.00 KCAL/MOL
REMARK 923 INTER-LIGAND FREE ENERGY PREDICTED BY IDOCK:   -3.44 KCAL/MOL
REMARK 924 INTRA-LIGAND FREE ENERGY PREDICTED BY IDOCK:   -0.55 KCAL/MOL
REMARK 927      BINDING AFFINITY PREDICTED BY RF-SCORE:    0.00 PKD
ROOT
HETATM    1  C   UNL     1      -9.782   4.088  68.127  1.00  0.00    -0.138 C  
HETATM    2  C   UNL     1      -9.502   3.833  69.598  1.00  0.00    -0.258 C  
ENDROOT
BRANCH   2   3
HETATM    3  C   UNL     1      -8.114   3.224  69.801  1.00  0.00    -0.061 C  
BRANCH   3   4
HETATM    4  C   UNL     1      -7.128   4.274  70.298  1.00  0.00    -0.041 C  
BRANCH   4   5
HETATM    5  C   UNL     1      -6.492   5.039  69.137  1.00  0.00    -0.035 C  
BRANCH   5   6
HETATM    6  C   UNL     1      -6.982   6.467  69.104  1.00  0.00    -0.068 A  
HETATM    7  C   UNL     1      -6.934   7.253  70.255  1.00  0.00    -0.060 A  
HETATM    8  C   UNL     1      -7.448   8.551  70.246  1.00  0.00    -0.064 A  
HETATM    9  C   UNL     1      -8.063   9.105  69.106  1.00  0.00    -0.105 A  
HETATM   10  O   UNL     1      -7.339   9.285  71.396  1.00  0.00    -0.300 OA 
HETATM   11  H   UNL     1      -8.564   8.172  65.956  1.00  0.00     0.000 HD 
HETATM   12  H   UNL     1      -7.689  10.168  71.390  1.00  0.00     0.000 HD 
HETATM   13  C   UNL     1      -8.058   8.308  67.945  1.00  0.00    -0.127 A  
HETATM   14  O   UNL     1      -8.567   8.710  66.739  1.00  0.00    -0.116 OA 
HETATM   15  C   UNL     1      -7.518   7.018  67.939  1.00  0.00    -0.099 A  
BRANCH   9  16
HETATM   16  C   UNL     1      -8.635  10.532  69.118  1.00  0.00    -0.157 C  
HETATM   17  C   UNL     1      -9.946  10.541  69.861  1.00  0.00     0.004 C  
HETATM   18  C   UNL     1     -11.133  10.814  69.306  1.00  0.00    -0.312 C  
HETATM   19  C   UNL     1     -11.278  11.168  67.858  1.00  0.00    -0.365 C  
HETATM   20  C   UNL     1     -12.411  10.707  70.090  1.00  0.00    -0.342 C  
HETATM   21  C   UNL     1     -10.009  11.524  67.078  1.00  0.00    -0.225 C  
HETATM   22  C   UNL     1      -8.630  11.220  67.709  1.00  0.00    -0.126 C  
BRANCH  22  23
HETATM   23  C   UNL     1      -7.689  12.436  67.657  1.00  0.00    -0.151 C  
HETATM   24  C   UNL     1      -6.357  12.283  67.755  1.00  0.00    -0.101 C  
HETATM   25  C   UNL     1      -8.271  13.810  67.474  1.00  0.00    -0.194 C  
ENDBRANCH  22  23
ENDBRANCH   9  16
ENDBRANCH   5   6
ENDBRANCH   4   5
ENDBRANCH   3   4
ENDBRANCH   2   3
TORSDOF 6
ENDMDL
MODEL      235
REMARK 921   NORMALIZED FREE ENERGY PREDICTED BY IDOCK:   -2.14 KCAL/MOL
REMARK 922        TOTAL FREE ENERGY PREDICTED BY IDOCK:   -3.82 KCAL/MOL
REMARK 923 INTER-LIGAND FREE ENERGY PREDICTED BY IDOCK:   -3.10 KCAL/MOL
REMARK 924 INTRA-LIGAND FREE ENERGY PREDICTED BY IDOCK:   -0.72 KCAL/MOL
REMARK 927      BINDING AFFINITY PREDICTED BY RF-SCORE:    0.00 PKD
ROOT
HETATM    1  C   UNL     1      -8.247   6.072  73.705  1.00  0.00    -0.108 C  
HETATM    2  C   UNL     1      -8.602   4.778  72.994  1.00  0.00    -0.114 C  
ENDROOT
BRANCH   2   3
HETATM    3  C   UNL     1     -10.081   4.748  72.605  1.00  0.00    -0.227 C  
BRANCH   3   4
HETATM    4  C   UNL     1     -10.295   5.378  71.233  1.00  0.00    -0.296 C  
BRANCH   4   5
HETATM    5  C   UNL     1     -10.933   6.762  71.347  1.00  0.00    -0.279 C  
BRANCH   5   6
HETATM    6  C   UNL     1     -10.293   7.729  70.380  1.00  0.00    -0.212 A  
HETATM    7  C   UNL     1      -8.912   7.927  70.396  1.00  0.00    -0.147 A  
HETATM    8  C   UNL     1      -8.324   8.869  69.550  1.00  0.00    -0.119 A  
HETATM    9  C   UNL     1      -9.086   9.677  68.683  1.00  0.00    -0.132 A  
HETATM   10  O   UNL     1      -6.961   8.991  69.587  1.00  0.00    -0.051 OA 
HETATM   11  H   UNL     1     -12.285   9.913  67.815  1.00  0.00     0.000 HD 
HETATM   12  H   UNL     1      -6.561   9.633  69.012  1.00  0.00     0.000 HD 
HETATM   13  C   UNL     1     -10.471   9.426  68.654  1.00  0.00    -0.209 A  
HETATM   14  O   UNL     1     -11.351  10.083  67.835  1.00  0.00    -0.204 OA 
HETATM   15  C   UNL     1     -11.064   8.462  69.477  1.00  0.00     0.040 A  
BRANCH   9  16
HETATM   16  C   UNL     1      -8.423  10.718  67.768  1.00  0.00    -0.120 C  
HETATM   17  C   UNL     1      -7.648  10.013  66.685  1.00  0.00    -0.104 C  
HETATM   18  C   UNL     1      -6.318  10.062  66.545  1.00  0.00    -0.072 C  
HETATM   19  C   UNL     1      -5.445  10.861  67.463  1.00  0.00    -0.044 C  
HETATM   20  C   UNL     1      -5.606   9.252  65.498  1.00  0.00    -0.048 C  
HETATM   21  C   UNL     1      -6.121  11.883  68.383  1.00  0.00    -0.050 C  
HETATM   22  C   UNL     1      -7.658  11.841  68.549  1.00  0.00    -0.131 C  
BRANCH  22  23
HETATM   23  C   UNL     1      -8.298  13.227  68.354  1.00  0.00    -0.131 C  
HETATM   24  C   UNL     1      -9.624  13.356  68.178  1.00  0.00    -0.222 C  
HETATM   25  C   UNL     1      -7.426  14.451  68.381  1.00  0.00    -0.119 C  
ENDBRANCH  22  23
ENDBRANCH   9  16
ENDBRANCH   5   6
ENDBRANCH   4   5
ENDBRANCH   3   4
ENDBRANCH   2   3
TORSDOF 6
ENDMDL
MODEL      236
REMARK 921   NORMALIZED FREE ENERGY PREDICTED BY IDOCK:   -1.89 KCAL/MOL
REMARK 922        TOTAL FREE ENERGY PREDICTED BY IDOCK:   -3.48 KCAL/MOL
REMARK 923 INTER-LIGAND FREE ENERGY PREDICTED BY IDOCK:   -2.77 KCAL/MOL
REMARK 924 INTRA-LIGAND FREE ENERGY PREDICTED BY IDOCK:   -0.71 KCAL/MOL
REMARK 927      BINDING AFFINITY PREDICTED BY RF-SCORE:    0.00 PKD
ROOT
HETATM    1  C   UNL     1      -8.891   6.206  74.430  1.00  0.00    -0.139 C  
HETATM    2  C   UNL     1      -9.324   4.787  74.100  1.00  0.00    -0.123 C  
ENDROOT
BRANCH   2   3
HETATM    3  C   UNL     1     -10.839   4.700  73.915  1.00  0.00    -0.359 C  
BRANCH   3   4
HETATM    4  C   UNL     1     -11.208   4.729  72.437  1.00  0.00     0.010 C  
BRANCH   4   5
HETATM    5  C   UNL     1     -11.502   6.153  71.962  1.00  0.00    -0.366 C  
BRANCH   5   6
HETATM    6  C   UNL     1     -10.703   6.480  70.723  1.00  0.00    -0.290 A  
HETATM    7  C   UNL     1      -9.325   6.269  70.700  1.00  0.00    -0.171 A  
HETATM    8  C   UNL     1      -8.573   6.633  69.581  1.00  0.00    -0.133 A  
HETATM    9  C   UNL     1      -9.154   7.253  68.458  1.00  0.00    -0.136 A  
HETATM   10  O   UNL     1      -7.230   6.367  69.606  1.00  0.00    -0.073 OA 
HETATM   11  H   UNL     1     -12.226   8.059  67.482  1.00  0.00     0.000 HD 
HETATM   12  H   UNL     1      -6.719   6.615  68.844  1.00  0.00     0.000 HD 
HETATM   13  C   UNL     1     -10.552   7.414  68.488  1.00  0.00    -0.153 A  
HETATM   14  O   UNL     1     -11.283   7.951  67.462  1.00  0.00     0.131 OA 
HETATM   15  C   UNL     1     -11.316   7.024  69.593  1.00  0.00    -0.181 A  
BRANCH   9  16
HETATM   16  C   UNL     1      -8.308   7.659  67.240  1.00  0.00    -0.115 C  
HETATM   17  C   UNL     1      -8.003   6.437  66.412  1.00  0.00    -0.110 C  
HETATM   18  C   UNL     1      -6.778   5.932  66.223  1.00  0.00    -0.060 C  
HETATM   19  C   UNL     1      -5.553   6.561  66.813  1.00  0.00    -0.013 C  
HETATM   20  C   UNL     1      -6.562   4.652  65.465  1.00  0.00    -0.041 C  
HETATM   21  C   UNL     1      -5.680   7.977  67.383  1.00  0.00    -0.038 C  
HETATM   22  C   UNL     1      -7.089   8.574  67.601  1.00  0.00    -0.080 C  
BRANCH  22  23
HETATM   23  C   UNL     1      -7.219   9.984  66.997  1.00  0.00    -0.090 C  
HETATM   24  C   UNL     1      -8.034  10.899  67.549  1.00  0.00    -0.115 C  
HETATM   25  C   UNL     1      -6.407  10.343  65.785  1.00  0.00    -0.123 C  
ENDBRANCH  22  23
ENDBRANCH   9  16
ENDBRANCH   5   6
ENDBRANCH   4   5
ENDBRANCH   3   4
ENDBRANCH   2   3
TORSDOF 6
ENDMDL
MODEL      237
REMARK 921   NORMALIZED FREE ENERGY PREDICTED BY IDOCK:   -1.85 KCAL/MOL
REMARK 922        TOTAL FREE ENERGY PREDICTED BY IDOCK:   -3.43 KCAL/MOL
REMARK 923 INTER-LIGAND FREE ENERGY PREDICTED BY IDOCK:   -3.06 KCAL/MOL
REMARK 924 INTRA-LIGAND FREE ENERGY PREDICTED BY IDOCK:   -0.37 KCAL/MOL
REMARK 927      BINDING AFFINITY PREDICTED BY RF-SCORE:    0.00 PKD
ROOT
HETATM    1  C   UNL     1      -5.722  16.445  67.955  1.00  0.00    -0.140 C  
HETATM    2  C   UNL     1      -6.498  15.174  67.655  1.00  0.00    -0.180 C  
ENDROOT
BRANCH   2   3
HETATM    3  C   UNL     1      -6.666  14.318  68.911  1.00  0.00    -0.100 C  
BRANCH   3   4
HETATM    4  C   UNL     1      -6.935  12.863  68.546  1.00  0.00    -0.098 C  
BRANCH   4   5
HETATM    5  C   UNL     1      -6.442  11.913  69.637  1.00  0.00    -0.101 C  
BRANCH   5   6
HETATM    6  C   UNL     1      -7.208  10.612  69.601  1.00  0.00    -0.139 A  
HETATM    7  C   UNL     1      -6.581   9.418  69.956  1.00  0.00    -0.059 A  
HETATM    8  C   UNL     1      -7.266   8.205  69.860  1.00  0.00    -0.060 A  
HETATM    9  C   UNL     1      -8.585   8.126  69.373  1.00  0.00    -0.135 A  
HETATM   10  O   UNL     1      -6.608   7.072  70.257  1.00  0.00    -0.045 OA 
HETATM   11  H   UNL     1     -10.925  10.285  68.421  1.00  0.00     0.000 HD 
HETATM   12  H   UNL     1      -7.074   6.247  70.192  1.00  0.00     0.000 HD 
HETATM   13  C   UNL     1      -9.210   9.350  69.065  1.00  0.00    -0.145 A  
HETATM   14  O   UNL     1     -10.504   9.460  68.628  1.00  0.00    -0.202 OA 
HETATM   15  C   UNL     1      -8.540  10.572  69.188  1.00  0.00    -0.157 A  
BRANCH   9  16
HETATM   16  C   UNL     1      -9.319   6.780  69.263  1.00  0.00    -0.144 C  
HETATM   17  C   UNL     1      -9.929   6.430  70.595  1.00  0.00    -0.213 C  
HETATM   18  C   UNL     1      -9.567   5.382  71.345  1.00  0.00    -0.202 C  
HETATM   19  C   UNL     1      -8.508   4.416  70.914  1.00  0.00    -0.105 C  
HETATM   20  C   UNL     1     -10.152   5.152  72.711  1.00  0.00    -0.209 C  
HETATM   21  C   UNL     1      -8.055   4.458  69.451  1.00  0.00    -0.061 C  
HETATM   22  C   UNL     1      -8.470   5.659  68.571  1.00  0.00    -0.105 C  
BRANCH  22  23
HETATM   23  C   UNL     1      -9.076   5.211  67.230  1.00  0.00    -0.113 C  
HETATM   24  C   UNL     1      -9.456   6.113  66.308  1.00  0.00    -0.144 C  
HETATM   25  C   UNL     1      -9.225   3.744  66.943  1.00  0.00    -0.198 C  
ENDBRANCH  22  23
ENDBRANCH   9  16
ENDBRANCH   5   6
ENDBRANCH   4   5
ENDBRANCH   3   4
ENDBRANCH   2   3
TORSDOF 6
ENDMDL
MODEL      238
REMARK 921   NORMALIZED FREE ENERGY PREDICTED BY IDOCK:   -1.79 KCAL/MOL
REMARK 922        TOTAL FREE ENERGY PREDICTED BY IDOCK:   -3.34 KCAL/MOL
REMARK 923 INTER-LIGAND FREE ENERGY PREDICTED BY IDOCK:   -2.70 KCAL/MOL
REMARK 924 INTRA-LIGAND FREE ENERGY PREDICTED BY IDOCK:   -0.64 KCAL/MOL
REMARK 927      BINDING AFFINITY PREDICTED BY RF-SCORE:    0.00 PKD
ROOT
HETATM    1  C   UNL     1     -10.306  20.442  66.862  1.00  0.00    -0.311 C  
HETATM    2  C   UNL     1      -9.832  19.466  65.799  1.00  0.00    -0.106 C  
ENDROOT
BRANCH   2   3
HETATM    3  C   UNL     1      -8.425  18.953  66.106  1.00  0.00    -0.198 C  
BRANCH   3   4
HETATM    4  C   UNL     1      -8.373  17.432  66.034  1.00  0.00    -0.141 C  
BRANCH   4   5
HETATM    5  C   UNL     1      -9.486  16.795  66.867  1.00  0.00    -0.253 C  
BRANCH   5   6
HETATM    6  C   UNL     1      -9.141  15.369  67.222  1.00  0.00    -0.218 A  
HETATM    7  C   UNL     1     -10.039  14.588  67.948  1.00  0.00    -0.227 A  
HETATM    8  C   UNL     1      -9.696  13.291  68.337  1.00  0.00    -0.198 A  
HETATM    9  C   UNL     1      -8.435  12.733  68.051  1.00  0.00    -0.177 A  
HETATM   10  O   UNL     1     -10.635  12.564  69.017  1.00  0.00    -0.388 OA 
HETATM   11  H   UNL     1      -5.734  13.652  66.347  1.00  0.00     0.000 HD 
HETATM   12  H   UNL     1     -10.401  11.681  69.281  1.00  0.00     0.000 HD 
HETATM   13  C   UNL     1      -7.563  13.525  67.278  1.00  0.00    -0.058 A  
HETATM   14  O   UNL     1      -6.322  13.118  66.868  1.00  0.00    -0.017 OA 
HETATM   15  C   UNL     1      -7.913  14.813  66.860  1.00  0.00    -0.022 A  
BRANCH   9  16
HETATM   16  C   UNL     1      -8.069  11.309  68.497  1.00  0.00    -0.148 C  
HETATM   17  C   UNL     1      -7.373  11.364  69.832  1.00  0.00     0.479 C  
HETATM   18  C   UNL     1      -6.099  11.011  70.041  1.00  0.00    -0.128 C  
HETATM   19  C   UNL     1      -5.221  10.492  68.944  1.00  0.00    -0.041 C  
HETATM   20  C   UNL     1      -5.443  11.187  71.383  1.00  0.00     0.098 C  
HETATM   21  C   UNL     1      -5.891  10.069  67.633  1.00  0.00    -0.042 C  
HETATM   22  C   UNL     1      -7.364  10.465  67.381  1.00  0.00    -0.093 C  
BRANCH  22  23
HETATM   23  C   UNL     1      -8.216   9.265  66.930  1.00  0.00    -0.119 C  
HETATM   24  C   UNL     1      -7.793   8.005  67.129  1.00  0.00    -0.105 C  
HETATM   25  C   UNL     1      -9.546   9.511  66.277  1.00  0.00    -0.287 C  
ENDBRANCH  22  23
ENDBRANCH   9  16
ENDBRANCH   5   6
ENDBRANCH   4   5
ENDBRANCH   3   4
ENDBRANCH   2   3
TORSDOF 6
ENDMDL
MODEL      239
REMARK 921   NORMALIZED FREE ENERGY PREDICTED BY IDOCK:   -1.77 KCAL/MOL
REMARK 922        TOTAL FREE ENERGY PREDICTED BY IDOCK:   -3.32 KCAL/MOL
REMARK 923 INTER-LIGAND FREE ENERGY PREDICTED BY IDOCK:   -4.09 KCAL/MOL
REMARK 924 INTRA-LIGAND FREE ENERGY PREDICTED BY IDOCK:    0.77 KCAL/MOL
REMARK 927      BINDING AFFINITY PREDICTED BY RF-SCORE:    0.00 PKD
ROOT
HETATM    1  C   UNL     1      -9.539   4.532  74.192  1.00  0.00    -0.136 C  
HETATM    2  C   UNL     1      -9.246   3.288  73.372  1.00  0.00    -0.104 C  
ENDROOT
BRANCH   2   3
HETATM    3  C   UNL     1      -9.957   3.335  72.020  1.00  0.00    -0.222 C  
BRANCH   3   4
HETATM    4  C   UNL     1      -9.469   4.516  71.190  1.00  0.00    -0.226 C  
BRANCH   4   5
HETATM    5  C   UNL     1     -10.626   5.425  70.775  1.00  0.00    -0.293 C  
BRANCH   5   6
HETATM    6  C   UNL     1     -10.146   6.518  69.851  1.00  0.00    -0.202 A  
HETATM    7  C   UNL     1      -9.105   6.273  68.955  1.00  0.00    -0.129 A  
HETATM    8  C   UNL     1      -8.612   7.298  68.146  1.00  0.00    -0.122 A  
HETATM    9  C   UNL     1      -9.107   8.615  68.222  1.00  0.00    -0.141 A  
HETATM   10  O   UNL     1      -7.614   6.986  67.263  1.00  0.00    -0.103 OA 
HETATM   11  H   UNL     1     -11.549  10.171  69.852  1.00  0.00     0.000 HD 
HETATM   12  H   UNL     1      -7.279   7.684  66.713  1.00  0.00     0.000 HD 
HETATM   13  C   UNL     1     -10.187   8.826  69.101  1.00  0.00    -0.207 A  
HETATM   14  O   UNL     1     -10.821  10.029  69.259  1.00  0.00    -0.213 OA 
HETATM   15  C   UNL     1     -10.706   7.795  69.892  1.00  0.00    -0.245 A  
BRANCH   9  16
HETATM   16  C   UNL     1      -8.544   9.735  67.332  1.00  0.00    -0.128 C  
HETATM   17  C   UNL     1      -9.641  10.715  67.005  1.00  0.00    -0.196 C  
HETATM   18  C   UNL     1     -10.127  10.931  65.777  1.00  0.00    -0.308 C  
HETATM   19  C   UNL     1      -9.600  10.218  64.570  1.00  0.00    -0.378 C  
HETATM   20  C   UNL     1     -11.290  11.854  65.541  1.00  0.00    -0.334 C  
HETATM   21  C   UNL     1      -8.276   9.460  64.709  1.00  0.00    -0.145 C  
HETATM   22  C   UNL     1      -7.701   9.208  66.121  1.00  0.00    -0.095 C  
BRANCH  22  23
HETATM   23  C   UNL     1      -6.219   9.612  66.222  1.00  0.00    -0.068 C  
HETATM   24  C   UNL     1      -5.379   9.420  65.191  1.00  0.00    -0.045 C  
HETATM   25  C   UNL     1      -5.714  10.248  67.487  1.00  0.00    -0.045 C  
ENDBRANCH  22  23
ENDBRANCH   9  16
ENDBRANCH   5   6
ENDBRANCH   4   5
ENDBRANCH   3   4
ENDBRANCH   2   3
TORSDOF 6
ENDMDL
MODEL      240
REMARK 921   NORMALIZED FREE ENERGY PREDICTED BY IDOCK:   -1.68 KCAL/MOL
REMARK 922        TOTAL FREE ENERGY PREDICTED BY IDOCK:   -3.20 KCAL/MOL
REMARK 923 INTER-LIGAND FREE ENERGY PREDICTED BY IDOCK:   -2.61 KCAL/MOL
REMARK 924 INTRA-LIGAND FREE ENERGY PREDICTED BY IDOCK:   -0.59 KCAL/MOL
REMARK 927      BINDING AFFINITY PREDICTED BY RF-SCORE:    0.00 PKD
ROOT
HETATM    1  C   UNL     1      -8.275   4.542  74.565  1.00  0.00    -0.094 C  
HETATM    2  C   UNL     1      -8.522   3.049  74.434  1.00  0.00    -0.069 C  
ENDROOT
BRANCH   2   3
HETATM    3  C   UNL     1     -10.014   2.725  74.513  1.00  0.00    -0.164 C  
BRANCH   3   4
HETATM    4  C   UNL     1     -10.667   2.829  73.140  1.00  0.00    -0.257 C  
BRANCH   4   5
HETATM    5  C   UNL     1     -11.286   4.209  72.918  1.00  0.00    -0.012 C  
BRANCH   5   6
HETATM    6  C   UNL     1     -10.604   4.925  71.777  1.00  0.00    -0.164 A  
HETATM    7  C   UNL     1      -9.977   4.198  70.765  1.00  0.00    -0.192 A  
HETATM    8  C   UNL     1      -9.287   4.857  69.745  1.00  0.00    -0.138 A  
HETATM    9  C   UNL     1      -9.162   6.259  69.711  1.00  0.00    -0.150 A  
HETATM   10  O   UNL     1      -8.724   4.089  68.762  1.00  0.00    -0.089 OA 
HETATM   11  H   UNL     1     -10.324   8.818  71.484  1.00  0.00     0.000 HD 
HETATM   12  H   UNL     1      -8.255   4.537  68.068  1.00  0.00     0.000 HD 
HETATM   13  C   UNL     1      -9.841   6.971  70.718  1.00  0.00    -0.185 A  
HETATM   14  O   UNL     1      -9.866   8.338  70.804  1.00  0.00    -0.175 OA 
HETATM   15  C   UNL     1     -10.559   6.319  71.726  1.00  0.00    -0.266 A  
BRANCH   9  16
HETATM   16  C   UNL     1      -8.388   6.967  68.587  1.00  0.00    -0.121 C  
HETATM   17  C   UNL     1      -8.959   6.561  67.252  1.00  0.00    -0.114 C  
HETATM   18  C   UNL     1      -8.297   5.861  66.323  1.00  0.00    -0.117 C  
HETATM   19  C   UNL     1      -6.880   5.418  66.512  1.00  0.00    -0.063 C  
HETATM   20  C   UNL     1      -8.966   5.409  65.054  1.00  0.00    -0.040 C  
HETATM   21  C   UNL     1      -6.081   6.045  67.658  1.00  0.00    -0.018 C  
HETATM   22  C   UNL     1      -6.831   6.861  68.736  1.00  0.00    -0.066 C  
BRANCH  22  23
HETATM   23  C   UNL     1      -6.175   8.231  68.985  1.00  0.00    -0.043 C  
HETATM   24  C   UNL     1      -6.242   9.207  68.063  1.00  0.00    -0.051 C  
HETATM   25  C   UNL     1      -5.468   8.483  70.287  1.00  0.00    -0.021 C  
ENDBRANCH  22  23
ENDBRANCH   9  16
ENDBRANCH   5   6
ENDBRANCH   4   5
ENDBRANCH   3   4
ENDBRANCH   2   3
TORSDOF 6
ENDMDL
MODEL      241
REMARK 921   NORMALIZED FREE ENERGY PREDICTED BY IDOCK:   -1.67 KCAL/MOL
REMARK 922        TOTAL FREE ENERGY PREDICTED BY IDOCK:   -3.18 KCAL/MOL
REMARK 923 INTER-LIGAND FREE ENERGY PREDICTED BY IDOCK:   -4.43 KCAL/MOL
REMARK 924 INTRA-LIGAND FREE ENERGY PREDICTED BY IDOCK:    1.25 KCAL/MOL
REMARK 927      BINDING AFFINITY PREDICTED BY RF-SCORE:    0.00 PKD
ROOT
HETATM    1  C   UNL     1     -12.406  14.677  71.584  1.00  0.00    -0.416 C  
HETATM    2  C   UNL     1     -11.632  14.355  70.317  1.00  0.00    -0.311 C  
ENDROOT
BRANCH   2   3
HETATM    3  C   UNL     1     -10.749  15.529  69.894  1.00  0.00    -0.321 C  
BRANCH   3   4
HETATM    4  C   UNL     1      -9.687  15.080  68.898  1.00  0.00    -0.224 C  
BRANCH   4   5
HETATM    5  C   UNL     1     -10.315  14.428  67.666  1.00  0.00    -0.237 C  
BRANCH   5   6
HETATM    6  C   UNL     1      -9.887  12.986  67.545  1.00  0.00    -0.209 A  
HETATM    7  C   UNL     1     -10.780  11.960  67.853  1.00  0.00    -0.239 A  
HETATM    8  C   UNL     1     -10.369  10.626  67.808  1.00  0.00    -0.204 A  
HETATM    9  C   UNL     1      -9.045  10.262  67.491  1.00  0.00    -0.146 A  
HETATM   10  O   UNL     1     -11.302   9.665  68.086  1.00  0.00    -0.520 OA 
HETATM   11  H   UNL     1      -6.287  11.841  66.522  1.00  0.00     0.000 HD 
HETATM   12  H   UNL     1     -11.021   8.757  68.055  1.00  0.00     0.000 HD 
HETATM   13  C   UNL     1      -8.176  11.313  67.141  1.00  0.00    -0.149 A  
HETATM   14  O   UNL     1      -6.873  11.132  66.758  1.00  0.00    -0.116 OA 
HETATM   15  C   UNL     1      -8.590  12.648  67.155  1.00  0.00    -0.199 A  
BRANCH   9  16
HETATM   16  C   UNL     1      -8.606   8.789  67.458  1.00  0.00    -0.127 C  
HETATM   17  C   UNL     1      -7.168   8.705  67.016  1.00  0.00    -0.076 C  
HETATM   18  C   UNL     1      -6.754   8.133  65.878  1.00  0.00    -0.049 C  
HETATM   19  C   UNL     1      -7.702   7.484  64.917  1.00  0.00    -0.115 C  
HETATM   20  C   UNL     1      -5.312   8.173  65.456  1.00  0.00    -0.032 C  
HETATM   21  C   UNL     1      -9.128   7.202  65.399  1.00  0.00     0.278 C  
HETATM   22  C   UNL     1      -9.618   7.851  66.714  1.00  0.00    -0.278 C  
BRANCH  22  23
HETATM   23  C   UNL     1     -10.265   6.824  67.660  1.00  0.00    -0.225 C  
HETATM   24  C   UNL     1     -10.735   5.655  67.192  1.00  0.00    -0.316 C  
HETATM   25  C   UNL     1     -10.352   7.129  69.129  1.00  0.00    -0.205 C  
ENDBRANCH  22  23
ENDBRANCH   9  16
ENDBRANCH   5   6
ENDBRANCH   4   5
ENDBRANCH   3   4
ENDBRANCH   2   3
TORSDOF 6
ENDMDL
MODEL      242
REMARK 921   NORMALIZED FREE ENERGY PREDICTED BY IDOCK:   -0.93 KCAL/MOL
REMARK 922        TOTAL FREE ENERGY PREDICTED BY IDOCK:   -2.18 KCAL/MOL
REMARK 923 INTER-LIGAND FREE ENERGY PREDICTED BY IDOCK:   -2.05 KCAL/MOL
REMARK 924 INTRA-LIGAND FREE ENERGY PREDICTED BY IDOCK:   -0.13 KCAL/MOL
REMARK 927      BINDING AFFINITY PREDICTED BY RF-SCORE:    0.00 PKD
ROOT
HETATM    1  C   UNL     1     -11.033  17.747  67.341  1.00  0.00    -0.074 C  
HETATM    2  C   UNL     1     -10.521  18.017  68.746  1.00  0.00    -0.182 C  
ENDROOT
BRANCH   2   3
HETATM    3  C   UNL     1      -9.083  18.537  68.720  1.00  0.00    -0.283 C  
BRANCH   3   4
HETATM    4  C   UNL     1      -8.100  17.402  68.462  1.00  0.00    -0.270 C  
BRANCH   4   5
HETATM    5  C   UNL     1      -8.146  16.942  67.005  1.00  0.00    -0.228 C  
BRANCH   5   6
HETATM    6  C   UNL     1      -8.432  15.462  66.919  1.00  0.00    -0.287 A  
HETATM    7  C   UNL     1      -8.107  14.620  67.983  1.00  0.00    -0.135 A  
HETATM    8  C   UNL     1      -8.308  13.242  67.881  1.00  0.00    -0.163 A  
HETATM    9  C   UNL     1      -8.803  12.643  66.707  1.00  0.00    -0.168 A  
HETATM   10  O   UNL     1      -8.002  12.475  68.973  1.00  0.00    -0.333 OA 
HETATM   11  H   UNL     1      -9.953  13.698  63.773  1.00  0.00     0.000 HD 
HETATM   12  H   UNL     1      -8.139  11.537  68.903  1.00  0.00     0.000 HD 
HETATM   13  C   UNL     1      -9.165  13.517  65.665  1.00  0.00     0.448 A  
HETATM   14  O   UNL     1      -9.708  13.108  64.476  1.00  0.00    -0.035 OA 
HETATM   15  C   UNL     1      -8.995  14.902  65.771  1.00  0.00     0.386 A  
BRANCH   9  16
HETATM   16  C   UNL     1      -9.006  11.122  66.608  1.00  0.00    -0.175 C  
HETATM   17  C   UNL     1     -10.345  10.756  67.194  1.00  0.00    -0.269 C  
HETATM   18  C   UNL     1     -10.516  10.009  68.292  1.00  0.00    -0.246 C  
HETATM   19  C   UNL     1      -9.365   9.430  69.055  1.00  0.00    -0.153 C  
HETATM   20  C   UNL     1     -11.882   9.767  68.873  1.00  0.00     0.552 C  
HETATM   21  C   UNL     1      -7.987   9.439  68.386  1.00  0.00    -0.094 C  
HETATM   22  C   UNL     1      -7.776  10.293  67.114  1.00  0.00    -0.092 C  
BRANCH  22  23
HETATM   23  C   UNL     1      -7.109   9.490  65.984  1.00  0.00    -0.092 C  
HETATM   24  C   UNL     1      -7.718   9.334  64.795  1.00  0.00    -0.111 C  
HETATM   25  C   UNL     1      -5.749   8.891  66.210  1.00  0.00    -0.049 C  
ENDBRANCH  22  23
ENDBRANCH   9  16
ENDBRANCH   5   6
ENDBRANCH   4   5
ENDBRANCH   3   4
ENDBRANCH   2   3
TORSDOF 6
ENDMDL
MODEL      243
REMARK 921   NORMALIZED FREE ENERGY PREDICTED BY IDOCK:   -0.86 KCAL/MOL
REMARK 922        TOTAL FREE ENERGY PREDICTED BY IDOCK:   -2.10 KCAL/MOL
REMARK 923 INTER-LIGAND FREE ENERGY PREDICTED BY IDOCK:   -2.27 KCAL/MOL
REMARK 924 INTRA-LIGAND FREE ENERGY PREDICTED BY IDOCK:    0.17 KCAL/MOL
REMARK 927      BINDING AFFINITY PREDICTED BY RF-SCORE:    0.00 PKD
ROOT
HETATM    1  C   UNL     1     -10.562  10.988  64.373  1.00  0.00    -0.395 C  
HETATM    2  C   UNL     1     -10.720  10.001  65.517  1.00  0.00     0.372 C  
ENDROOT
BRANCH   2   3
HETATM    3  C   UNL     1      -9.382   9.735  66.208  1.00  0.00    -0.230 C  
BRANCH   3   4
HETATM    4  C   UNL     1      -9.250  10.569  67.476  1.00  0.00    -0.152 C  
BRANCH   4   5
HETATM    5  C   UNL     1     -10.122  10.017  68.603  1.00  0.00    -0.187 C  
BRANCH   5   6
HETATM    6  C   UNL     1      -9.569   8.709  69.117  1.00  0.00    -0.163 A  
HETATM    7  C   UNL     1      -8.192   8.530  69.243  1.00  0.00    -0.115 A  
HETATM    8  C   UNL     1      -7.673   7.301  69.654  1.00  0.00    -0.105 A  
HETATM    9  C   UNL     1      -8.499   6.191  69.920  1.00  0.00    -0.129 A  
HETATM   10  O   UNL     1      -6.315   7.199  69.792  1.00  0.00    -0.033 OA 
HETATM   11  H   UNL     1     -11.768   5.606  70.042  1.00  0.00     0.000 HD 
HETATM   12  H   UNL     1      -5.963   6.362  70.071  1.00  0.00     0.000 HD 
HETATM   13  C   UNL     1      -9.887   6.411  69.829  1.00  0.00    -0.165 A  
HETATM   14  O   UNL     1     -10.832   5.458  70.103  1.00  0.00    -0.281 OA 
HETATM   15  C   UNL     1     -10.415   7.649  69.448  1.00  0.00    -0.220 A  
BRANCH   9  16
HETATM   16  C   UNL     1      -7.910   4.841  70.359  1.00  0.00    -0.061 C  
HETATM   17  C   UNL     1      -8.398   4.508  71.745  1.00  0.00    -0.108 C  
HETATM   18  C   UNL     1      -7.614   4.416  72.826  1.00  0.00    -0.081 C  
HETATM   19  C   UNL     1      -6.132   4.618  72.760  1.00  0.00    -0.021 C  
HETATM   20  C   UNL     1      -8.186   4.177  74.196  1.00  0.00    -0.091 C  
HETATM   21  C   UNL     1      -5.472   4.624  71.378  1.00  0.00    -0.004 C  
HETATM   22  C   UNL     1      -6.366   4.725  70.120  1.00  0.00    -0.026 C  
BRANCH  22  23
HETATM   23  C   UNL     1      -6.016   3.650  69.075  1.00  0.00    -0.024 C  
HETATM   24  C   UNL     1      -5.383   2.520  69.432  1.00  0.00    -0.012 C  
HETATM   25  C   UNL     1      -6.408   3.864  67.640  1.00  0.00    -0.037 C  
ENDBRANCH  22  23
ENDBRANCH   9  16
ENDBRANCH   5   6
ENDBRANCH   4   5
ENDBRANCH   3   4
ENDBRANCH   2   3
TORSDOF 6
ENDMDL
MODEL      244
REMARK 921   NORMALIZED FREE ENERGY PREDICTED BY IDOCK:   -0.73 KCAL/MOL
REMARK 922        TOTAL FREE ENERGY PREDICTED BY IDOCK:   -1.92 KCAL/MOL
REMARK 923 INTER-LIGAND FREE ENERGY PREDICTED BY IDOCK:   -4.35 KCAL/MOL
REMARK 924 INTRA-LIGAND FREE ENERGY PREDICTED BY IDOCK:    2.43 KCAL/MOL
REMARK 927      BINDING AFFINITY PREDICTED BY RF-SCORE:    0.00 PKD
ROOT
HETATM    1  C   UNL     1     -10.722  10.941  64.137  1.00  0.00    -0.231 C  
HETATM    2  C   UNL     1     -10.381  10.227  65.433  1.00  0.00    -0.233 C  
ENDROOT
BRANCH   2   3
HETATM    3  C   UNL     1      -8.910   9.809  65.464  1.00  0.00    -0.192 C  
BRANCH   3   4
HETATM    4  C   UNL     1      -8.006  11.017  65.682  1.00  0.00     0.034 C  
BRANCH   4   5
HETATM    5  C   UNL     1      -8.618  12.000  66.679  1.00  0.00    -0.143 C  
BRANCH   5   6
HETATM    6  C   UNL     1      -9.184  11.271  67.874  1.00  0.00    -0.157 A  
HETATM    7  C   UNL     1      -8.397  10.359  68.578  1.00  0.00    -0.124 A  
HETATM    8  C   UNL     1      -8.936   9.633  69.641  1.00  0.00    -0.203 A  
HETATM    9  C   UNL     1     -10.286   9.756  70.023  1.00  0.00    -0.307 A  
HETATM   10  O   UNL     1      -8.103   8.780  70.314  1.00  0.00    -0.098 OA 
HETATM   11  H   UNL     1     -12.871  11.646  69.133  1.00  0.00     0.000 HD 
HETATM   12  H   UNL     1      -8.471   8.286  71.037  1.00  0.00     0.000 HD 
HETATM   13  C   UNL     1     -11.047  10.715  69.327  1.00  0.00    -0.252 A  
HETATM   14  O   UNL     1     -12.358  10.999  69.602  1.00  0.00    -0.321 OA 
HETATM   15  C   UNL     1     -10.504  11.468  68.280  1.00  0.00    -0.219 A  
BRANCH   9  16
HETATM   16  C   UNL     1     -10.867   8.939  71.189  1.00  0.00    -0.352 C  
HETATM   17  C   UNL     1     -10.000   7.731  71.435  1.00  0.00    -0.207 C  
HETATM   18  C   UNL     1     -10.395   6.464  71.261  1.00  0.00    -0.244 C  
HETATM   19  C   UNL     1     -11.780   6.110  70.814  1.00  0.00    -0.168 C  
HETATM   20  C   UNL     1      -9.443   5.312  71.432  1.00  0.00    -0.194 C  
HETATM   21  C   UNL     1     -12.847   7.208  70.856  1.00  0.00    -0.180 C  
HETATM   22  C   UNL     1     -12.406   8.675  71.062  1.00  0.00    -0.169 C  
BRANCH  22  23
HETATM   23  C   UNL     1     -13.211   9.370  72.176  1.00  0.00    -0.541 C  
HETATM   24  C   UNL     1     -13.801   8.655  73.149  1.00  0.00     0.447 C  
HETATM   25  C   UNL     1     -13.318  10.868  72.180  1.00  0.00    -0.294 C  
ENDBRANCH  22  23
ENDBRANCH   9  16
ENDBRANCH   5   6
ENDBRANCH   4   5
ENDBRANCH   3   4
ENDBRANCH   2   3
TORSDOF 6
ENDMDL
MODEL      245
REMARK 921   NORMALIZED FREE ENERGY PREDICTED BY IDOCK:   -0.04 KCAL/MOL
REMARK 922        TOTAL FREE ENERGY PREDICTED BY IDOCK:   -0.98 KCAL/MOL
REMARK 923 INTER-LIGAND FREE ENERGY PREDICTED BY IDOCK:   -1.95 KCAL/MOL
REMARK 924 INTRA-LIGAND FREE ENERGY PREDICTED BY IDOCK:    0.97 KCAL/MOL
REMARK 927      BINDING AFFINITY PREDICTED BY RF-SCORE:    0.00 PKD
ROOT
HETATM    1  C   UNL     1      -8.561  13.424  68.221  1.00  0.00    -0.169 C  
HETATM    2  C   UNL     1      -7.591  14.592  68.177  1.00  0.00    -0.125 C  
ENDROOT
BRANCH   2   3
HETATM    3  C   UNL     1      -6.147  14.118  68.351  1.00  0.00    -0.101 C  
BRANCH   3   4
HETATM    4  C   UNL     1      -6.013  12.642  67.998  1.00  0.00    -0.094 C  
BRANCH   4   5
HETATM    5  C   UNL     1      -6.680  11.753  69.048  1.00  0.00    -0.102 C  
BRANCH   5   6
HETATM    6  C   UNL     1      -6.785  10.329  68.557  1.00  0.00    -0.057 A  
HETATM    7  C   UNL     1      -7.800   9.965  67.672  1.00  0.00    -0.098 A  
HETATM    8  C   UNL     1      -7.941   8.636  67.268  1.00  0.00    -0.101 A  
HETATM    9  C   UNL     1      -7.105   7.612  67.755  1.00  0.00    -0.085 A  
HETATM   10  O   UNL     1      -8.934   8.348  66.371  1.00  0.00    -0.150 OA 
HETATM   11  H   UNL     1      -4.426   7.428  69.711  1.00  0.00     0.000 HD 
HETATM   12  H   UNL     1      -9.030   7.444  66.096  1.00  0.00     0.000 HD 
HETATM   13  C   UNL     1      -6.062   8.013  68.611  1.00  0.00    -0.044 A  
HETATM   14  O   UNL     1      -5.130   7.157  69.134  1.00  0.00    -0.014 OA 
HETATM   15  C   UNL     1      -5.895   9.347  68.996  1.00  0.00    -0.039 A  
BRANCH   9  16
HETATM   16  C   UNL     1      -7.284   6.152  67.309  1.00  0.00    -0.075 C  
HETATM   17  C   UNL     1      -7.401   6.097  65.808  1.00  0.00    -0.080 C  
HETATM   18  C   UNL     1      -8.496   5.706  65.144  1.00  0.00    -0.144 C  
HETATM   19  C   UNL     1      -9.739   5.253  65.845  1.00  0.00    -0.125 C  
HETATM   20  C   UNL     1      -8.572   5.771  63.644  1.00  0.00     0.154 C  
HETATM   21  C   UNL     1      -9.642   4.939  67.341  1.00  0.00    -0.175 C  
HETATM   22  C   UNL     1      -8.380   5.379  68.120  1.00  0.00    -0.098 C  
BRANCH  22  23
HETATM   23  C   UNL     1      -7.787   4.231  68.956  1.00  0.00    -0.061 C  
HETATM   24  C   UNL     1      -6.484   4.220  69.286  1.00  0.00    -0.036 C  
HETATM   25  C   UNL     1      -8.686   3.121  69.424  1.00  0.00    -0.130 C  
ENDBRANCH  22  23
ENDBRANCH   9  16
ENDBRANCH   5   6
ENDBRANCH   4   5
ENDBRANCH   3   4
ENDBRANCH   2   3
TORSDOF 6
ENDMDL
MODEL      246
REMARK 921   NORMALIZED FREE ENERGY PREDICTED BY IDOCK:    1.39 KCAL/MOL
REMARK 922        TOTAL FREE ENERGY PREDICTED BY IDOCK:    0.95 KCAL/MOL
REMARK 923 INTER-LIGAND FREE ENERGY PREDICTED BY IDOCK:   -1.03 KCAL/MOL
REMARK 924 INTRA-LIGAND FREE ENERGY PREDICTED BY IDOCK:    1.97 KCAL/MOL
REMARK 927      BINDING AFFINITY PREDICTED BY RF-SCORE:    0.00 PKD
ROOT
HETATM    1  C   UNL     1      -9.206  20.377  70.287  1.00  0.00     1.432 C  
HETATM    2  C   UNL     1      -7.920  20.590  69.507  1.00  0.00     1.134 C  
ENDROOT
BRANCH   2   3
HETATM    3  C   UNL     1      -6.693  20.290  70.369  1.00  0.00     0.064 C  
BRANCH   3   4
HETATM    4  C   UNL     1      -5.566  19.708  69.526  1.00  0.00    -0.249 C  
BRANCH   4   5
HETATM    5  C   UNL     1      -5.135  18.334  70.039  1.00  0.00    -0.207 C  
BRANCH   5   6
HETATM    6  C   UNL     1      -6.171  17.288  69.707  1.00  0.00    -0.199 A  
HETATM    7  C   UNL     1      -5.901  15.937  69.926  1.00  0.00    -0.159 A  
HETATM    8  C   UNL     1      -6.830  14.962  69.557  1.00  0.00    -0.172 A  
HETATM    9  C   UNL     1      -8.046  15.287  68.924  1.00  0.00    -0.180 A  
HETATM   10  O   UNL     1      -6.522  13.656  69.830  1.00  0.00    -0.256 OA 
HETATM   11  H   UNL     1      -9.648  18.077  68.093  1.00  0.00     0.000 HD 
HETATM   12  H   UNL     1      -7.154  12.993  69.580  1.00  0.00     0.000 HD 
HETATM   13  C   UNL     1      -8.314  16.659  68.756  1.00  0.00    -0.252 A  
HETATM   14  O   UNL     1      -9.468  17.151  68.206  1.00  0.00    -0.258 OA 
HETATM   15  C   UNL     1      -7.401  17.642  69.150  1.00  0.00    -0.122 A  
BRANCH   9  16
HETATM   16  C   UNL     1      -9.051  14.199  68.514  1.00  0.00    -0.176 C  
HETATM   17  C   UNL     1      -8.370  12.855  68.530  1.00  0.00    -0.054 C  
HETATM   18  C   UNL     1      -8.163  12.095  67.448  1.00  0.00    -0.175 C  
HETATM   19  C   UNL     1      -8.617  12.505  66.081  1.00  0.00     0.345 C  
HETATM   20  C   UNL     1      -7.388  10.808  67.526  1.00  0.00    -0.092 C  
HETATM   21  C   UNL     1      -9.607  13.669  65.976  1.00  0.00    -0.186 C  
HETATM   22  C   UNL     1      -9.861  14.552  67.219  1.00  0.00    -0.236 C  
BRANCH  22  23
HETATM   23  C   UNL     1     -11.363  14.733  67.502  1.00  0.00    -0.355 C  
HETATM   24  C   UNL     1     -11.787  15.304  68.643  1.00  0.00    -0.329 C  
HETATM   25  C   UNL     1     -12.365  14.283  66.477  1.00  0.00    -0.345 C  
ENDBRANCH  22  23
ENDBRANCH   9  16
ENDBRANCH   5   6
ENDBRANCH   4   5
ENDBRANCH   3   4
ENDBRANCH   2   3
TORSDOF 6
ENDMDL
MODEL      247
REMARK 921   NORMALIZED FREE ENERGY PREDICTED BY IDOCK:    2.12 KCAL/MOL
REMARK 922        TOTAL FREE ENERGY PREDICTED BY IDOCK:    1.94 KCAL/MOL
REMARK 923 INTER-LIGAND FREE ENERGY PREDICTED BY IDOCK:   -1.54 KCAL/MOL
REMARK 924 INTRA-LIGAND FREE ENERGY PREDICTED BY IDOCK:    3.48 KCAL/MOL
REMARK 927      BINDING AFFINITY PREDICTED BY RF-SCORE:    0.00 PKD
ROOT
HETATM    1  C   UNL     1      -8.428  13.796  68.822  1.00  0.00     0.026 C  
HETATM    2  C   UNL     1      -7.602  15.038  69.110  1.00  0.00    -0.176 C  
ENDROOT
BRANCH   2   3
HETATM    3  C   UNL     1      -6.213  14.669  69.632  1.00  0.00    -0.133 C  
BRANCH   3   4
HETATM    4  C   UNL     1      -5.821  13.264  69.191  1.00  0.00    -0.080 C  
BRANCH   4   5
HETATM    5  C   UNL     1      -7.009  12.305  69.259  1.00  0.00     0.004 C  
BRANCH   5   6
HETATM    6  C   UNL     1      -6.710  11.026  68.515  1.00  0.00    -0.061 A  
HETATM    7  C   UNL     1      -6.676  11.016  67.121  1.00  0.00    -0.096 A  
HETATM    8  C   UNL     1      -6.466   9.823  66.427  1.00  0.00    -0.071 A  
HETATM    9  C   UNL     1      -6.318   8.588  67.089  1.00  0.00    -0.057 A  
HETATM   10  O   UNL     1      -6.408   9.885  65.061  1.00  0.00    -0.090 OA 
HETATM   11  H   UNL     1      -6.123   7.564  70.244  1.00  0.00     0.000 HD 
HETATM   12  H   UNL     1      -6.265   9.073  64.589  1.00  0.00     0.000 HD 
HETATM   13  C   UNL     1      -6.311   8.632  68.496  1.00  0.00    -0.054 A  
HETATM   14  O   UNL     1      -6.128   7.534  69.295  1.00  0.00    -0.029 OA 
HETATM   15  C   UNL     1      -6.490   9.829  69.198  1.00  0.00    -0.044 A  
BRANCH   9  16
HETATM   16  C   UNL     1      -6.100   7.282  66.308  1.00  0.00    -0.037 C  
HETATM   17  C   UNL     1      -5.523   7.598  64.953  1.00  0.00    -0.033 C  
HETATM   18  C   UNL     1      -6.147   7.376  63.790  1.00  0.00    -0.048 C  
HETATM   19  C   UNL     1      -7.507   6.756  63.716  1.00  0.00    -0.091 C  
HETATM   20  C   UNL     1      -5.548   7.809  62.480  1.00  0.00    -0.059 C  
HETATM   21  C   UNL     1      -8.056   6.084  64.978  1.00  0.00    -0.133 C  
HETATM   22  C   UNL     1      -7.342   6.327  66.328  1.00  0.00    -0.081 C  
BRANCH  22  23
HETATM   23  C   UNL     1      -7.054   5.012  67.075  1.00  0.00    -0.072 C  
HETATM   24  C   UNL     1      -6.171   4.972  68.087  1.00  0.00    -0.035 C  
HETATM   25  C   UNL     1      -7.789   3.763  66.676  1.00  0.00    -0.088 C  
ENDBRANCH  22  23
ENDBRANCH   9  16
ENDBRANCH   5   6
ENDBRANCH   4   5
ENDBRANCH   3   4
ENDBRANCH   2   3
TORSDOF 6
ENDMDL
MODEL      248
REMARK 921   NORMALIZED FREE ENERGY PREDICTED BY IDOCK:    2.15 KCAL/MOL
REMARK 922        TOTAL FREE ENERGY PREDICTED BY IDOCK:    1.97 KCAL/MOL
REMARK 923 INTER-LIGAND FREE ENERGY PREDICTED BY IDOCK:    0.21 KCAL/MOL
REMARK 924 INTRA-LIGAND FREE ENERGY PREDICTED BY IDOCK:    1.76 KCAL/MOL
REMARK 927      BINDING AFFINITY PREDICTED BY RF-SCORE:    0.00 PKD
ROOT
HETATM    1  C   UNL     1     -13.885  11.529  72.658  1.00  0.00     1.009 C  
HETATM    2  C   UNL     1     -13.888  10.118  72.096  1.00  0.00    -0.047 C  
ENDROOT
BRANCH   2   3
HETATM    3  C   UNL     1     -12.663   9.332  72.565  1.00  0.00    -0.310 C  
BRANCH   3   4
HETATM    4  C   UNL     1     -12.648   7.934  71.958  1.00  0.00    -0.327 C  
BRANCH   4   5
HETATM    5  C   UNL     1     -12.832   7.981  70.441  1.00  0.00     0.845 C  
BRANCH   5   6
HETATM    6  C   UNL     1     -11.899   8.992  69.819  1.00  0.00     0.516 A  
HETATM    7  C   UNL     1     -10.658   8.591  69.324  1.00  0.00    -0.193 A  
HETATM    8  C   UNL     1      -9.764   9.533  68.810  1.00  0.00    -0.159 A  
HETATM    9  C   UNL     1     -10.053  10.912  68.801  1.00  0.00    -0.205 A  
HETATM   10  O   UNL     1      -8.578   9.073  68.307  1.00  0.00    -0.128 OA 
HETATM   11  H   UNL     1     -12.653  12.825  69.589  1.00  0.00     0.000 HD 
HETATM   12  H   UNL     1      -7.970   9.714  67.957  1.00  0.00     0.000 HD 
HETATM   13  C   UNL     1     -11.329  11.285  69.264  1.00  0.00    -0.287 A  
HETATM   14  O   UNL     1     -11.792  12.574  69.277  1.00  0.00    -0.304 OA 
HETATM   15  C   UNL     1     -12.241  10.343  69.753  1.00  0.00    -0.166 A  
BRANCH   9  16
HETATM   16  C   UNL     1      -9.053  11.936  68.241  1.00  0.00    -0.183 C  
HETATM   17  C   UNL     1      -9.773  12.893  67.327  1.00  0.00    -0.220 C  
HETATM   18  C   UNL     1      -9.554  12.997  66.010  1.00  0.00    -0.175 C  
HETATM   19  C   UNL     1      -8.530  12.167  65.300  1.00  0.00     1.198 C  
HETATM   20  C   UNL     1     -10.381  13.907  65.145  1.00  0.00    -0.403 C  
HETATM   21  C   UNL     1      -7.506  11.410  66.152  1.00  0.00     0.120 C  
HETATM   22  C   UNL     1      -7.743  11.287  67.675  1.00  0.00    -0.115 C  
BRANCH  22  23
HETATM   23  C   UNL     1      -6.497  11.682  68.488  1.00  0.00    -0.055 C  
HETATM   24  C   UNL     1      -6.485  11.576  69.828  1.00  0.00    -0.125 C  
HETATM   25  C   UNL     1      -5.274  12.175  67.767  1.00  0.00    -0.074 C  
ENDBRANCH  22  23
ENDBRANCH   9  16
ENDBRANCH   5   6
ENDBRANCH   4   5
ENDBRANCH   3   4
ENDBRANCH   2   3
TORSDOF 6
ENDMDL
MODEL      249
REMARK 921   NORMALIZED FREE ENERGY PREDICTED BY IDOCK:    2.97 KCAL/MOL
REMARK 922        TOTAL FREE ENERGY PREDICTED BY IDOCK:    3.09 KCAL/MOL
REMARK 923 INTER-LIGAND FREE ENERGY PREDICTED BY IDOCK:    1.36 KCAL/MOL
REMARK 924 INTRA-LIGAND FREE ENERGY PREDICTED BY IDOCK:    1.72 KCAL/MOL
REMARK 927      BINDING AFFINITY PREDICTED BY RF-SCORE:    0.00 PKD
ROOT
HETATM    1  C   UNL     1      -8.482  13.800  68.945  1.00  0.00     0.129 C  
HETATM    2  C   UNL     1      -7.609  15.019  69.190  1.00  0.00    -0.176 C  
ENDROOT
BRANCH   2   3
HETATM    3  C   UNL     1      -6.342  14.647  69.960  1.00  0.00    -0.165 C  
BRANCH   3   4
HETATM    4  C   UNL     1      -6.200  13.134  70.076  1.00  0.00    -0.073 C  
BRANCH   4   5
HETATM    5  C   UNL     1      -7.553  12.462  70.315  1.00  0.00     2.764 C  
BRANCH   5   6
HETATM    6  C   UNL     1      -7.478  10.984  70.014  1.00  0.00     0.458 A  
HETATM    7  C   UNL     1      -6.368  10.241  70.416  1.00  0.00    -0.127 A  
HETATM    8  C   UNL     1      -6.263   8.890  70.081  1.00  0.00    -0.037 A  
HETATM    9  C   UNL     1      -7.238   8.233  69.304  1.00  0.00    -0.064 A  
HETATM   10  O   UNL     1      -5.167   8.207  70.535  1.00  0.00    -0.023 OA 
HETATM   11  H   UNL     1     -10.194   9.012  68.003  1.00  0.00     0.000 HD 
HETATM   12  H   UNL     1      -5.097   7.287  70.308  1.00  0.00     0.000 HD 
HETATM   13  C   UNL     1      -8.369   8.993  68.950  1.00  0.00    -0.125 A  
HETATM   14  O   UNL     1      -9.431   8.499  68.242  1.00  0.00    -0.134 OA 
HETATM   15  C   UNL     1      -8.494  10.340  69.308  1.00  0.00    -0.172 A  
BRANCH   9  16
HETATM   16  C   UNL     1      -7.100   6.747  68.935  1.00  0.00    -0.089 C  
HETATM   17  C   UNL     1      -6.833   6.621  67.458  1.00  0.00    -0.076 C  
HETATM   18  C   UNL     1      -7.666   6.047  66.580  1.00  0.00    -0.103 C  
HETATM   19  C   UNL     1      -8.970   5.439  66.994  1.00  0.00    -0.112 C  
HETATM   20  C   UNL     1      -7.375   6.045  65.105  1.00  0.00    -0.073 C  
HETATM   21  C   UNL     1      -9.206   5.199  68.488  1.00  0.00    -0.145 C  
HETATM   22  C   UNL     1      -8.248   5.850  69.512  1.00  0.00    -0.113 C  
BRANCH  22  23
HETATM   23  C   UNL     1      -7.731   4.835  70.547  1.00  0.00    -0.058 C  
HETATM   24  C   UNL     1      -6.966   5.230  71.579  1.00  0.00    -0.065 C  
HETATM   25  C   UNL     1      -8.107   3.387  70.408  1.00  0.00    -0.057 C  
ENDBRANCH  22  23
ENDBRANCH   9  16
ENDBRANCH   5   6
ENDBRANCH   4   5
ENDBRANCH   3   4
ENDBRANCH   2   3
TORSDOF 6
ENDMDL
MODEL      250
REMARK 921   NORMALIZED FREE ENERGY PREDICTED BY IDOCK:    3.51 KCAL/MOL
REMARK 922        TOTAL FREE ENERGY PREDICTED BY IDOCK:    3.81 KCAL/MOL
REMARK 923 INTER-LIGAND FREE ENERGY PREDICTED BY IDOCK:    1.98 KCAL/MOL
REMARK 924 INTRA-LIGAND FREE ENERGY PREDICTED BY IDOCK:    1.83 KCAL/MOL
REMARK 927      BINDING AFFINITY PREDICTED BY RF-SCORE:    0.00 PKD
ROOT
HETATM    1  C   UNL     1      -8.482  13.800  68.945  1.00  0.00     0.129 C  
HETATM    2  C   UNL     1      -7.609  15.019  69.190  1.00  0.00    -0.176 C  
ENDROOT
BRANCH   2   3
HETATM    3  C   UNL     1      -6.342  14.647  69.960  1.00  0.00    -0.165 C  
BRANCH   3   4
HETATM    4  C   UNL     1      -6.200  13.134  70.076  1.00  0.00    -0.073 C  
BRANCH   4   5
HETATM    5  C   UNL     1      -7.553  12.462  70.315  1.00  0.00     2.764 C  
BRANCH   5   6
HETATM    6  C   UNL     1      -7.478  10.984  70.014  1.00  0.00     0.458 A  
HETATM    7  C   UNL     1      -8.054  10.474  68.851  1.00  0.00    -0.138 A  
HETATM    8  C   UNL     1      -8.046   9.100  68.602  1.00  0.00    -0.102 A  
HETATM    9  C   UNL     1      -7.499   8.177  69.515  1.00  0.00    -0.087 A  
HETATM   10  O   UNL     1      -8.596   8.665  67.427  1.00  0.00    -0.131 OA 
HETATM   11  H   UNL     1      -5.845   8.340  72.393  1.00  0.00     0.000 HD 
HETATM   12  H   UNL     1      -8.590   7.730  67.258  1.00  0.00     0.000 HD 
HETATM   13  C   UNL     1      -6.884   8.721  70.659  1.00  0.00    -0.050 A  
HETATM   14  O   UNL     1      -6.260   7.973  71.622  1.00  0.00    -0.038 OA 
HETATM   15  C   UNL     1      -6.861  10.099  70.900  1.00  0.00     0.201 A  
BRANCH   9  16
HETATM   16  C   UNL     1      -7.510   6.667  69.231  1.00  0.00    -0.095 C  
HETATM   17  C   UNL     1      -8.464   5.985  70.177  1.00  0.00    -0.127 C  
HETATM   18  C   UNL     1      -8.103   5.103  71.117  1.00  0.00    -0.108 C  
HETATM   19  C   UNL     1      -6.681   4.677  71.313  1.00  0.00    -0.034 C  
HETATM   20  C   UNL     1      -9.100   4.537  72.090  1.00  0.00    -0.153 C  
HETATM   21  C   UNL     1      -5.672   5.027  70.214  1.00  0.00    -0.016 C  
HETATM   22  C   UNL     1      -6.077   6.041  69.119  1.00  0.00    -0.029 C  
BRANCH  22  23
HETATM   23  C   UNL     1      -5.780   5.512  67.704  1.00  0.00    -0.013 C  
HETATM   24  C   UNL     1      -5.970   6.289  66.623  1.00  0.00    -0.025 C  
HETATM   25  C   UNL     1      -5.252   4.116  67.536  1.00  0.00    -0.011 C  
ENDBRANCH  22  23
ENDBRANCH   9  16
ENDBRANCH   5   6
ENDBRANCH   4   5
ENDBRANCH   3   4
ENDBRANCH   2   3
TORSDOF 6
ENDMDL
MODEL      251
REMARK 921   NORMALIZED FREE ENERGY PREDICTED BY IDOCK:    4.01 KCAL/MOL
REMARK 922        TOTAL FREE ENERGY PREDICTED BY IDOCK:    4.49 KCAL/MOL
REMARK 923 INTER-LIGAND FREE ENERGY PREDICTED BY IDOCK:    1.27 KCAL/MOL
REMARK 924 INTRA-LIGAND FREE ENERGY PREDICTED BY IDOCK:    3.22 KCAL/MOL
REMARK 927      BINDING AFFINITY PREDICTED BY RF-SCORE:    0.00 PKD
ROOT
HETATM    1  C   UNL     1      -7.388   9.991  64.481  1.00  0.00    -0.142 C  
HETATM    2  C   UNL     1      -5.995   9.700  65.013  1.00  0.00    -0.075 C  
ENDROOT
BRANCH   2   3
HETATM    3  C   UNL     1      -5.887   8.263  65.525  1.00  0.00    -0.044 C  
BRANCH   3   4
HETATM    4  C   UNL     1      -5.503   8.239  66.999  1.00  0.00    -0.037 C  
BRANCH   4   5
HETATM    5  C   UNL     1      -5.587   9.632  67.622  1.00  0.00    -0.036 C  
BRANCH   5   6
HETATM    6  C   UNL     1      -7.016   9.986  67.955  1.00  0.00    -0.084 A  
HETATM    7  C   UNL     1      -7.989   9.991  66.956  1.00  0.00    -0.106 A  
HETATM    8  C   UNL     1      -9.298  10.382  67.245  1.00  0.00    -0.146 A  
HETATM    9  C   UNL     1      -9.682  10.819  68.528  1.00  0.00    -0.184 A  
HETATM   10  O   UNL     1     -10.214  10.332  66.230  1.00  0.00    -0.231 OA 
HETATM   11  H   UNL     1      -8.242  11.060  71.513  1.00  0.00     0.000 HD 
HETATM   12  H   UNL     1     -11.105  10.598  66.427  1.00  0.00     0.000 HD 
HETATM   13  C   UNL     1      -8.693  10.761  69.529  1.00  0.00     0.147 A  
HETATM   14  O   UNL     1      -8.909  11.099  70.838  1.00  0.00     3.460 OA 
HETATM   15  C   UNL     1      -7.388  10.341  69.252  1.00  0.00    -0.099 A  
BRANCH   9  16
HETATM   16  C   UNL     1     -11.125  11.258  68.826  1.00  0.00    -0.288 C  
HETATM   17  C   UNL     1     -11.539  12.320  67.841  1.00  0.00    -0.416 C  
HETATM   18  C   UNL     1     -11.822  13.588  68.163  1.00  0.00    -0.400 C  
HETATM   19  C   UNL     1     -11.776  14.085  69.575  1.00  0.00    -0.367 C  
HETATM   20  C   UNL     1     -12.134  14.617  67.112  1.00  0.00    -0.218 C  
HETATM   21  C   UNL     1     -11.703  13.045  70.697  1.00  0.00     0.130 C  
HETATM   22  C   UNL     1     -11.382  11.576  70.339  1.00  0.00     0.111 C  
BRANCH  22  23
HETATM   23  C   UNL     1     -12.379  10.594  70.980  1.00  0.00    -0.507 C  
HETATM   24  C   UNL     1     -12.872   9.556  70.282  1.00  0.00     0.440 C  
HETATM   25  C   UNL     1     -12.787  10.790  72.413  1.00  0.00     0.362 C  
ENDBRANCH  22  23
ENDBRANCH   9  16
ENDBRANCH   5   6
ENDBRANCH   4   5
ENDBRANCH   3   4
ENDBRANCH   2   3
TORSDOF 6
ENDMDL
MODEL      252
REMARK 921   NORMALIZED FREE ENERGY PREDICTED BY IDOCK:    4.84 KCAL/MOL
REMARK 922        TOTAL FREE ENERGY PREDICTED BY IDOCK:    5.60 KCAL/MOL
REMARK 923 INTER-LIGAND FREE ENERGY PREDICTED BY IDOCK:    6.45 KCAL/MOL
REMARK 924 INTRA-LIGAND FREE ENERGY PREDICTED BY IDOCK:   -0.85 KCAL/MOL
REMARK 927      BINDING AFFINITY PREDICTED BY RF-SCORE:    0.00 PKD
ROOT
HETATM    1  C   UNL     1     -13.304  13.087  73.147  1.00  0.00     1.501 C  
HETATM    2  C   UNL     1     -13.324  14.127  72.040  1.00  0.00    -0.502 C  
ENDROOT
BRANCH   2   3
HETATM    3  C   UNL     1     -12.321  13.780  70.938  1.00  0.00    -0.456 C  
BRANCH   3   4
HETATM    4  C   UNL     1     -11.991  12.293  70.952  1.00  0.00     0.032 C  
BRANCH   4   5
HETATM    5  C   UNL     1     -12.560  11.582  69.724  1.00  0.00    -0.006 C  
BRANCH   5   6
HETATM    6  C   UNL     1     -11.466  11.262  68.735  1.00  0.00    -0.359 A  
HETATM    7  C   UNL     1     -10.140  11.582  69.026  1.00  0.00    -0.075 A  
HETATM    8  C   UNL     1      -9.134  11.350  68.086  1.00  0.00    -0.174 A  
HETATM    9  C   UNL     1      -9.410  10.825  66.808  1.00  0.00    -0.182 A  
HETATM   10  O   UNL     1      -7.848  11.653  68.445  1.00  0.00    -0.124 OA 
HETATM   11  H   UNL     1     -12.084   9.659  65.218  1.00  0.00     0.000 HD 
HETATM   12  H   UNL     1      -7.164  11.494  67.805  1.00  0.00     0.000 HD 
HETATM   13  C   UNL     1     -10.748  10.469  66.556  1.00  0.00    -0.121 A  
HETATM   14  O   UNL     1     -11.181   9.900  65.388  1.00  0.00     1.272 OA 
HETATM   15  C   UNL     1     -11.756  10.671  67.504  1.00  0.00     0.356 A  
BRANCH   9  16
HETATM   16  C   UNL     1      -8.291  10.587  65.781  1.00  0.00    -0.166 C  
HETATM   17  C   UNL     1      -8.319  11.682  64.746  1.00  0.00     1.001 C  
HETATM   18  C   UNL     1      -8.599  11.497  63.450  1.00  0.00     0.442 C  
HETATM   19  C   UNL     1      -8.899  10.145  62.881  1.00  0.00    -0.231 C  
HETATM   20  C   UNL     1      -8.705  12.653  62.495  1.00  0.00     4.645 C  
HETATM   21  C   UNL     1      -8.574   8.919  63.739  1.00  0.00    -0.105 C  
HETATM   22  C   UNL     1      -8.243   9.119  65.237  1.00  0.00    -0.135 C  
BRANCH  22  23
HETATM   23  C   UNL     1      -6.953   8.386  65.646  1.00  0.00    -0.067 C  
HETATM   24  C   UNL     1      -6.280   7.628  64.763  1.00  0.00    -0.038 C  
HETATM   25  C   UNL     1      -6.432   8.540  67.047  1.00  0.00    -0.057 C  
ENDBRANCH  22  23
ENDBRANCH   9  16
ENDBRANCH   5   6
ENDBRANCH   4   5
ENDBRANCH   3   4
ENDBRANCH   2   3
TORSDOF 6
ENDMDL
MODEL      253
REMARK 921   NORMALIZED FREE ENERGY PREDICTED BY IDOCK:    5.03 KCAL/MOL
REMARK 922        TOTAL FREE ENERGY PREDICTED BY IDOCK:    5.86 KCAL/MOL
REMARK 923 INTER-LIGAND FREE ENERGY PREDICTED BY IDOCK:    2.44 KCAL/MOL
REMARK 924 INTRA-LIGAND FREE ENERGY PREDICTED BY IDOCK:    3.42 KCAL/MOL
REMARK 927      BINDING AFFINITY PREDICTED BY RF-SCORE:    0.00 PKD
ROOT
HETATM    1  C   UNL     1      -5.760  18.368  66.624  1.00  0.00    -0.174 C  
HETATM    2  C   UNL     1      -6.070  19.667  67.349  1.00  0.00    -0.204 C  
ENDROOT
BRANCH   2   3
HETATM    3  C   UNL     1      -6.022  19.480  68.865  1.00  0.00    -0.267 C  
BRANCH   3   4
HETATM    4  C   UNL     1      -7.425  19.506  69.461  1.00  0.00    -0.104 C  
BRANCH   4   5
HETATM    5  C   UNL     1      -7.698  18.261  70.304  1.00  0.00     2.262 C  
BRANCH   5   6
HETATM    6  C   UNL     1      -7.713  17.022  69.441  1.00  0.00     0.132 A  
HETATM    7  C   UNL     1      -7.425  17.110  68.079  1.00  0.00    -0.197 A  
HETATM    8  C   UNL     1      -7.504  15.979  67.265  1.00  0.00    -0.201 A  
HETATM    9  C   UNL     1      -7.906  14.724  67.763  1.00  0.00    -0.163 A  
HETATM   10  O   UNL     1      -7.175  16.124  65.944  1.00  0.00     0.392 OA 
HETATM   11  H   UNL     1      -8.658  13.453  70.740  1.00  0.00     0.000 HD 
HETATM   12  H   UNL     1      -7.228  15.354  65.390  1.00  0.00     0.000 HD 
HETATM   13  C   UNL     1      -8.146  14.652  69.149  1.00  0.00    -0.078 A  
HETATM   14  O   UNL     1      -8.496  13.502  69.805  1.00  0.00     1.248 OA 
HETATM   15  C   UNL     1      -8.040  15.775  69.976  1.00  0.00     0.554 A  
BRANCH   9  16
HETATM   16  C   UNL     1      -7.998  13.492  66.850  1.00  0.00     0.171 C  
HETATM   17  C   UNL     1      -9.061  13.720  65.806  1.00  0.00     0.468 C  
HETATM   18  C   UNL     1     -10.195  13.016  65.709  1.00  0.00    -0.297 C  
HETATM   19  C   UNL     1     -10.520  11.888  66.639  1.00  0.00    -0.250 C  
HETATM   20  C   UNL     1     -11.255  13.365  64.701  1.00  0.00    -0.377 C  
HETATM   21  C   UNL     1      -9.392  11.337  67.516  1.00  0.00    -0.166 C  
HETATM   22  C   UNL     1      -8.074  12.137  67.633  1.00  0.00    -0.158 C  
BRANCH  22  23
HETATM   23  C   UNL     1      -6.838  11.252  67.391  1.00  0.00    -0.096 C  
HETATM   24  C   UNL     1      -6.247  10.598  68.405  1.00  0.00    -0.050 C  
HETATM   25  C   UNL     1      -6.299  11.107  65.995  1.00  0.00    -0.004 C  
ENDBRANCH  22  23
ENDBRANCH   9  16
ENDBRANCH   5   6
ENDBRANCH   4   5
ENDBRANCH   3   4
ENDBRANCH   2   3
TORSDOF 6
ENDMDL
MODEL      254
REMARK 921   NORMALIZED FREE ENERGY PREDICTED BY IDOCK:    6.46 KCAL/MOL
REMARK 922        TOTAL FREE ENERGY PREDICTED BY IDOCK:    7.79 KCAL/MOL
REMARK 923 INTER-LIGAND FREE ENERGY PREDICTED BY IDOCK:    6.50 KCAL/MOL
REMARK 924 INTRA-LIGAND FREE ENERGY PREDICTED BY IDOCK:    1.29 KCAL/MOL
REMARK 927      BINDING AFFINITY PREDICTED BY RF-SCORE:    0.00 PKD
ROOT
HETATM    1  C   UNL     1     -13.258  12.390  73.806  1.00  0.00     7.873 C  
HETATM    2  C   UNL     1     -13.110  12.402  72.294  1.00  0.00    -0.302 C  
ENDROOT
BRANCH   2   3
HETATM    3  C   UNL     1     -11.798  11.748  71.861  1.00  0.00     2.109 C  
BRANCH   3   4
HETATM    4  C   UNL     1     -11.673  11.733  70.343  1.00  0.00    -0.253 C  
BRANCH   4   5
HETATM    5  C   UNL     1     -12.419  12.907  69.708  1.00  0.00     0.027 C  
BRANCH   5   6
HETATM    6  C   UNL     1     -11.450  13.905  69.123  1.00  0.00    -0.345 A  
HETATM    7  C   UNL     1     -10.114  13.906  69.524  1.00  0.00     0.448 A  
HETATM    8  C   UNL     1      -9.229  14.870  69.036  1.00  0.00    -0.176 A  
HETATM    9  C   UNL     1      -9.645  15.892  68.161  1.00  0.00    -0.208 A  
HETATM   10  O   UNL     1      -7.924  14.795  69.440  1.00  0.00    -0.304 OA 
HETATM   11  H   UNL     1     -12.446  16.693  66.563  1.00  0.00     0.000 HD 
HETATM   12  H   UNL     1      -7.322  15.451  69.108  1.00  0.00     0.000 HD 
HETATM   13  C   UNL     1     -10.987  15.843  67.736  1.00  0.00    -0.315 A  
HETATM   14  O   UNL     1     -11.541  16.727  66.849  1.00  0.00     0.626 OA 
HETATM   15  C   UNL     1     -11.870  14.861  68.197  1.00  0.00    -0.307 A  
BRANCH   9  16
HETATM   16  C   UNL     1      -8.660  16.953  67.643  1.00  0.00    -0.212 C  
HETATM   17  C   UNL     1      -7.282  16.662  68.180  1.00  0.00    -0.160 C  
HETATM   18  C   UNL     1      -6.613  17.454  69.026  1.00  0.00    -0.232 C  
HETATM   19  C   UNL     1      -7.172  18.753  69.520  1.00  0.00     0.012 C  
HETATM   20  C   UNL     1      -5.281  17.050  69.596  1.00  0.00    -0.156 C  
HETATM   21  C   UNL     1      -8.397  19.324  68.799  1.00  0.00    -0.386 C  
HETATM   22  C   UNL     1      -9.177  18.422  67.815  1.00  0.00    -0.287 C  
BRANCH  22  23
HETATM   23  C   UNL     1      -9.420  19.117  66.463  1.00  0.00    -0.395 C  
HETATM   24  C   UNL     1     -10.661  19.238  65.963  1.00  0.00    -0.477 C  
HETATM   25  C   UNL     1      -8.252  19.684  65.706  1.00  0.00    -0.074 C  
ENDBRANCH  22  23
ENDBRANCH   9  16
ENDBRANCH   5   6
ENDBRANCH   4   5
ENDBRANCH   3   4
ENDBRANCH   2   3
TORSDOF 6
ENDMDL
MODEL      255
REMARK 921   NORMALIZED FREE ENERGY PREDICTED BY IDOCK:    6.81 KCAL/MOL
REMARK 922        TOTAL FREE ENERGY PREDICTED BY IDOCK:    8.27 KCAL/MOL
REMARK 923 INTER-LIGAND FREE ENERGY PREDICTED BY IDOCK:    6.64 KCAL/MOL
REMARK 924 INTRA-LIGAND FREE ENERGY PREDICTED BY IDOCK:    1.63 KCAL/MOL
REMARK 927      BINDING AFFINITY PREDICTED BY RF-SCORE:    0.00 PKD
ROOT
HETATM    1  C   UNL     1      -5.782  18.358  66.616  1.00  0.00    -0.174 C  
HETATM    2  C   UNL     1      -5.943  19.729  67.249  1.00  0.00    -0.193 C  
ENDROOT
BRANCH   2   3
HETATM    3  C   UNL     1      -5.853  19.650  68.773  1.00  0.00    -0.258 C  
BRANCH   3   4
HETATM    4  C   UNL     1      -7.172  20.058  69.418  1.00  0.00    -0.128 C  
BRANCH   4   5
HETATM    5  C   UNL     1      -7.652  19.010  70.422  1.00  0.00     1.551 C  
BRANCH   5   6
HETATM    6  C   UNL     1      -8.230  17.810  69.711  1.00  0.00     1.269 A  
HETATM    7  C   UNL     1      -8.274  17.773  68.318  1.00  0.00    -0.285 A  
HETATM    8  C   UNL     1      -8.868  16.696  67.657  1.00  0.00    -0.201 A  
HETATM    9  C   UNL     1      -9.475  15.633  68.355  1.00  0.00    -0.196 A  
HETATM   10  O   UNL     1      -8.847  16.702  66.289  1.00  0.00    -0.279 OA 
HETATM   11  H   UNL     1      -9.802  14.724  71.534  1.00  0.00     0.000 HD 
HETATM   12  H   UNL     1      -9.252  15.968  65.840  1.00  0.00     0.000 HD 
HETATM   13  C   UNL     1      -9.378  15.673  69.759  1.00  0.00    -0.116 A  
HETATM   14  O   UNL     1      -9.868  14.698  70.587  1.00  0.00     0.824 OA 
HETATM   15  C   UNL     1      -8.757  16.734  70.426  1.00  0.00     2.973 A  
BRANCH   9  16
HETATM   16  C   UNL     1     -10.137  14.462  67.611  1.00  0.00    -0.222 C  
HETATM   17  C   UNL     1      -9.873  14.593  66.134  1.00  0.00    -0.334 C  
HETATM   18  C   UNL     1     -10.816  14.806  65.208  1.00  0.00    -0.395 C  
HETATM   19  C   UNL     1     -12.268  14.917  65.556  1.00  0.00     0.021 C  
HETATM   20  C   UNL     1     -10.466  15.024  63.762  1.00  0.00     2.948 C  
HETATM   21  C   UNL     1     -12.705  14.471  66.955  1.00  0.00     0.621 C  
HETATM   22  C   UNL     1     -11.626  14.215  68.032  1.00  0.00    -0.368 C  
BRANCH  22  23
HETATM   23  C   UNL     1     -11.818  12.857  68.731  1.00  0.00    -0.353 C  
HETATM   24  C   UNL     1     -12.592  12.748  69.825  1.00  0.00     0.227 C  
HETATM   25  C   UNL     1     -11.143  11.638  68.169  1.00  0.00    -0.298 C  
ENDBRANCH  22  23
ENDBRANCH   9  16
ENDBRANCH   5   6
ENDBRANCH   4   5
ENDBRANCH   3   4
ENDBRANCH   2   3
TORSDOF 6
ENDMDL
MODEL      256
REMARK 921   NORMALIZED FREE ENERGY PREDICTED BY IDOCK:    7.91 KCAL/MOL
REMARK 922        TOTAL FREE ENERGY PREDICTED BY IDOCK:    9.76 KCAL/MOL
REMARK 923 INTER-LIGAND FREE ENERGY PREDICTED BY IDOCK:    3.44 KCAL/MOL
REMARK 924 INTRA-LIGAND FREE ENERGY PREDICTED BY IDOCK:    6.32 KCAL/MOL
REMARK 927      BINDING AFFINITY PREDICTED BY RF-SCORE:    0.00 PKD
ROOT
HETATM    1  C   UNL     1      -7.376   9.996  64.528  1.00  0.00    -0.142 C  
HETATM    2  C   UNL     1      -5.953   9.635  64.916  1.00  0.00    -0.081 C  
ENDROOT
BRANCH   2   3
HETATM    3  C   UNL     1      -5.839   8.158  65.291  1.00  0.00    -0.044 C  
BRANCH   3   4
HETATM    4  C   UNL     1      -5.284   7.996  66.701  1.00  0.00    -0.028 C  
BRANCH   4   5
HETATM    5  C   UNL     1      -5.128   9.347  67.400  1.00  0.00    -0.036 C  
BRANCH   5   6
HETATM    6  C   UNL     1      -6.475   9.920  67.765  1.00  0.00    -0.063 A  
HETATM    7  C   UNL     1      -7.402  10.226  66.769  1.00  0.00    -0.106 A  
HETATM    8  C   UNL     1      -8.623  10.819  67.098  1.00  0.00    -0.128 A  
HETATM    9  C   UNL     1      -8.955  11.164  68.422  1.00  0.00    -0.165 A  
HETATM   10  O   UNL     1      -9.504  11.062  66.079  1.00  0.00    -0.192 OA 
HETATM   11  H   UNL     1      -7.579  10.775  71.422  1.00  0.00     0.000 HD 
HETATM   12  H   UNL     1     -10.335  11.466  66.303  1.00  0.00     0.000 HD 
HETATM   13  C   UNL     1      -8.022  10.804  69.414  1.00  0.00    -0.067 A  
HETATM   14  O   UNL     1      -8.208  11.018  70.753  1.00  0.00     2.092 OA 
HETATM   15  C   UNL     1      -6.811  10.182  69.095  1.00  0.00    -0.059 A  
BRANCH   9  16
HETATM   16  C   UNL     1     -10.299  11.828  68.764  1.00  0.00    -0.198 C  
HETATM   17  C   UNL     1     -10.863  11.204  70.015  1.00  0.00     0.030 C  
HETATM   18  C   UNL     1     -11.993  10.489  70.065  1.00  0.00    -0.367 C  
HETATM   19  C   UNL     1     -12.844  10.249  68.856  1.00  0.00     2.260 C  
HETATM   20  C   UNL     1     -12.442   9.814  71.332  1.00  0.00    -0.482 C  
HETATM   21  C   UNL     1     -12.573  11.099  67.611  1.00  0.00     2.736 C  
HETATM   22  C   UNL     1     -11.273  11.934  67.541  1.00  0.00    -0.359 C  
BRANCH  22  23
HETATM   23  C   UNL     1     -11.546  13.394  67.138  1.00  0.00    -0.399 C  
HETATM   24  C   UNL     1     -10.930  14.410  67.766  1.00  0.00    -0.283 C  
HETATM   25  C   UNL     1     -12.500  13.681  66.012  1.00  0.00    -0.477 C  
ENDBRANCH  22  23
ENDBRANCH   9  16
ENDBRANCH   5   6
ENDBRANCH   4   5
ENDBRANCH   3   4
ENDBRANCH   2   3
TORSDOF 6
ENDMDL
MODEL      257
REMARK 921   NORMALIZED FREE ENERGY PREDICTED BY IDOCK:    8.43 KCAL/MOL
REMARK 922        TOTAL FREE ENERGY PREDICTED BY IDOCK:   10.46 KCAL/MOL
REMARK 923 INTER-LIGAND FREE ENERGY PREDICTED BY IDOCK:   10.90 KCAL/MOL
REMARK 924 INTRA-LIGAND FREE ENERGY PREDICTED BY IDOCK:   -0.44 KCAL/MOL
REMARK 927      BINDING AFFINITY PREDICTED BY RF-SCORE:    0.00 PKD
ROOT
HETATM    1  C   UNL     1     -12.575  12.317  73.712  1.00  0.00     9.194 C  
HETATM    2  C   UNL     1     -12.326  13.020  72.389  1.00  0.00     0.792 C  
ENDROOT
BRANCH   2   3
HETATM    3  C   UNL     1     -11.620  12.097  71.395  1.00  0.00     1.956 C  
BRANCH   3   4
HETATM    4  C   UNL     1     -12.400  10.801  71.209  1.00  0.00    -0.470 C  
BRANCH   4   5
HETATM    5  C   UNL     1     -12.714  10.544  69.735  1.00  0.00     0.071 C  
BRANCH   5   6
HETATM    6  C   UNL     1     -11.820   9.463  69.177  1.00  0.00     0.801 A  
HETATM    7  C   UNL     1     -11.483   8.357  69.957  1.00  0.00     0.090 A  
HETATM    8  C   UNL     1     -10.603   7.390  69.470  1.00  0.00    -0.237 A  
HETATM    9  C   UNL     1      -9.994   7.501  68.205  1.00  0.00    -0.198 A  
HETATM   10  O   UNL     1     -10.340   6.311  70.270  1.00  0.00    -0.188 OA 
HETATM   11  H   UNL     1     -10.194   9.579  65.619  1.00  0.00     0.000 HD 
HETATM   12  H   UNL     1      -9.741   5.652  69.938  1.00  0.00     0.000 HD 
HETATM   13  C   UNL     1     -10.385   8.603  67.419  1.00  0.00    -0.284 A  
HETATM   14  O   UNL     1      -9.930   8.836  66.148  1.00  0.00    -0.275 OA 
HETATM   15  C   UNL     1     -11.290   9.560  67.890  1.00  0.00     0.339 A  
BRANCH   9  16
HETATM   16  C   UNL     1      -9.017   6.433  67.689  1.00  0.00    -0.113 C  
HETATM   17  C   UNL     1      -7.637   6.714  68.224  1.00  0.00    -0.104 C  
HETATM   18  C   UNL     1      -6.582   7.049  67.471  1.00  0.00    -0.055 C  
HETATM   19  C   UNL     1      -6.665   7.158  65.980  1.00  0.00    -0.053 C  
HETATM   20  C   UNL     1      -5.259   7.411  68.086  1.00  0.00    -0.025 C  
HETATM   21  C   UNL     1      -7.901   6.575  65.288  1.00  0.00    -0.109 C  
HETATM   22  C   UNL     1      -9.125   6.179  66.146  1.00  0.00    -0.158 C  
BRANCH  22  23
HETATM   23  C   UNL     1      -9.624   4.759  65.821  1.00  0.00    -0.187 C  
HETATM   24  C   UNL     1      -8.770   3.722  65.774  1.00  0.00    -0.116 C  
HETATM   25  C   UNL     1     -11.088   4.533  65.575  1.00  0.00     0.230 C  
ENDBRANCH  22  23
ENDBRANCH   9  16
ENDBRANCH   5   6
ENDBRANCH   4   5
ENDBRANCH   3   4
ENDBRANCH   2   3
TORSDOF 6
ENDMDL
MODEL      258
REMARK 921   NORMALIZED FREE ENERGY PREDICTED BY IDOCK:    8.44 KCAL/MOL
REMARK 922        TOTAL FREE ENERGY PREDICTED BY IDOCK:   10.47 KCAL/MOL
REMARK 923 INTER-LIGAND FREE ENERGY PREDICTED BY IDOCK:    8.91 KCAL/MOL
REMARK 924 INTRA-LIGAND FREE ENERGY PREDICTED BY IDOCK:    1.56 KCAL/MOL
REMARK 927      BINDING AFFINITY PREDICTED BY RF-SCORE:    0.00 PKD
ROOT
HETATM    1  C   UNL     1     -10.637   1.796  67.722  1.00  0.00     3.444 C  
HETATM    2  C   UNL     1     -10.006   3.162  67.929  1.00  0.00     0.546 C  
ENDROOT
BRANCH   2   3
HETATM    3  C   UNL     1     -10.333   4.106  66.771  1.00  0.00     0.317 C  
BRANCH   3   4
HETATM    4  C   UNL     1     -10.053   5.554  67.154  1.00  0.00    -0.220 C  
BRANCH   4   5
HETATM    5  C   UNL     1      -8.718   5.691  67.886  1.00  0.00    -0.107 C  
BRANCH   5   6
HETATM    6  C   UNL     1      -8.255   7.128  67.893  1.00  0.00    -0.119 A  
HETATM    7  C   UNL     1      -7.103   7.491  68.590  1.00  0.00    -0.081 A  
HETATM    8  C   UNL     1      -6.709   8.829  68.656  1.00  0.00    -0.059 A  
HETATM    9  C   UNL     1      -7.463   9.861  68.064  1.00  0.00    -0.085 A  
HETATM   10  O   UNL     1      -5.550   9.117  69.324  1.00  0.00    -0.035 OA 
HETATM   11  H   UNL     1     -10.175  10.062  66.155  1.00  0.00     0.000 HD 
HETATM   12  H   UNL     1      -5.282  10.027  69.369  1.00  0.00     0.000 HD 
HETATM   13  C   UNL     1      -8.596   9.464  67.329  1.00  0.00    -0.128 A  
HETATM   14  O   UNL     1      -9.411  10.330  66.650  1.00  0.00    -0.158 OA 
HETATM   15  C   UNL     1      -8.980   8.122  67.234  1.00  0.00    -0.149 A  
BRANCH   9  16
HETATM   16  C   UNL     1      -7.021  11.331  68.157  1.00  0.00    -0.069 C  
HETATM   17  C   UNL     1      -6.017  11.483  69.270  1.00  0.00    -0.065 C  
HETATM   18  C   UNL     1      -6.219  12.196  70.385  1.00  0.00     0.104 C  
HETATM   19  C   UNL     1      -7.487  12.951  70.634  1.00  0.00     3.753 C  
HETATM   20  C   UNL     1      -5.207  12.221  71.497  1.00  0.00    -0.026 C  
HETATM   21  C   UNL     1      -8.440  13.157  69.453  1.00  0.00     1.075 C  
HETATM   22  C   UNL     1      -8.216  12.345  68.157  1.00  0.00    -0.173 C  
BRANCH  22  23
HETATM   23  C   UNL     1      -8.221  13.240  66.905  1.00  0.00     0.031 C  
HETATM   24  C   UNL     1      -7.740  14.495  66.951  1.00  0.00     0.223 C  
HETATM   25  C   UNL     1      -8.753  12.693  65.610  1.00  0.00     0.890 C  
ENDBRANCH  22  23
ENDBRANCH   9  16
ENDBRANCH   5   6
ENDBRANCH   4   5
ENDBRANCH   3   4
ENDBRANCH   2   3
TORSDOF 6
ENDMDL
MODEL      259
REMARK 921   NORMALIZED FREE ENERGY PREDICTED BY IDOCK:   17.71 KCAL/MOL
REMARK 922        TOTAL FREE ENERGY PREDICTED BY IDOCK:   22.99 KCAL/MOL
REMARK 923 INTER-LIGAND FREE ENERGY PREDICTED BY IDOCK:   20.67 KCAL/MOL
REMARK 924 INTRA-LIGAND FREE ENERGY PREDICTED BY IDOCK:    2.32 KCAL/MOL
REMARK 927      BINDING AFFINITY PREDICTED BY RF-SCORE:    0.00 PKD
ROOT
HETATM    1  C   UNL     1      -8.380  13.771  69.190  1.00  0.00     0.363 C  
HETATM    2  C   UNL     1      -7.725  15.024  69.746  1.00  0.00    -0.038 C  
ENDROOT
BRANCH   2   3
HETATM    3  C   UNL     1      -6.796  14.691  70.913  1.00  0.00     0.584 C  
BRANCH   3   4
HETATM    4  C   UNL     1      -6.889  13.215  71.278  1.00  0.00     3.033 C  
BRANCH   4   5
HETATM    5  C   UNL     1      -8.310  12.682  71.097  1.00  0.00    10.893 C  
BRANCH   5   6
HETATM    6  C   UNL     1      -8.296  11.195  70.836  1.00  0.00     5.031 A  
HETATM    7  C   UNL     1      -7.089  10.498  70.811  1.00  0.00     0.742 A  
HETATM    8  C   UNL     1      -7.065   9.136  70.504  1.00  0.00    -0.088 A  
HETATM    9  C   UNL     1      -8.234   8.422  70.174  1.00  0.00    -0.117 A  
HETATM   10  O   UNL     1      -5.853   8.501  70.529  1.00  0.00    -0.028 OA 
HETATM   11  H   UNL     1     -11.492   9.071  70.066  1.00  0.00     0.000 HD 
HETATM   12  H   UNL     1      -5.838   7.574  70.321  1.00  0.00     0.000 HD 
HETATM   13  C   UNL     1      -9.444   9.138  70.252  1.00  0.00    -0.219 A  
HETATM   14  O   UNL     1     -10.676   8.588  70.014  1.00  0.00    -0.229 OA 
HETATM   15  C   UNL     1      -9.478  10.496  70.588  1.00  0.00     1.557 A  
BRANCH   9  16
HETATM   16  C   UNL     1      -8.188   6.926  69.827  1.00  0.00    -0.131 C  
HETATM   17  C   UNL     1      -8.672   6.122  71.006  1.00  0.00    -0.132 C  
HETATM   18  C   UNL     1      -7.914   5.272  71.710  1.00  0.00    -0.112 C  
HETATM   19  C   UNL     1      -6.478   5.013  71.374  1.00  0.00    -0.031 C  
HETATM   20  C   UNL     1      -8.440   4.579  72.936  1.00  0.00    -0.106 C  
HETATM   21  C   UNL     1      -5.963   5.496  70.014  1.00  0.00    -0.021 C  
HETATM   22  C   UNL     1      -6.831   6.473  69.188  1.00  0.00    -0.065 C  
BRANCH  22  23
HETATM   23  C   UNL     1      -6.998   6.007  67.731  1.00  0.00    -0.069 C  
HETATM   24  C   UNL     1      -7.065   4.699  67.428  1.00  0.00    -0.065 C  
HETATM   25  C   UNL     1      -7.108   7.032  66.638  1.00  0.00    -0.078 C  
ENDBRANCH  22  23
ENDBRANCH   9  16
ENDBRANCH   5   6
ENDBRANCH   4   5
ENDBRANCH   3   4
ENDBRANCH   2   3
TORSDOF 6
ENDMDL
MODEL      260
REMARK 921   NORMALIZED FREE ENERGY PREDICTED BY IDOCK:   20.09 KCAL/MOL
REMARK 922        TOTAL FREE ENERGY PREDICTED BY IDOCK:   26.21 KCAL/MOL
REMARK 923 INTER-LIGAND FREE ENERGY PREDICTED BY IDOCK:   25.72 KCAL/MOL
REMARK 924 INTRA-LIGAND FREE ENERGY PREDICTED BY IDOCK:    0.49 KCAL/MOL
REMARK 927      BINDING AFFINITY PREDICTED BY RF-SCORE:    0.00 PKD
ROOT
HETATM    1  C   UNL     1     -10.653   1.795  67.725  1.00  0.00     3.444 C  
HETATM    2  C   UNL     1     -10.070   3.169  68.006  1.00  0.00     0.909 C  
ENDROOT
BRANCH   2   3
HETATM    3  C   UNL     1     -10.397   4.150  66.880  1.00  0.00     0.354 C  
BRANCH   3   4
HETATM    4  C   UNL     1     -10.225   5.590  67.347  1.00  0.00    -0.253 C  
BRANCH   4   5
HETATM    5  C   UNL     1      -8.949   5.763  68.171  1.00  0.00    -0.114 C  
BRANCH   5   6
HETATM    6  C   UNL     1      -8.596   7.224  68.313  1.00  0.00    -0.123 A  
HETATM    7  C   UNL     1      -7.523   7.613  69.115  1.00  0.00    -0.095 A  
HETATM    8  C   UNL     1      -7.235   8.966  69.303  1.00  0.00    -0.066 A  
HETATM    9  C   UNL     1      -8.023   9.985  68.733  1.00  0.00    -0.096 A  
HETATM   10  O   UNL     1      -6.148   9.282  70.072  1.00  0.00    -0.039 OA 
HETATM   11  H   UNL     1     -10.608  10.141  66.651  1.00  0.00     0.000 HD 
HETATM   12  H   UNL     1      -5.953  10.203  70.200  1.00  0.00     0.000 HD 
HETATM   13  C   UNL     1      -9.072   9.567  67.892  1.00  0.00    -0.125 A  
HETATM   14  O   UNL     1      -9.901  10.424  67.218  1.00  0.00    -0.169 OA 
HETATM   15  C   UNL     1      -9.347   8.212  67.675  1.00  0.00    -0.160 A  
BRANCH   9  16
HETATM   16  C   UNL     1      -7.698  11.471  68.960  1.00  0.00    -0.034 C  
HETATM   17  C   UNL     1      -7.627  12.178  67.632  1.00  0.00    -0.140 C  
HETATM   18  C   UNL     1      -6.519  12.729  67.121  1.00  0.00     0.059 C  
HETATM   19  C   UNL     1      -5.210  12.716  67.849  1.00  0.00    -0.096 C  
HETATM   20  C   UNL     1      -6.502  13.332  65.744  1.00  0.00     6.569 C  
HETATM   21  C   UNL     1      -5.220  12.338  69.333  1.00  0.00    -0.066 C  
HETATM   22  C   UNL     1      -6.496  11.706  69.937  1.00  0.00    -0.085 C  
BRANCH  22  23
HETATM   23  C   UNL     1      -6.928  12.407  71.237  1.00  0.00     4.451 C  
HETATM   24  C   UNL     1      -6.313  12.141  72.403  1.00  0.00     4.171 C  
HETATM   25  C   UNL     1      -8.041  13.416  71.194  1.00  0.00     7.428 C  
ENDBRANCH  22  23
ENDBRANCH   9  16
ENDBRANCH   5   6
ENDBRANCH   4   5
ENDBRANCH   3   4
ENDBRANCH   2   3
TORSDOF 6
ENDMDL
