MODEL        1
REMARK 921   NORMALIZED FREE ENERGY PREDICTED BY IDOCK:   -7.01 KCAL/MOL
REMARK 922        TOTAL FREE ENERGY PREDICTED BY IDOCK:  -10.98 KCAL/MOL
REMARK 923 INTER-LIGAND FREE ENERGY PREDICTED BY IDOCK:   -9.87 KCAL/MOL
REMARK 924 INTRA-LIGAND FREE ENERGY PREDICTED BY IDOCK:   -1.10 KCAL/MOL
REMARK 927      BINDING AFFINITY PREDICTED BY RF-SCORE:    0.00 PKD
ROOT
HETATM    1  C   UNL     1     -13.686  13.636  72.274  1.00  0.00    -0.687 C  
HETATM    2  C   UNL     1     -12.830  13.061  71.152  1.00  0.00    -0.331 C  
ENDROOT
BRANCH   2   3
HETATM    3  C   UNL     1     -12.760  11.541  71.251  1.00  0.00    -0.469 C  
BRANCH   3   4
HETATM    4  C   UNL     1     -11.717  10.915  70.318  1.00  0.00    -0.437 C  
BRANCH   4   5
HETATM    5  C   UNL     1     -11.348  11.937  69.244  1.00  0.00    -0.277 C  
BRANCH   5   6
HETATM    6  O   UNL     1     -11.978  11.700  67.978  1.00  0.00    -0.577 OA 
BRANCH   6   7
HETATM    7  C   UNL     1     -11.795  12.709  67.089  1.00  0.00    -0.330 C  
HETATM    8  O   UNL     1     -12.234  12.700  65.951  1.00  0.00    -0.548 OA 
HETATM    9  N   UNL     1     -11.032  13.686  67.675  1.00  0.00    -0.263 N  
HETATM   10  H   UNL     1     -10.490  13.424  68.498  1.00  0.00     0.000 HD 
BRANCH   9  11
HETATM   11  C   UNL     1     -10.935  14.988  67.247  1.00  0.00    -0.326 C  
HETATM   12  N   UNL     1     -10.920  15.299  65.999  1.00  0.00    -0.332 N  
HETATM   13  C   UNL     1     -10.756  16.620  65.647  1.00  0.00    -0.214 C  
HETATM   14  H   UNL     1     -11.028  14.581  65.284  1.00  0.00     0.000 HD 
HETATM   15  N   UNL     1     -10.207  17.476  66.623  1.00  0.00    -0.324 N  
HETATM   16  O   UNL     1     -11.058  17.000  64.522  1.00  0.00    -1.098 OA 
HETATM   17  F   UNL     1     -11.061  15.588  69.601  1.00  0.00    -0.213 F  
HETATM   18  C   UNL     1     -10.425  17.181  67.964  1.00  0.00    -0.369 C  
HETATM   19  C   UNL     1     -10.844  15.970  68.332  1.00  0.00    -0.310 C  
BRANCH  15  20
HETATM   20  C   UNL     1      -9.708  18.801  66.226  1.00  0.00    -0.330 C  
HETATM   21  C   UNL     1      -7.417  18.927  66.720  1.00  0.00    -0.223 C  
HETATM   22  O   UNL     1      -8.376  18.714  65.682  1.00  0.00    -0.381 OA 
HETATM   23  C   UNL     1      -7.045  17.601  67.372  1.00  0.00    -0.187 C  
HETATM   24  C   UNL     1      -8.069  19.928  67.666  1.00  0.00    -0.304 C  
HETATM   25  O   UNL     1      -7.649  21.275  67.393  1.00  0.00    -0.627 OA 
HETATM   26  C   UNL     1      -9.574  19.811  67.389  1.00  0.00    -0.355 C  
HETATM   27  H   UNL     1      -8.056  21.900  67.982  1.00  0.00     0.000 HD 
HETATM   28  O   UNL     1     -10.157  21.070  67.019  1.00  0.00    -0.362 OA 
HETATM   29  H   UNL     1     -10.074  21.691  67.734  1.00  0.00     0.000 HD 
ENDBRANCH  15  20
ENDBRANCH   9  11
ENDBRANCH   6   7
ENDBRANCH   5   6
ENDBRANCH   4   5
ENDBRANCH   3   4
ENDBRANCH   2   3
TORSDOF 7
ENDMDL
MODEL        2
REMARK 921   NORMALIZED FREE ENERGY PREDICTED BY IDOCK:   -6.82 KCAL/MOL
REMARK 922        TOTAL FREE ENERGY PREDICTED BY IDOCK:  -10.71 KCAL/MOL
REMARK 923 INTER-LIGAND FREE ENERGY PREDICTED BY IDOCK:   -9.48 KCAL/MOL
REMARK 924 INTRA-LIGAND FREE ENERGY PREDICTED BY IDOCK:   -1.23 KCAL/MOL
REMARK 927      BINDING AFFINITY PREDICTED BY RF-SCORE:    0.00 PKD
ROOT
HETATM    1  C   UNL     1     -12.611  15.457  73.584  1.00  0.00    -0.723 C  
HETATM    2  C   UNL     1     -13.835  15.660  72.698  1.00  0.00    -0.648 C  
ENDROOT
BRANCH   2   3
HETATM    3  C   UNL     1     -14.150  14.392  71.912  1.00  0.00    -0.596 C  
BRANCH   3   4
HETATM    4  C   UNL     1     -13.152  13.255  72.163  1.00  0.00    -0.486 C  
BRANCH   4   5
HETATM    5  C   UNL     1     -13.028  12.425  70.887  1.00  0.00     0.023 C  
BRANCH   5   6
HETATM    6  O   UNL     1     -11.706  12.410  70.332  1.00  0.00    -0.234 OA 
BRANCH   6   7
HETATM    7  C   UNL     1     -11.606  13.092  69.163  1.00  0.00    -0.316 C  
HETATM    8  O   UNL     1     -12.213  12.794  68.148  1.00  0.00    -0.198 OA 
HETATM    9  N   UNL     1     -10.710  14.118  69.320  1.00  0.00    -0.384 N  
HETATM   10  H   UNL     1     -10.065  14.056  70.107  1.00  0.00     0.000 HD 
BRANCH   9  11
HETATM   11  C   UNL     1     -10.609  15.222  68.509  1.00  0.00    -0.237 C  
HETATM   12  N   UNL     1     -10.330  15.129  67.258  1.00  0.00    -0.257 N  
HETATM   13  C   UNL     1     -10.182  16.284  66.523  1.00  0.00    -0.300 C  
HETATM   14  H   UNL     1     -10.220  14.216  66.817  1.00  0.00     0.000 HD 
HETATM   15  N   UNL     1      -9.933  17.469  67.243  1.00  0.00    -0.301 N  
HETATM   16  O   UNL     1     -10.243  16.247  65.299  1.00  0.00    -0.548 OA 
HETATM   17  F   UNL     1     -11.314  16.500  70.455  1.00  0.00    -0.366 F  
HETATM   18  C   UNL     1     -10.432  17.578  68.536  1.00  0.00    -0.361 C  
HETATM   19  C   UNL     1     -10.839  16.496  69.198  1.00  0.00    -0.334 C  
BRANCH  15  20
HETATM   20  C   UNL     1      -9.450  18.661  66.531  1.00  0.00    -0.322 C  
HETATM   21  C   UNL     1      -7.152  18.909  66.939  1.00  0.00    -0.206 C  
HETATM   22  O   UNL     1      -8.127  18.450  66.000  1.00  0.00    -0.466 OA 
HETATM   23  C   UNL     1      -6.760  17.779  67.884  1.00  0.00    -0.192 C  
HETATM   24  C   UNL     1      -7.796  20.106  67.628  1.00  0.00    -0.300 C  
HETATM   25  O   UNL     1      -7.390  21.349  67.031  1.00  0.00    -0.810 OA 
HETATM   26  C   UNL     1      -9.304  19.922  67.414  1.00  0.00    -0.355 C  
HETATM   27  H   UNL     1      -7.791  22.096  67.461  1.00  0.00     0.000 HD 
HETATM   28  O   UNL     1      -9.902  21.053  66.763  1.00  0.00    -0.564 OA 
HETATM   29  H   UNL     1      -9.812  21.828  67.305  1.00  0.00     0.000 HD 
ENDBRANCH  15  20
ENDBRANCH   9  11
ENDBRANCH   6   7
ENDBRANCH   5   6
ENDBRANCH   4   5
ENDBRANCH   3   4
ENDBRANCH   2   3
TORSDOF 7
ENDMDL
MODEL        3
REMARK 921   NORMALIZED FREE ENERGY PREDICTED BY IDOCK:   -6.71 KCAL/MOL
REMARK 922        TOTAL FREE ENERGY PREDICTED BY IDOCK:  -10.56 KCAL/MOL
REMARK 923 INTER-LIGAND FREE ENERGY PREDICTED BY IDOCK:   -9.58 KCAL/MOL
REMARK 924 INTRA-LIGAND FREE ENERGY PREDICTED BY IDOCK:   -0.98 KCAL/MOL
REMARK 927      BINDING AFFINITY PREDICTED BY RF-SCORE:    0.00 PKD
ROOT
HETATM    1  C   UNL     1     -11.896   8.534  72.441  1.00  0.00    -0.437 C  
HETATM    2  C   UNL     1     -13.089   9.391  72.031  1.00  0.00    -0.516 C  
ENDROOT
BRANCH   2   3
HETATM    3  C   UNL     1     -12.624  10.735  71.480  1.00  0.00    -0.500 C  
BRANCH   3   4
HETATM    4  C   UNL     1     -11.588  10.609  70.357  1.00  0.00    -0.441 C  
BRANCH   4   5
HETATM    5  C   UNL     1     -11.708  11.828  69.444  1.00  0.00    -0.341 C  
BRANCH   5   6
HETATM    6  O   UNL     1     -12.095  11.510  68.101  1.00  0.00    -0.604 OA 
BRANCH   6   7
HETATM    7  C   UNL     1     -11.857  12.514  67.220  1.00  0.00    -0.311 C  
HETATM    8  O   UNL     1     -12.273  12.526  66.074  1.00  0.00    -0.605 OA 
HETATM    9  N   UNL     1     -11.071  13.461  67.826  1.00  0.00    -0.260 N  
HETATM   10  H   UNL     1     -10.557  13.177  68.659  1.00  0.00     0.000 HD 
BRANCH   9  11
HETATM   11  C   UNL     1     -10.919  14.760  67.406  1.00  0.00    -0.313 C  
HETATM   12  N   UNL     1     -10.824  15.071  66.162  1.00  0.00    -0.324 N  
HETATM   13  C   UNL     1     -10.608  16.388  65.821  1.00  0.00    -0.315 C  
HETATM   14  H   UNL     1     -10.907  14.356  65.440  1.00  0.00     0.000 HD 
HETATM   15  N   UNL     1     -10.097  17.230  66.828  1.00  0.00    -0.292 N  
HETATM   16  O   UNL     1     -10.836  16.774  64.681  1.00  0.00    -0.835 OA 
HETATM   17  F   UNL     1     -11.167  15.363  69.749  1.00  0.00    -0.222 F  
HETATM   18  C   UNL     1     -10.400  16.940  68.154  1.00  0.00    -0.336 C  
HETATM   19  C   UNL     1     -10.868  15.740  68.495  1.00  0.00    -0.290 C  
BRANCH  15  20
HETATM   20  C   UNL     1      -9.545  18.543  66.463  1.00  0.00    -0.329 C  
HETATM   21  C   UNL     1      -7.215  18.491  66.749  1.00  0.00    -0.211 C  
HETATM   22  O   UNL     1      -8.275  18.405  65.794  1.00  0.00    -0.494 OA 
HETATM   23  C   UNL     1      -6.880  17.105  67.288  1.00  0.00    -0.194 C  
HETATM   24  C   UNL     1      -7.711  19.471  67.806  1.00  0.00    -0.286 C  
HETATM   25  O   UNL     1      -7.224  20.803  67.572  1.00  0.00    -0.331 OA 
HETATM   26  C   UNL     1      -9.238  19.467  67.664  1.00  0.00    -0.315 C  
HETATM   27  H   UNL     1      -7.532  21.413  68.232  1.00  0.00     0.000 HD 
HETATM   28  O   UNL     1      -9.763  20.782  67.421  1.00  0.00    -0.477 OA 
HETATM   29  H   UNL     1      -9.575  21.350  68.159  1.00  0.00     0.000 HD 
ENDBRANCH  15  20
ENDBRANCH   9  11
ENDBRANCH   6   7
ENDBRANCH   5   6
ENDBRANCH   4   5
ENDBRANCH   3   4
ENDBRANCH   2   3
TORSDOF 7
ENDMDL
MODEL        4
REMARK 921   NORMALIZED FREE ENERGY PREDICTED BY IDOCK:   -6.52 KCAL/MOL
REMARK 922        TOTAL FREE ENERGY PREDICTED BY IDOCK:  -10.28 KCAL/MOL
REMARK 923 INTER-LIGAND FREE ENERGY PREDICTED BY IDOCK:   -9.28 KCAL/MOL
REMARK 924 INTRA-LIGAND FREE ENERGY PREDICTED BY IDOCK:   -1.01 KCAL/MOL
REMARK 927      BINDING AFFINITY PREDICTED BY RF-SCORE:    0.00 PKD
ROOT
HETATM    1  C   UNL     1     -10.600   6.570  68.470  1.00  0.00    -0.291 C  
HETATM    2  C   UNL     1     -10.611   6.929  66.989  1.00  0.00    -0.403 C  
ENDROOT
BRANCH   2   3
HETATM    3  C   UNL     1     -10.529   8.440  66.798  1.00  0.00    -0.315 C  
BRANCH   3   4
HETATM    4  C   UNL     1      -9.358   8.879  65.910  1.00  0.00    -0.301 C  
BRANCH   4   5
HETATM    5  C   UNL     1      -9.584  10.330  65.490  1.00  0.00    -0.242 C  
BRANCH   5   6
HETATM    6  O   UNL     1     -10.524  10.484  64.419  1.00  0.00    -0.304 OA 
BRANCH   6   7
HETATM    7  C   UNL     1     -11.029  11.740  64.323  1.00  0.00    -0.359 C  
HETATM    8  O   UNL     1     -12.116  12.000  63.835  1.00  0.00    -0.440 OA 
HETATM    9  N   UNL     1     -10.114  12.628  64.828  1.00  0.00    -0.452 N  
HETATM   10  H   UNL     1      -9.150  12.308  64.910  1.00  0.00     0.000 HD 
BRANCH   9  11
HETATM   11  C   UNL     1     -10.386  13.913  65.232  1.00  0.00    -0.378 C  
HETATM   12  N   UNL     1     -10.719  14.836  64.402  1.00  0.00    -0.546 N  
HETATM   13  C   UNL     1     -10.914  16.115  64.874  1.00  0.00    -0.349 C  
HETATM   14  H   UNL     1     -10.836  14.626  63.411  1.00  0.00     0.000 HD 
HETATM   15  N   UNL     1     -10.347  16.424  66.126  1.00  0.00    -0.335 N  
HETATM   16  O   UNL     1     -11.535  16.931  64.204  1.00  0.00    -1.174 OA 
HETATM   17  F   UNL     1     -10.096  13.074  67.497  1.00  0.00    -0.209 F  
HETATM   18  C   UNL     1     -10.190  15.402  67.055  1.00  0.00    -0.262 C  
HETATM   19  C   UNL     1     -10.256  14.126  66.677  1.00  0.00    -0.270 C  
BRANCH  15  20
HETATM   20  C   UNL     1     -10.234  17.830  66.542  1.00  0.00    -0.358 C  
HETATM   21  C   UNL     1      -7.964  18.423  66.602  1.00  0.00    -0.258 C  
HETATM   22  O   UNL     1      -9.169  18.498  65.838  1.00  0.00    -0.486 OA 
HETATM   23  C   UNL     1      -7.182  17.168  66.231  1.00  0.00    -0.308 C  
HETATM   24  C   UNL     1      -8.413  18.473  68.058  1.00  0.00    -0.283 C  
HETATM   25  O   UNL     1      -8.335  19.803  68.597  1.00  0.00    -0.297 OA 
HETATM   26  C   UNL     1      -9.881  18.031  68.034  1.00  0.00    -0.323 C  
HETATM   27  H   UNL     1      -8.614  19.834  69.505  1.00  0.00     0.000 HD 
HETATM   28  O   UNL     1     -10.752  19.012  68.619  1.00  0.00    -0.333 OA 
HETATM   29  H   UNL     1     -10.536  19.136  69.536  1.00  0.00     0.000 HD 
ENDBRANCH  15  20
ENDBRANCH   9  11
ENDBRANCH   6   7
ENDBRANCH   5   6
ENDBRANCH   4   5
ENDBRANCH   3   4
ENDBRANCH   2   3
TORSDOF 7
ENDMDL
MODEL        5
REMARK 921   NORMALIZED FREE ENERGY PREDICTED BY IDOCK:   -6.43 KCAL/MOL
REMARK 922        TOTAL FREE ENERGY PREDICTED BY IDOCK:  -10.16 KCAL/MOL
REMARK 923 INTER-LIGAND FREE ENERGY PREDICTED BY IDOCK:   -9.33 KCAL/MOL
REMARK 924 INTRA-LIGAND FREE ENERGY PREDICTED BY IDOCK:   -0.84 KCAL/MOL
REMARK 927      BINDING AFFINITY PREDICTED BY RF-SCORE:    0.00 PKD
ROOT
HETATM    1  C   UNL     1     -10.300   5.858  70.500  1.00  0.00    -0.297 C  
HETATM    2  C   UNL     1     -11.188   5.911  71.738  1.00  0.00    -0.311 C  
ENDROOT
BRANCH   2   3
HETATM    3  C   UNL     1     -12.173   7.071  71.648  1.00  0.00    -0.395 C  
BRANCH   3   4
HETATM    4  C   UNL     1     -11.793   8.265  72.531  1.00  0.00    -0.439 C  
BRANCH   4   5
HETATM    5  C   UNL     1     -11.242   9.375  71.638  1.00  0.00    -0.361 C  
BRANCH   5   6
HETATM    6  O   UNL     1      -9.869   9.193  71.268  1.00  0.00    -0.283 OA 
BRANCH   6   7
HETATM    7  C   UNL     1      -9.565   9.717  70.053  1.00  0.00    -0.241 C  
HETATM    8  O   UNL     1      -8.586   9.398  69.401  1.00  0.00    -0.131 OA 
HETATM    9  N   UNL     1     -10.510  10.655  69.723  1.00  0.00    -0.407 N  
HETATM   10  H   UNL     1     -11.079  11.030  70.482  1.00  0.00     0.000 HD 
BRANCH   9  11
HETATM   11  C   UNL     1     -10.755  11.132  68.459  1.00  0.00    -0.201 C  
HETATM   12  N   UNL     1     -10.211  10.615  67.415  1.00  0.00    -0.194 N  
HETATM   13  C   UNL     1     -10.455  11.189  66.187  1.00  0.00    -0.253 C  
HETATM   14  H   UNL     1      -9.609   9.796  67.494  1.00  0.00     0.000 HD 
HETATM   15  N   UNL     1     -10.928  12.516  66.186  1.00  0.00    -0.275 N  
HETATM   16  O   UNL     1     -10.238  10.558  65.159  1.00  0.00    -0.305 OA 
HETATM   17  F   UNL     1     -12.352  12.629  69.522  1.00  0.00    -0.274 F  
HETATM   18  C   UNL     1     -11.678  12.954  67.271  1.00  0.00    -0.373 C  
HETATM   19  C   UNL     1     -11.677  12.272  68.416  1.00  0.00    -0.337 C  
BRANCH  15  20
HETATM   20  C   UNL     1     -10.904  13.293  64.938  1.00  0.00    -0.345 C  
HETATM   21  C   UNL     1      -9.807  15.330  65.335  1.00  0.00    -0.283 C  
HETATM   22  O   UNL     1      -9.663  14.013  64.798  1.00  0.00    -0.027 OA 
HETATM   23  C   UNL     1      -9.438  15.338  66.814  1.00  0.00    -0.264 C  
HETATM   24  C   UNL     1     -11.252  15.721  65.048  1.00  0.00    -0.308 C  
HETATM   25  O   UNL     1     -11.367  16.506  63.850  1.00  0.00    -1.557 OA 
HETATM   26  C   UNL     1     -11.988  14.391  64.844  1.00  0.00    -0.426 C  
HETATM   27  H   UNL     1     -12.268  16.750  63.672  1.00  0.00     0.000 HD 
HETATM   28  O   UNL     1     -12.647  14.325  63.570  1.00  0.00    -1.039 OA 
HETATM   29  H   UNL     1     -13.314  15.000  63.511  1.00  0.00     0.000 HD 
ENDBRANCH  15  20
ENDBRANCH   9  11
ENDBRANCH   6   7
ENDBRANCH   5   6
ENDBRANCH   4   5
ENDBRANCH   3   4
ENDBRANCH   2   3
TORSDOF 7
ENDMDL
MODEL        6
REMARK 921   NORMALIZED FREE ENERGY PREDICTED BY IDOCK:   -6.32 KCAL/MOL
REMARK 922        TOTAL FREE ENERGY PREDICTED BY IDOCK:  -10.01 KCAL/MOL
REMARK 923 INTER-LIGAND FREE ENERGY PREDICTED BY IDOCK:   -8.91 KCAL/MOL
REMARK 924 INTRA-LIGAND FREE ENERGY PREDICTED BY IDOCK:   -1.10 KCAL/MOL
REMARK 927      BINDING AFFINITY PREDICTED BY RF-SCORE:    0.00 PKD
ROOT
HETATM    1  C   UNL     1      -6.730  19.451  69.145  1.00  0.00    -0.368 C  
HETATM    2  C   UNL     1      -7.930  18.849  68.421  1.00  0.00    -0.373 C  
ENDROOT
BRANCH   2   3
HETATM    3  C   UNL     1      -8.431  19.791  67.332  1.00  0.00    -0.360 C  
BRANCH   3   4
HETATM    4  C   UNL     1      -9.927  20.111  67.442  1.00  0.00    -0.570 C  
BRANCH   4   5
HETATM    5  C   UNL     1     -10.721  18.902  66.952  1.00  0.00    -0.370 C  
BRANCH   5   6
HETATM    6  O   UNL     1     -10.339  18.448  65.647  1.00  0.00    -0.605 OA 
BRANCH   6   7
HETATM    7  C   UNL     1     -10.849  17.231  65.330  1.00  0.00    -0.021 C  
HETATM    8  O   UNL     1     -11.389  16.976  64.267  1.00  0.00    -1.191 OA 
HETATM    9  N   UNL     1     -10.679  16.384  66.396  1.00  0.00    -0.222 N  
HETATM   10  H   UNL     1     -10.499  16.810  67.305  1.00  0.00     0.000 HD 
BRANCH   9  11
HETATM   11  C   UNL     1     -10.728  15.013  66.343  1.00  0.00    -0.322 C  
HETATM   12  N   UNL     1     -11.787  14.380  65.979  1.00  0.00    -0.380 N  
HETATM   13  C   UNL     1     -11.781  13.003  66.013  1.00  0.00    -0.393 C  
HETATM   14  H   UNL     1     -12.616  14.887  65.672  1.00  0.00     0.000 HD 
HETATM   15  N   UNL     1     -10.799  12.390  66.816  1.00  0.00    -0.241 N  
HETATM   16  O   UNL     1     -12.618  12.368  65.382  1.00  0.00    -0.637 OA 
HETATM   17  F   UNL     1      -8.366  15.079  66.919  1.00  0.00    -0.214 F  
HETATM   18  C   UNL     1      -9.593  13.053  67.013  1.00  0.00    -0.236 C  
HETATM   19  C   UNL     1      -9.481  14.352  66.740  1.00  0.00    -0.267 C  
BRANCH  15  20
HETATM   20  C   UNL     1     -10.928  10.965  67.155  1.00  0.00    -0.272 C  
HETATM   21  C   UNL     1     -11.675  10.778  69.373  1.00  0.00    -0.306 C  
HETATM   22  O   UNL     1     -12.072  10.732  68.001  1.00  0.00    -0.474 OA 
HETATM   23  C   UNL     1     -11.792  12.201  69.907  1.00  0.00    -0.392 C  
HETATM   24  C   UNL     1     -10.258  10.217  69.396  1.00  0.00    -0.227 C  
HETATM   25  O   UNL     1     -10.241   8.820  69.734  1.00  0.00    -0.191 OA 
HETATM   26  C   UNL     1      -9.741  10.387  67.961  1.00  0.00    -0.150 C  
HETATM   27  H   UNL     1      -9.357   8.470  69.749  1.00  0.00     0.000 HD 
HETATM   28  O   UNL     1      -9.314   9.143  67.387  1.00  0.00    -0.132 OA 
HETATM   29  H   UNL     1      -8.585   8.787  67.882  1.00  0.00     0.000 HD 
ENDBRANCH  15  20
ENDBRANCH   9  11
ENDBRANCH   6   7
ENDBRANCH   5   6
ENDBRANCH   4   5
ENDBRANCH   3   4
ENDBRANCH   2   3
TORSDOF 7
ENDMDL
MODEL        7
REMARK 921   NORMALIZED FREE ENERGY PREDICTED BY IDOCK:   -6.30 KCAL/MOL
REMARK 922        TOTAL FREE ENERGY PREDICTED BY IDOCK:   -9.98 KCAL/MOL
REMARK 923 INTER-LIGAND FREE ENERGY PREDICTED BY IDOCK:   -8.93 KCAL/MOL
REMARK 924 INTRA-LIGAND FREE ENERGY PREDICTED BY IDOCK:   -1.05 KCAL/MOL
REMARK 927      BINDING AFFINITY PREDICTED BY RF-SCORE:    0.00 PKD
ROOT
HETATM    1  C   UNL     1      -9.852   8.635  71.436  1.00  0.00    -0.327 C  
HETATM    2  C   UNL     1     -10.872   8.265  72.506  1.00  0.00    -0.421 C  
ENDROOT
BRANCH   2   3
HETATM    3  C   UNL     1     -12.246   8.036  71.886  1.00  0.00    -0.359 C  
BRANCH   3   4
HETATM    4  C   UNL     1     -13.281   9.094  72.287  1.00  0.00    -0.528 C  
BRANCH   4   5
HETATM    5  C   UNL     1     -13.346  10.153  71.188  1.00  0.00    -0.295 C  
BRANCH   5   6
HETATM    6  O   UNL     1     -12.427  11.237  71.372  1.00  0.00    -0.345 OA 
BRANCH   6   7
HETATM    7  C   UNL     1     -11.914  11.711  70.208  1.00  0.00    -0.358 C  
HETATM    8  O   UNL     1     -11.543  10.999  69.289  1.00  0.00    -0.259 OA 
HETATM    9  N   UNL     1     -11.865  13.080  70.268  1.00  0.00    -0.532 N  
HETATM   10  H   UNL     1     -11.914  13.508  71.192  1.00  0.00     0.000 HD 
BRANCH   9  11
HETATM   11  C   UNL     1     -11.754  13.923  69.189  1.00  0.00    -0.338 C  
HETATM   12  N   UNL     1     -11.858  13.503  67.978  1.00  0.00    -0.360 N  
HETATM   13  C   UNL     1     -11.672  14.397  66.947  1.00  0.00    -0.402 C  
HETATM   14  H   UNL     1     -12.074  12.526  67.784  1.00  0.00     0.000 HD 
HETATM   15  N   UNL     1     -10.985  15.588  67.254  1.00  0.00    -0.318 N  
HETATM   16  O   UNL     1     -12.075  14.131  65.821  1.00  0.00    -0.386 OA 
HETATM   17  F   UNL     1     -11.602  15.715  70.827  1.00  0.00    -0.270 F  
HETATM   18  C   UNL     1     -11.072  16.092  68.547  1.00  0.00    -0.347 C  
HETATM   19  C   UNL     1     -11.504  15.323  69.546  1.00  0.00    -0.305 C  
BRANCH  15  20
HETATM   20  C   UNL     1     -10.471  16.429  66.163  1.00  0.00    -0.314 C  
HETATM   21  C   UNL     1      -8.128  16.494  66.295  1.00  0.00    -0.306 C  
HETATM   22  O   UNL     1      -9.243  15.896  65.629  1.00  0.00    -0.333 OA 
HETATM   23  C   UNL     1      -7.744  15.672  67.519  1.00  0.00    -0.192 C  
HETATM   24  C   UNL     1      -8.570  17.918  66.610  1.00  0.00    -0.262 C  
HETATM   25  O   UNL     1      -8.114  18.852  65.618  1.00  0.00    -0.419 OA 
HETATM   26  C   UNL     1     -10.103  17.871  66.582  1.00  0.00    -0.362 C  
HETATM   27  H   UNL     1      -8.390  19.740  65.815  1.00  0.00     0.000 HD 
HETATM   28  O   UNL     1     -10.658  18.813  65.650  1.00  0.00    -0.596 OA 
HETATM   29  H   UNL     1     -10.432  19.699  65.907  1.00  0.00     0.000 HD 
ENDBRANCH  15  20
ENDBRANCH   9  11
ENDBRANCH   6   7
ENDBRANCH   5   6
ENDBRANCH   4   5
ENDBRANCH   3   4
ENDBRANCH   2   3
TORSDOF 7
ENDMDL
MODEL        8
REMARK 921   NORMALIZED FREE ENERGY PREDICTED BY IDOCK:   -6.29 KCAL/MOL
REMARK 922        TOTAL FREE ENERGY PREDICTED BY IDOCK:   -9.97 KCAL/MOL
REMARK 923 INTER-LIGAND FREE ENERGY PREDICTED BY IDOCK:   -9.11 KCAL/MOL
REMARK 924 INTRA-LIGAND FREE ENERGY PREDICTED BY IDOCK:   -0.86 KCAL/MOL
REMARK 927      BINDING AFFINITY PREDICTED BY RF-SCORE:    0.00 PKD
ROOT
HETATM    1  C   UNL     1     -10.188   8.231  66.713  1.00  0.00    -0.375 C  
HETATM    2  C   UNL     1      -9.912   9.724  66.574  1.00  0.00    -0.304 C  
ENDROOT
BRANCH   2   3
HETATM    3  C   UNL     1     -10.034  10.162  65.119  1.00  0.00    -0.379 C  
BRANCH   3   4
HETATM    4  C   UNL     1     -10.102  11.684  64.943  1.00  0.00    -0.303 C  
BRANCH   4   5
HETATM    5  C   UNL     1     -11.465  12.047  64.358  1.00  0.00    -0.343 C  
BRANCH   5   6
HETATM    6  O   UNL     1     -12.507  12.150  65.336  1.00  0.00    -0.523 OA 
BRANCH   6   7
HETATM    7  C   UNL     1     -12.141  12.849  66.441  1.00  0.00    -0.329 C  
HETATM    8  O   UNL     1     -12.019  12.353  67.548  1.00  0.00    -0.482 OA 
HETATM    9  N   UNL     1     -11.970  14.166  66.099  1.00  0.00    -0.405 N  
HETATM   10  H   UNL     1     -12.399  14.481  65.229  1.00  0.00     0.000 HD 
BRANCH   9  11
HETATM   11  C   UNL     1     -11.270  15.096  66.828  1.00  0.00    -0.285 C  
HETATM   12  N   UNL     1     -11.678  15.517  67.972  1.00  0.00    -0.358 N  
HETATM   13  C   UNL     1     -10.956  16.498  68.615  1.00  0.00    -0.344 C  
HETATM   14  H   UNL     1     -12.522  15.132  68.397  1.00  0.00     0.000 HD 
HETATM   15  N   UNL     1     -10.077  17.263  67.823  1.00  0.00    -0.298 N  
HETATM   16  O   UNL     1     -11.110  16.690  69.815  1.00  0.00    -0.295 OA 
HETATM   17  F   UNL     1      -9.581  14.934  65.086  1.00  0.00    -0.311 F  
HETATM   18  C   UNL     1      -9.519  16.676  66.693  1.00  0.00    -0.252 C  
HETATM   19  C   UNL     1     -10.038  15.560  66.183  1.00  0.00    -0.309 C  
BRANCH  15  20
HETATM   20  C   UNL     1      -9.525  18.516  68.358  1.00  0.00    -0.341 C  
HETATM   21  C   UNL     1     -10.031  20.263  66.875  1.00  0.00    -0.452 C  
HETATM   22  O   UNL     1     -10.405  19.627  68.098  1.00  0.00    -0.428 OA 
HETATM   23  C   UNL     1     -10.773  19.630  65.704  1.00  0.00    -0.428 C  
HETATM   24  C   UNL     1      -8.514  20.125  66.803  1.00  0.00    -0.302 C  
HETATM   25  O   UNL     1      -7.846  21.301  67.287  1.00  0.00    -0.678 OA 
HETATM   26  C   UNL     1      -8.180  18.947  67.727  1.00  0.00    -0.270 C  
HETATM   27  H   UNL     1      -6.900  21.215  67.242  1.00  0.00     0.000 HD 
HETATM   28  O   UNL     1      -7.246  19.311  68.755  1.00  0.00    -0.316 OA 
HETATM   29  H   UNL     1      -6.421  19.577  68.367  1.00  0.00     0.000 HD 
ENDBRANCH  15  20
ENDBRANCH   9  11
ENDBRANCH   6   7
ENDBRANCH   5   6
ENDBRANCH   4   5
ENDBRANCH   3   4
ENDBRANCH   2   3
TORSDOF 7
ENDMDL
MODEL        9
REMARK 921   NORMALIZED FREE ENERGY PREDICTED BY IDOCK:   -6.18 KCAL/MOL
REMARK 922        TOTAL FREE ENERGY PREDICTED BY IDOCK:   -9.81 KCAL/MOL
REMARK 923 INTER-LIGAND FREE ENERGY PREDICTED BY IDOCK:   -8.99 KCAL/MOL
REMARK 924 INTRA-LIGAND FREE ENERGY PREDICTED BY IDOCK:   -0.82 KCAL/MOL
REMARK 927      BINDING AFFINITY PREDICTED BY RF-SCORE:    0.00 PKD
ROOT
HETATM    1  C   UNL     1     -10.532   6.688  67.099  1.00  0.00    -0.358 C  
HETATM    2  C   UNL     1     -10.428   8.160  67.480  1.00  0.00    -0.326 C  
ENDROOT
BRANCH   2   3
HETATM    3  C   UNL     1      -9.746   8.958  66.374  1.00  0.00    -0.332 C  
BRANCH   3   4
HETATM    4  C   UNL     1     -10.052  10.459  66.426  1.00  0.00    -0.287 C  
BRANCH   4   5
HETATM    5  C   UNL     1     -10.791  10.761  67.728  1.00  0.00    -0.269 C  
BRANCH   5   6
HETATM    6  O   UNL     1     -12.042  11.436  67.541  1.00  0.00    -0.592 OA 
BRANCH   6   7
HETATM    7  C   UNL     1     -11.950  12.528  66.741  1.00  0.00    -0.257 C  
HETATM    8  O   UNL     1     -12.549  12.649  65.685  1.00  0.00    -0.611 OA 
HETATM    9  N   UNL     1     -11.073  13.420  67.303  1.00  0.00    -0.276 N  
HETATM   10  H   UNL     1     -10.429  13.059  68.007  1.00  0.00     0.000 HD 
BRANCH   9  11
HETATM   11  C   UNL     1     -10.988  14.756  66.998  1.00  0.00    -0.324 C  
HETATM   12  N   UNL     1     -10.929  15.180  65.786  1.00  0.00    -0.344 N  
HETATM   13  C   UNL     1     -10.781  16.531  65.561  1.00  0.00    -0.256 C  
HETATM   14  H   UNL     1     -10.991  14.528  65.004  1.00  0.00     0.000 HD 
HETATM   15  N   UNL     1     -10.292  17.304  66.633  1.00  0.00    -0.319 N  
HETATM   16  O   UNL     1     -11.045  17.005  64.463  1.00  0.00    -1.098 OA 
HETATM   17  F   UNL     1     -11.224  15.137  69.390  1.00  0.00    -0.231 F  
HETATM   18  C   UNL     1     -10.558  16.884  67.931  1.00  0.00    -0.361 C  
HETATM   19  C   UNL     1     -10.964  15.638  68.170  1.00  0.00    -0.314 C  
BRANCH  15  20
HETATM   20  C   UNL     1      -9.807  18.669  66.379  1.00  0.00    -0.367 C  
HETATM   21  C   UNL     1      -7.477  18.710  66.658  1.00  0.00    -0.234 C  
HETATM   22  O   UNL     1      -8.536  18.652  65.700  1.00  0.00    -0.357 OA 
HETATM   23  C   UNL     1      -7.070  17.302  67.078  1.00  0.00    -0.221 C  
HETATM   24  C   UNL     1      -8.015  19.571  67.794  1.00  0.00    -0.294 C  
HETATM   25  O   UNL     1      -7.596  20.941  67.673  1.00  0.00    -0.272 OA 
HETATM   26  C   UNL     1      -9.541  19.503  67.653  1.00  0.00    -0.336 C  
HETATM   27  H   UNL     1      -7.932  21.478  68.382  1.00  0.00     0.000 HD 
HETATM   28  O   UNL     1     -10.132  20.806  67.523  1.00  0.00    -0.352 OA 
HETATM   29  H   UNL     1      -9.969  21.319  68.305  1.00  0.00     0.000 HD 
ENDBRANCH  15  20
ENDBRANCH   9  11
ENDBRANCH   6   7
ENDBRANCH   5   6
ENDBRANCH   4   5
ENDBRANCH   3   4
ENDBRANCH   2   3
TORSDOF 7
ENDMDL
MODEL       10
REMARK 921   NORMALIZED FREE ENERGY PREDICTED BY IDOCK:   -6.10 KCAL/MOL
REMARK 922        TOTAL FREE ENERGY PREDICTED BY IDOCK:   -9.70 KCAL/MOL
REMARK 923 INTER-LIGAND FREE ENERGY PREDICTED BY IDOCK:   -8.75 KCAL/MOL
REMARK 924 INTRA-LIGAND FREE ENERGY PREDICTED BY IDOCK:   -0.95 KCAL/MOL
REMARK 927      BINDING AFFINITY PREDICTED BY RF-SCORE:    0.00 PKD
ROOT
HETATM    1  C   UNL     1     -10.569  14.734  65.008  1.00  0.00    -0.452 C  
HETATM    2  C   UNL     1     -11.895  14.164  64.517  1.00  0.00    -0.451 C  
ENDROOT
BRANCH   2   3
HETATM    3  C   UNL     1     -11.662  13.076  63.475  1.00  0.00    -0.532 C  
BRANCH   3   4
HETATM    4  C   UNL     1     -10.303  12.380  63.612  1.00  0.00    -0.434 C  
BRANCH   4   5
HETATM    5  C   UNL     1     -10.538  10.887  63.833  1.00  0.00    -0.214 C  
BRANCH   5   6
HETATM    6  O   UNL     1      -9.344  10.148  64.119  1.00  0.00    -0.250 OA 
BRANCH   6   7
HETATM    7  C   UNL     1      -9.011  10.151  65.434  1.00  0.00    -0.177 C  
HETATM    8  O   UNL     1      -7.888  10.382  65.850  1.00  0.00    -0.137 OA 
HETATM    9  N   UNL     1     -10.119   9.830  66.176  1.00  0.00    -0.260 N  
HETATM   10  H   UNL     1     -10.888   9.369  65.689  1.00  0.00     0.000 HD 
BRANCH   9  11
HETATM   11  C   UNL     1     -10.282  10.076  67.517  1.00  0.00    -0.212 C  
HETATM   12  N   UNL     1      -9.580   9.479  68.413  1.00  0.00    -0.141 N  
HETATM   13  C   UNL     1      -9.844   9.731  69.741  1.00  0.00    -0.234 C  
HETATM   14  H   UNL     1      -8.840   8.831  68.146  1.00  0.00     0.000 HD 
HETATM   15  N   UNL     1     -11.104  10.284  70.045  1.00  0.00    -0.289 N  
HETATM   16  O   UNL     1      -9.014   9.454  70.598  1.00  0.00    -0.238 OA 
HETATM   17  F   UNL     1     -11.874  11.783  66.832  1.00  0.00    -0.367 F  
HETATM   18  C   UNL     1     -11.726  11.083  69.092  1.00  0.00    -0.333 C  
HETATM   19  C   UNL     1     -11.322  11.064  67.823  1.00  0.00    -0.292 C  
BRANCH  15  20
HETATM   20  C   UNL     1     -11.580  10.280  71.436  1.00  0.00    -0.145 C  
HETATM   21  C   UNL     1     -12.313   8.117  71.980  1.00  0.00    -0.338 C  
HETATM   22  O   UNL     1     -11.235   9.048  72.101  1.00  0.00    -0.351 OA 
HETATM   23  C   UNL     1     -12.144   7.277  70.720  1.00  0.00    -0.284 C  
HETATM   24  C   UNL     1     -13.578   8.969  72.000  1.00  0.00    -0.445 C  
HETATM   25  O   UNL     1     -14.158   9.034  73.313  1.00  0.00    -1.218 OA 
HETATM   26  C   UNL     1     -13.116  10.373  71.590  1.00  0.00    -0.448 C  
HETATM   27  H   UNL     1     -14.947   9.565  73.325  1.00  0.00     0.000 HD 
HETATM   28  O   UNL     1     -13.454  11.364  72.572  1.00  0.00    -0.505 OA 
HETATM   29  H   UNL     1     -14.398  11.421  72.667  1.00  0.00     0.000 HD 
ENDBRANCH  15  20
ENDBRANCH   9  11
ENDBRANCH   6   7
ENDBRANCH   5   6
ENDBRANCH   4   5
ENDBRANCH   3   4
ENDBRANCH   2   3
TORSDOF 7
ENDMDL
MODEL       11
REMARK 921   NORMALIZED FREE ENERGY PREDICTED BY IDOCK:   -6.09 KCAL/MOL
REMARK 922        TOTAL FREE ENERGY PREDICTED BY IDOCK:   -9.69 KCAL/MOL
REMARK 923 INTER-LIGAND FREE ENERGY PREDICTED BY IDOCK:   -8.99 KCAL/MOL
REMARK 924 INTRA-LIGAND FREE ENERGY PREDICTED BY IDOCK:   -0.70 KCAL/MOL
REMARK 927      BINDING AFFINITY PREDICTED BY RF-SCORE:    0.00 PKD
ROOT
HETATM    1  C   UNL     1     -10.720  11.882  63.288  1.00  0.00    -0.415 C  
HETATM    2  C   UNL     1     -12.011  12.252  64.009  1.00  0.00    -0.551 C  
ENDROOT
BRANCH   2   3
HETATM    3  C   UNL     1     -12.029  13.737  64.356  1.00  0.00    -0.480 C  
BRANCH   3   4
HETATM    4  C   UNL     1     -12.218  14.012  65.853  1.00  0.00    -0.481 C  
BRANCH   4   5
HETATM    5  C   UNL     1     -10.890  14.497  66.431  1.00  0.00    -0.318 C  
BRANCH   5   6
HETATM    6  O   UNL     1      -9.837  13.528  66.357  1.00  0.00    -0.281 OA 
BRANCH   6   7
HETATM    7  C   UNL     1      -9.536  12.967  67.555  1.00  0.00    -0.204 C  
HETATM    8  O   UNL     1      -8.668  13.385  68.303  1.00  0.00    -0.176 OA 
HETATM    9  N   UNL     1     -10.337  11.870  67.748  1.00  0.00    -0.195 N  
HETATM   10  H   UNL     1     -10.785  11.470  66.924  1.00  0.00     0.000 HD 
BRANCH   9  11
HETATM   11  C   UNL     1     -10.588  11.266  68.956  1.00  0.00    -0.208 C  
HETATM   12  N   UNL     1      -9.769  10.428  69.485  1.00  0.00    -0.351 N  
HETATM   13  C   UNL     1     -10.119   9.815  70.667  1.00  0.00    -0.182 C  
HETATM   14  H   UNL     1      -8.876  10.222  69.038  1.00  0.00     0.000 HD 
HETATM   15  N   UNL     1     -11.487   9.815  71.004  1.00  0.00    -0.352 N  
HETATM   16  O   UNL     1      -9.262   9.280  71.361  1.00  0.00    -0.282 OA 
HETATM   17  F   UNL     1     -12.567  12.677  69.053  1.00  0.00    -0.056 F  
HETATM   18  C   UNL     1     -12.282  10.862  70.552  1.00  0.00    -0.367 C  
HETATM   19  C   UNL     1     -11.861  11.657  69.569  1.00  0.00    -0.348 C  
BRANCH  15  20
HETATM   20  C   UNL     1     -11.972   8.918  72.063  1.00  0.00    -0.369 C  
HETATM   21  C   UNL     1     -12.131   6.742  71.199  1.00  0.00    -0.370 C  
HETATM   22  O   UNL     1     -11.333   7.628  71.986  1.00  0.00    -0.255 OA 
HETATM   23  C   UNL     1     -11.725   6.832  69.732  1.00  0.00    -0.222 C  
HETATM   24  C   UNL     1     -13.572   7.151  71.476  1.00  0.00    -0.319 C  
HETATM   25  O   UNL     1     -14.176   6.333  72.492  1.00  0.00    -0.624 OA 
HETATM   26  C   UNL     1     -13.482   8.594  71.988  1.00  0.00    -0.403 C  
HETATM   27  H   UNL     1     -15.075   6.588  72.664  1.00  0.00     0.000 HD 
HETATM   28  O   UNL     1     -14.085   8.750  73.282  1.00  0.00    -1.180 OA 
HETATM   29  H   UNL     1     -15.013   8.550  73.236  1.00  0.00     0.000 HD 
ENDBRANCH  15  20
ENDBRANCH   9  11
ENDBRANCH   6   7
ENDBRANCH   5   6
ENDBRANCH   4   5
ENDBRANCH   3   4
ENDBRANCH   2   3
TORSDOF 7
ENDMDL
MODEL       12
REMARK 921   NORMALIZED FREE ENERGY PREDICTED BY IDOCK:   -6.09 KCAL/MOL
REMARK 922        TOTAL FREE ENERGY PREDICTED BY IDOCK:   -9.69 KCAL/MOL
REMARK 923 INTER-LIGAND FREE ENERGY PREDICTED BY IDOCK:   -8.84 KCAL/MOL
REMARK 924 INTRA-LIGAND FREE ENERGY PREDICTED BY IDOCK:   -0.85 KCAL/MOL
REMARK 927      BINDING AFFINITY PREDICTED BY RF-SCORE:    0.00 PKD
ROOT
HETATM    1  C   UNL     1     -12.284  13.479  63.739  1.00  0.00    -0.449 C  
HETATM    2  C   UNL     1     -12.369  11.973  63.521  1.00  0.00    -0.661 C  
ENDROOT
BRANCH   2   3
HETATM    3  C   UNL     1     -11.014  11.316  63.756  1.00  0.00    -0.381 C  
BRANCH   3   4
HETATM    4  C   UNL     1     -10.298  11.825  65.013  1.00  0.00    -0.325 C  
BRANCH   4   5
HETATM    5  C   UNL     1     -10.891  11.122  66.232  1.00  0.00    -0.205 C  
BRANCH   5   6
HETATM    6  O   UNL     1     -12.053  11.770  66.766  1.00  0.00    -0.547 OA 
BRANCH   6   7
HETATM    7  C   UNL     1     -11.768  12.658  67.752  1.00  0.00    -0.356 C  
HETATM    8  O   UNL     1     -11.695  12.362  68.933  1.00  0.00    -0.288 OA 
HETATM    9  N   UNL     1     -11.614  13.903  67.199  1.00  0.00    -0.343 N  
HETATM   10  H   UNL     1     -12.002  14.051  66.268  1.00  0.00     0.000 HD 
BRANCH   9  11
HETATM   11  C   UNL     1     -10.982  14.969  67.793  1.00  0.00    -0.298 C  
HETATM   12  N   UNL     1     -11.472  15.572  68.816  1.00  0.00    -0.335 N  
HETATM   13  C   UNL     1     -10.813  16.673  69.317  1.00  0.00    -0.310 C  
HETATM   14  H   UNL     1     -12.335  15.243  69.249  1.00  0.00     0.000 HD 
HETATM   15  N   UNL     1      -9.898  17.312  68.458  1.00  0.00    -0.291 N  
HETATM   16  O   UNL     1     -11.049  17.068  70.452  1.00  0.00     0.068 OA 
HETATM   17  F   UNL     1      -9.177  14.553  66.215  1.00  0.00    -0.283 F  
HETATM   18  C   UNL     1      -9.255  16.552  67.487  1.00  0.00    -0.202 C  
HETATM   19  C   UNL     1      -9.718  15.348  67.153  1.00  0.00    -0.216 C  
BRANCH  15  20
HETATM   20  C   UNL     1      -9.405  18.656  68.795  1.00  0.00    -0.300 C  
HETATM   21  C   UNL     1      -9.945  20.123  67.043  1.00  0.00    -0.456 C  
HETATM   22  O   UNL     1     -10.322  19.674  68.347  1.00  0.00    -0.431 OA 
HETATM   23  C   UNL     1     -10.637  19.282  65.977  1.00  0.00    -0.550 C  
HETATM   24  C   UNL     1      -8.424  20.037  67.018  1.00  0.00    -0.333 C  
HETATM   25  O   UNL     1      -7.811  21.302  67.319  1.00  0.00    -0.678 OA 
HETATM   26  C   UNL     1      -8.065  19.036  68.123  1.00  0.00    -0.312 C  
HETATM   27  H   UNL     1      -6.862  21.249  67.302  1.00  0.00     0.000 HD 
HETATM   28  O   UNL     1      -7.169  19.597  69.094  1.00  0.00    -0.354 OA 
HETATM   29  H   UNL     1      -6.345  19.831  68.682  1.00  0.00     0.000 HD 
ENDBRANCH  15  20
ENDBRANCH   9  11
ENDBRANCH   6   7
ENDBRANCH   5   6
ENDBRANCH   4   5
ENDBRANCH   3   4
ENDBRANCH   2   3
TORSDOF 7
ENDMDL
MODEL       13
REMARK 921   NORMALIZED FREE ENERGY PREDICTED BY IDOCK:   -6.06 KCAL/MOL
REMARK 922        TOTAL FREE ENERGY PREDICTED BY IDOCK:   -9.64 KCAL/MOL
REMARK 923 INTER-LIGAND FREE ENERGY PREDICTED BY IDOCK:   -8.58 KCAL/MOL
REMARK 924 INTRA-LIGAND FREE ENERGY PREDICTED BY IDOCK:   -1.05 KCAL/MOL
REMARK 927      BINDING AFFINITY PREDICTED BY RF-SCORE:    0.00 PKD
ROOT
HETATM    1  C   UNL     1     -12.149  13.314  63.369  1.00  0.00    -0.508 C  
HETATM    2  C   UNL     1     -11.858  12.126  64.280  1.00  0.00    -0.460 C  
ENDROOT
BRANCH   2   3
HETATM    3  C   UNL     1     -10.360  11.855  64.352  1.00  0.00    -0.341 C  
BRANCH   3   4
HETATM    4  C   UNL     1      -9.905  11.303  65.709  1.00  0.00    -0.273 C  
BRANCH   4   5
HETATM    5  C   UNL     1     -11.136  11.086  66.585  1.00  0.00    -0.133 C  
BRANCH   5   6
HETATM    6  O   UNL     1     -10.999  11.603  67.915  1.00  0.00    -0.200 OA 
BRANCH   6   7
HETATM    7  C   UNL     1     -10.473  12.853  67.955  1.00  0.00    -0.224 C  
HETATM    8  O   UNL     1      -9.328  13.098  68.298  1.00  0.00    -0.212 OA 
HETATM    9  N   UNL     1     -11.436  13.755  67.582  1.00  0.00    -0.305 N  
HETATM   10  H   UNL     1     -12.406  13.444  67.624  1.00  0.00     0.000 HD 
BRANCH   9  11
HETATM   11  C   UNL     1     -11.205  15.040  67.155  1.00  0.00    -0.336 C  
HETATM   12  N   UNL     1     -11.068  15.335  65.911  1.00  0.00    -0.320 N  
HETATM   13  C   UNL     1     -10.775  16.635  65.566  1.00  0.00    -0.223 C  
HETATM   14  H   UNL     1     -11.174  14.619  65.193  1.00  0.00     0.000 HD 
HETATM   15  N   UNL     1     -10.242  17.458  66.577  1.00  0.00    -0.323 N  
HETATM   16  O   UNL     1     -10.958  17.023  64.418  1.00  0.00    -0.993 OA 
HETATM   17  F   UNL     1     -11.471  15.675  69.489  1.00  0.00    -0.257 F  
HETATM   18  C   UNL     1     -10.587  17.196  67.898  1.00  0.00    -0.376 C  
HETATM   19  C   UNL     1     -11.126  16.025  68.238  1.00  0.00    -0.351 C  
BRANCH  15  20
HETATM   20  C   UNL     1      -9.612  18.736  66.214  1.00  0.00    -0.297 C  
HETATM   21  C   UNL     1      -7.298  18.571  66.575  1.00  0.00    -0.232 C  
HETATM   22  O   UNL     1      -8.331  18.526  65.588  1.00  0.00    -0.393 OA 
HETATM   23  C   UNL     1      -7.051  17.178  67.141  1.00  0.00    -0.208 C  
HETATM   24  C   UNL     1      -7.777  19.589  67.604  1.00  0.00    -0.273 C  
HETATM   25  O   UNL     1      -7.216  20.891  67.370  1.00  0.00    -0.348 OA 
HETATM   26  C   UNL     1      -9.297  19.660  67.413  1.00  0.00    -0.326 C  
HETATM   27  H   UNL     1      -7.514  21.526  68.012  1.00  0.00     0.000 HD 
HETATM   28  O   UNL     1      -9.747  20.996  67.138  1.00  0.00    -0.669 OA 
HETATM   29  H   UNL     1      -9.553  21.564  67.875  1.00  0.00     0.000 HD 
ENDBRANCH  15  20
ENDBRANCH   9  11
ENDBRANCH   6   7
ENDBRANCH   5   6
ENDBRANCH   4   5
ENDBRANCH   3   4
ENDBRANCH   2   3
TORSDOF 7
ENDMDL
MODEL       14
REMARK 921   NORMALIZED FREE ENERGY PREDICTED BY IDOCK:   -6.02 KCAL/MOL
REMARK 922        TOTAL FREE ENERGY PREDICTED BY IDOCK:   -9.58 KCAL/MOL
REMARK 923 INTER-LIGAND FREE ENERGY PREDICTED BY IDOCK:   -8.56 KCAL/MOL
REMARK 924 INTRA-LIGAND FREE ENERGY PREDICTED BY IDOCK:   -1.02 KCAL/MOL
REMARK 927      BINDING AFFINITY PREDICTED BY RF-SCORE:    0.00 PKD
ROOT
HETATM    1  C   UNL     1     -10.680   8.856  71.905  1.00  0.00    -0.426 C  
HETATM    2  C   UNL     1     -12.195   8.754  72.036  1.00  0.00    -0.447 C  
ENDROOT
BRANCH   2   3
HETATM    3  C   UNL     1     -12.885   9.804  71.172  1.00  0.00    -0.434 C  
BRANCH   3   4
HETATM    4  C   UNL     1     -13.156  11.120  71.909  1.00  0.00    -0.513 C  
BRANCH   4   5
HETATM    5  C   UNL     1     -12.557  12.267  71.097  1.00  0.00    -0.253 C  
BRANCH   5   6
HETATM    6  O   UNL     1     -13.067  13.558  71.454  1.00  0.00    -0.341 OA 
BRANCH   6   7
HETATM    7  C   UNL     1     -12.233  14.576  71.122  1.00  0.00    -0.345 C  
HETATM    8  O   UNL     1     -11.954  15.497  71.871  1.00  0.00    -0.342 OA 
HETATM    9  N   UNL     1     -11.805  14.399  69.831  1.00  0.00    -0.304 N  
HETATM   10  H   UNL     1     -12.351  13.772  69.241  1.00  0.00     0.000 HD 
BRANCH   9  11
HETATM   11  C   UNL     1     -10.702  14.994  69.267  1.00  0.00    -0.248 C  
HETATM   12  N   UNL     1      -9.605  15.158  69.916  1.00  0.00    -0.474 N  
HETATM   13  C   UNL     1      -8.564  15.820  69.304  1.00  0.00    -0.259 C  
HETATM   14  H   UNL     1      -9.507  14.805  70.868  1.00  0.00     0.000 HD 
HETATM   15  N   UNL     1      -8.887  16.626  68.194  1.00  0.00    -0.201 N  
HETATM   16  O   UNL     1      -7.425  15.713  69.741  1.00  0.00    -0.175 OA 
HETATM   17  F   UNL     1     -12.000  15.043  67.210  1.00  0.00    -0.355 F  
HETATM   18  C   UNL     1      -9.986  16.277  67.418  1.00  0.00    -0.249 C  
HETATM   19  C   UNL     1     -10.898  15.421  67.878  1.00  0.00    -0.300 C  
BRANCH  15  20
HETATM   20  C   UNL     1      -7.905  17.600  67.697  1.00  0.00    -0.207 C  
HETATM   21  C   UNL     1      -8.589  19.756  68.327  1.00  0.00    -0.272 C  
HETATM   22  O   UNL     1      -7.711  18.673  68.640  1.00  0.00    -0.306 OA 
HETATM   23  C   UNL     1      -9.915  19.588  69.060  1.00  0.00    -0.490 C  
HETATM   24  C   UNL     1      -8.709  19.743  66.807  1.00  0.00    -0.339 C  
HETATM   25  O   UNL     1      -7.804  20.673  66.191  1.00  0.00    -0.506 OA 
HETATM   26  C   UNL     1      -8.318  18.319  66.392  1.00  0.00    -0.243 C  
HETATM   27  H   UNL     1      -7.879  20.666  65.243  1.00  0.00     0.000 HD 
HETATM   28  O   UNL     1      -7.229  18.307  65.456  1.00  0.00    -0.536 OA 
HETATM   29  H   UNL     1      -7.483  18.749  64.653  1.00  0.00     0.000 HD 
ENDBRANCH  15  20
ENDBRANCH   9  11
ENDBRANCH   6   7
ENDBRANCH   5   6
ENDBRANCH   4   5
ENDBRANCH   3   4
ENDBRANCH   2   3
TORSDOF 7
ENDMDL
MODEL       15
REMARK 921   NORMALIZED FREE ENERGY PREDICTED BY IDOCK:   -5.95 KCAL/MOL
REMARK 922        TOTAL FREE ENERGY PREDICTED BY IDOCK:   -9.49 KCAL/MOL
REMARK 923 INTER-LIGAND FREE ENERGY PREDICTED BY IDOCK:   -8.24 KCAL/MOL
REMARK 924 INTRA-LIGAND FREE ENERGY PREDICTED BY IDOCK:   -1.25 KCAL/MOL
REMARK 927      BINDING AFFINITY PREDICTED BY RF-SCORE:    0.00 PKD
ROOT
HETATM    1  C   UNL     1      -9.501   8.119  72.692  1.00  0.00    -0.346 C  
HETATM    2  C   UNL     1     -10.752   7.466  73.269  1.00  0.00    -0.441 C  
ENDROOT
BRANCH   2   3
HETATM    3  C   UNL     1     -11.664   6.966  72.154  1.00  0.00    -0.327 C  
BRANCH   3   4
HETATM    4  C   UNL     1     -10.967   6.011  71.178  1.00  0.00    -0.341 C  
BRANCH   4   5
HETATM    5  C   UNL     1     -11.388   6.375  69.755  1.00  0.00    -0.427 C  
BRANCH   5   6
HETATM    6  O   UNL     1     -10.295   6.737  68.902  1.00  0.00    -0.173 OA 
BRANCH   6   7
HETATM    7  C   UNL     1     -10.497   7.900  68.233  1.00  0.00    -0.164 C  
HETATM    8  O   UNL     1     -10.557   7.983  67.017  1.00  0.00    -0.335 OA 
HETATM    9  N   UNL     1     -10.590   8.926  69.138  1.00  0.00    -0.296 N  
HETATM   10  H   UNL     1     -10.219   8.757  70.073  1.00  0.00     0.000 HD 
BRANCH   9  11
HETATM   11  C   UNL     1     -11.139  10.161  68.893  1.00  0.00    -0.207 C  
HETATM   12  N   UNL     1     -11.209  10.657  67.709  1.00  0.00    -0.326 N  
HETATM   13  C   UNL     1     -11.715  11.928  67.550  1.00  0.00    -0.265 C  
HETATM   14  H   UNL     1     -10.895  10.119  66.901  1.00  0.00     0.000 HD 
HETATM   15  N   UNL     1     -11.735  12.752  68.693  1.00  0.00    -0.307 N  
HETATM   16  O   UNL     1     -12.099  12.304  66.449  1.00  0.00    -0.623 OA 
HETATM   17  F   UNL     1     -11.694  10.190  71.261  1.00  0.00    -0.391 F  
HETATM   18  C   UNL     1     -11.854  12.153  69.941  1.00  0.00    -0.319 C  
HETATM   19  C   UNL     1     -11.624  10.850  70.093  1.00  0.00    -0.338 C  
BRANCH  15  20
HETATM   20  C   UNL     1     -11.952  14.198  68.538  1.00  0.00    -0.332 C  
HETATM   21  C   UNL     1      -9.867  15.268  68.408  1.00  0.00    -0.216 C  
HETATM   22  O   UNL     1     -10.977  14.779  67.651  1.00  0.00    -0.274 OA 
HETATM   23  C   UNL     1      -8.815  14.177  68.562  1.00  0.00    -0.173 C  
HETATM   24  C   UNL     1     -10.466  15.751  69.724  1.00  0.00    -0.317 C  
HETATM   25  O   UNL     1     -10.715  17.167  69.711  1.00  0.00    -0.353 OA 
HETATM   26  C   UNL     1     -11.805  15.012  69.844  1.00  0.00    -0.324 C  
HETATM   27  H   UNL     1     -11.087  17.468  70.532  1.00  0.00     0.000 HD 
HETATM   28  O   UNL     1     -12.912  15.915  69.991  1.00  0.00    -0.621 OA 
HETATM   29  H   UNL     1     -12.821  16.416  70.793  1.00  0.00     0.000 HD 
ENDBRANCH  15  20
ENDBRANCH   9  11
ENDBRANCH   6   7
ENDBRANCH   5   6
ENDBRANCH   4   5
ENDBRANCH   3   4
ENDBRANCH   2   3
TORSDOF 7
ENDMDL
MODEL       16
REMARK 921   NORMALIZED FREE ENERGY PREDICTED BY IDOCK:   -5.92 KCAL/MOL
REMARK 922        TOTAL FREE ENERGY PREDICTED BY IDOCK:   -9.45 KCAL/MOL
REMARK 923 INTER-LIGAND FREE ENERGY PREDICTED BY IDOCK:   -8.44 KCAL/MOL
REMARK 924 INTRA-LIGAND FREE ENERGY PREDICTED BY IDOCK:   -1.01 KCAL/MOL
REMARK 927      BINDING AFFINITY PREDICTED BY RF-SCORE:    0.00 PKD
ROOT
HETATM    1  C   UNL     1     -12.436  11.923  63.445  1.00  0.00    -0.582 C  
HETATM    2  C   UNL     1     -11.013  12.455  63.572  1.00  0.00    -0.506 C  
ENDROOT
BRANCH   2   3
HETATM    3  C   UNL     1     -10.934  13.538  64.642  1.00  0.00    -0.395 C  
BRANCH   3   4
HETATM    4  C   UNL     1     -12.215  13.668  65.475  1.00  0.00    -0.476 C  
BRANCH   4   5
HETATM    5  C   UNL     1     -11.876  14.381  66.782  1.00  0.00    -0.410 C  
BRANCH   5   6
HETATM    6  O   UNL     1     -12.258  13.651  67.955  1.00  0.00    -0.323 OA 
BRANCH   6   7
HETATM    7  C   UNL     1     -11.268  12.862  68.444  1.00  0.00    -0.270 C  
HETATM    8  O   UNL     1     -10.080  13.112  68.328  1.00  0.00    -0.237 OA 
HETATM    9  N   UNL     1     -11.829  11.763  69.043  1.00  0.00    -0.315 N  
HETATM   10  H   UNL     1     -12.792  11.539  68.796  1.00  0.00     0.000 HD 
BRANCH   9  11
HETATM   11  C   UNL     1     -11.203  10.939  69.947  1.00  0.00    -0.282 C  
HETATM   12  N   UNL     1      -9.994  10.535  69.781  1.00  0.00    -0.429 N  
HETATM   13  C   UNL     1      -9.456   9.658  70.698  1.00  0.00    -0.124 C  
HETATM   14  H   UNL     1      -9.443  10.856  68.986  1.00  0.00     0.000 HD 
HETATM   15  N   UNL     1     -10.364   8.945  71.506  1.00  0.00    -0.296 N  
HETATM   16  O   UNL     1      -8.242   9.509  70.768  1.00  0.00    -0.251 OA 
HETATM   17  F   UNL     1     -13.214  11.181  71.295  1.00  0.00    -0.441 F  
HETATM   18  C   UNL     1     -11.590   9.530  71.803  1.00  0.00    -0.312 C  
HETATM   19  C   UNL     1     -12.036  10.567  71.094  1.00  0.00    -0.370 C  
BRANCH  15  20
HETATM   20  C   UNL     1      -9.895   7.778  72.265  1.00  0.00    -0.192 C  
HETATM   21  C   UNL     1     -10.522   5.826  71.121  1.00  0.00    -0.239 C  
HETATM   22  O   UNL     1      -9.446   6.729  71.384  1.00  0.00    -0.161 OA 
HETATM   23  C   UNL     1     -11.302   6.281  69.893  1.00  0.00    -0.504 C  
HETATM   24  C   UNL     1     -11.340   5.798  72.407  1.00  0.00    -0.294 C  
HETATM   25  O   UNL     1     -10.987   4.683  73.243  1.00  0.00    -0.249 OA 
HETATM   26  C   UNL     1     -10.979   7.099  73.135  1.00  0.00    -0.305 C  
HETATM   27  H   UNL     1     -11.497   4.665  74.044  1.00  0.00     0.000 HD 
HETATM   28  O   UNL     1     -10.472   6.858  74.457  1.00  0.00    -0.476 OA 
HETATM   29  H   UNL     1     -11.137   6.441  74.991  1.00  0.00     0.000 HD 
ENDBRANCH  15  20
ENDBRANCH   9  11
ENDBRANCH   6   7
ENDBRANCH   5   6
ENDBRANCH   4   5
ENDBRANCH   3   4
ENDBRANCH   2   3
TORSDOF 7
ENDMDL
MODEL       17
REMARK 921   NORMALIZED FREE ENERGY PREDICTED BY IDOCK:   -5.88 KCAL/MOL
REMARK 922        TOTAL FREE ENERGY PREDICTED BY IDOCK:   -9.39 KCAL/MOL
REMARK 923 INTER-LIGAND FREE ENERGY PREDICTED BY IDOCK:   -9.20 KCAL/MOL
REMARK 924 INTRA-LIGAND FREE ENERGY PREDICTED BY IDOCK:   -0.20 KCAL/MOL
REMARK 927      BINDING AFFINITY PREDICTED BY RF-SCORE:    0.00 PKD
ROOT
HETATM    1  C   UNL     1      -6.774  16.323  67.181  1.00  0.00    -0.237 C  
HETATM    2  C   UNL     1      -6.679  17.501  68.144  1.00  0.00    -0.191 C  
ENDROOT
BRANCH   2   3
HETATM    3  C   UNL     1      -6.514  18.811  67.381  1.00  0.00    -0.193 C  
BRANCH   3   4
HETATM    4  C   UNL     1      -7.600  19.845  67.701  1.00  0.00    -0.324 C  
BRANCH   4   5
HETATM    5  C   UNL     1      -8.264  19.461  69.022  1.00  0.00    -0.231 C  
BRANCH   5   6
HETATM    6  O   UNL     1      -9.672  19.726  69.060  1.00  0.00    -0.372 OA 
BRANCH   6   7
HETATM    7  C   UNL     1     -10.384  18.982  68.176  1.00  0.00    -0.368 C  
HETATM    8  O   UNL     1     -10.977  19.449  67.217  1.00  0.00    -0.491 OA 
HETATM    9  N   UNL     1     -10.338  17.666  68.561  1.00  0.00    -0.369 N  
HETATM   10  H   UNL     1     -10.075  17.473  69.527  1.00  0.00     0.000 HD 
BRANCH   9  11
HETATM   11  C   UNL     1     -10.616  16.588  67.756  1.00  0.00    -0.332 C  
HETATM   12  N   UNL     1     -10.283  16.556  66.515  1.00  0.00    -0.291 N  
HETATM   13  C   UNL     1     -10.653  15.467  65.757  1.00  0.00    -0.356 C  
HETATM   14  H   UNL     1      -9.754  17.322  66.099  1.00  0.00     0.000 HD 
HETATM   15  N   UNL     1     -11.704  14.672  66.255  1.00  0.00    -0.354 N  
HETATM   16  O   UNL     1     -10.092  15.240  64.691  1.00  0.00    -0.147 OA 
HETATM   17  F   UNL     1     -11.464  15.524  69.773  1.00  0.00    -0.248 F  
HETATM   18  C   UNL     1     -11.890  14.602  67.631  1.00  0.00    -0.337 C  
HETATM   19  C   UNL     1     -11.324  15.499  68.438  1.00  0.00    -0.354 C  
BRANCH  15  20
HETATM   20  C   UNL     1     -12.362  13.703  65.367  1.00  0.00    -0.476 C  
HETATM   21  C   UNL     1     -11.208  11.662  65.484  1.00  0.00    -0.205 C  
HETATM   22  O   UNL     1     -12.355  12.381  65.942  1.00  0.00    -0.638 OA 
HETATM   23  C   UNL     1     -10.035  11.886  66.431  1.00  0.00    -0.237 C  
HETATM   24  C   UNL     1     -10.969  12.157  64.063  1.00  0.00    -0.380 C  
HETATM   25  O   UNL     1     -11.554  11.281  63.085  1.00  0.00    -0.847 OA 
HETATM   26  C   UNL     1     -11.673  13.518  63.995  1.00  0.00    -0.395 C  
HETATM   27  H   UNL     1     -11.405  11.589  62.199  1.00  0.00     0.000 HD 
HETATM   28  O   UNL     1     -12.647  13.574  62.941  1.00  0.00    -0.825 OA 
HETATM   29  H   UNL     1     -12.224  13.460  62.098  1.00  0.00     0.000 HD 
ENDBRANCH  15  20
ENDBRANCH   9  11
ENDBRANCH   6   7
ENDBRANCH   5   6
ENDBRANCH   4   5
ENDBRANCH   3   4
ENDBRANCH   2   3
TORSDOF 7
ENDMDL
MODEL       18
REMARK 921   NORMALIZED FREE ENERGY PREDICTED BY IDOCK:   -5.83 KCAL/MOL
REMARK 922        TOTAL FREE ENERGY PREDICTED BY IDOCK:   -9.32 KCAL/MOL
REMARK 923 INTER-LIGAND FREE ENERGY PREDICTED BY IDOCK:   -8.48 KCAL/MOL
REMARK 924 INTRA-LIGAND FREE ENERGY PREDICTED BY IDOCK:   -0.85 KCAL/MOL
REMARK 927      BINDING AFFINITY PREDICTED BY RF-SCORE:    0.00 PKD
ROOT
HETATM    1  C   UNL     1      -6.148  20.901  66.717  1.00  0.00    -0.311 C  
HETATM    2  C   UNL     1      -7.255  20.441  67.659  1.00  0.00    -0.346 C  
ENDROOT
BRANCH   2   3
HETATM    3  C   UNL     1      -8.592  20.377  66.929  1.00  0.00    -0.330 C  
BRANCH   3   4
HETATM    4  C   UNL     1      -9.803  20.398  67.871  1.00  0.00    -0.433 C  
BRANCH   4   5
HETATM    5  C   UNL     1     -10.429  19.005  67.891  1.00  0.00    -0.393 C  
BRANCH   5   6
HETATM    6  O   UNL     1     -10.127  18.250  69.071  1.00  0.00    -0.379 OA 
BRANCH   6   7
HETATM    7  C   UNL     1     -10.504  16.949  68.989  1.00  0.00    -0.341 C  
HETATM    8  O   UNL     1     -10.979  16.319  69.919  1.00  0.00    -0.337 OA 
HETATM    9  N   UNL     1     -10.235  16.486  67.726  1.00  0.00    -0.269 N  
HETATM   10  H   UNL     1      -9.569  17.018  67.167  1.00  0.00     0.000 HD 
BRANCH   9  11
HETATM   11  C   UNL     1     -10.786  15.367  67.151  1.00  0.00    -0.314 C  
HETATM   12  N   UNL     1     -11.115  14.334  67.842  1.00  0.00    -0.269 N  
HETATM   13  C   UNL     1     -11.603  13.225  67.187  1.00  0.00    -0.357 C  
HETATM   14  H   UNL     1     -11.017  14.335  68.857  1.00  0.00     0.000 HD 
HETATM   15  N   UNL     1     -11.328  13.128  65.809  1.00  0.00    -0.300 N  
HETATM   16  O   UNL     1     -12.222  12.367  67.805  1.00  0.00    -0.395 OA 
HETATM   17  F   UNL     1     -10.768  16.637  65.077  1.00  0.00    -0.372 F  
HETATM   18  C   UNL     1     -11.170  14.300  65.079  1.00  0.00    -0.364 C  
HETATM   19  C   UNL     1     -10.953  15.460  65.698  1.00  0.00    -0.326 C  
BRANCH  15  20
HETATM   20  C   UNL     1     -11.528  11.845  65.119  1.00  0.00    -0.243 C  
HETATM   21  C   UNL     1      -9.572  10.562  65.320  1.00  0.00    -0.249 C  
HETATM   22  O   UNL     1     -10.891  10.766  65.832  1.00  0.00    -0.138 OA 
HETATM   23  C   UNL     1      -8.573  11.421  66.087  1.00  0.00    -0.128 C  
HETATM   24  C   UNL     1      -9.667  10.888  63.834  1.00  0.00    -0.303 C  
HETATM   25  O   UNL     1      -9.850   9.706  63.037  1.00  0.00    -0.428 OA 
HETATM   26  C   UNL     1     -10.912  11.774  63.703  1.00  0.00    -0.439 C  
HETATM   27  H   UNL     1      -9.909   9.909  62.111  1.00  0.00     0.000 HD 
HETATM   28  O   UNL     1     -11.867  11.234  62.776  1.00  0.00    -0.710 OA 
HETATM   29  H   UNL     1     -11.489  11.190  61.905  1.00  0.00     0.000 HD 
ENDBRANCH  15  20
ENDBRANCH   9  11
ENDBRANCH   6   7
ENDBRANCH   5   6
ENDBRANCH   4   5
ENDBRANCH   3   4
ENDBRANCH   2   3
TORSDOF 7
ENDMDL
MODEL       19
REMARK 921   NORMALIZED FREE ENERGY PREDICTED BY IDOCK:   -5.83 KCAL/MOL
REMARK 922        TOTAL FREE ENERGY PREDICTED BY IDOCK:   -9.32 KCAL/MOL
REMARK 923 INTER-LIGAND FREE ENERGY PREDICTED BY IDOCK:   -8.30 KCAL/MOL
REMARK 924 INTRA-LIGAND FREE ENERGY PREDICTED BY IDOCK:   -1.03 KCAL/MOL
REMARK 927      BINDING AFFINITY PREDICTED BY RF-SCORE:    0.00 PKD
ROOT
HETATM    1  C   UNL     1     -10.503   5.485  69.159  1.00  0.00    -0.315 C  
HETATM    2  C   UNL     1     -11.491   6.284  70.000  1.00  0.00    -0.460 C  
ENDROOT
BRANCH   2   3
HETATM    3  C   UNL     1     -11.413   5.869  71.465  1.00  0.00    -0.216 C  
BRANCH   3   4
HETATM    4  C   UNL     1     -10.809   6.947  72.374  1.00  0.00    -0.267 C  
BRANCH   4   5
HETATM    5  C   UNL     1     -11.620   8.231  72.213  1.00  0.00    -0.383 C  
BRANCH   5   6
HETATM    6  O   UNL     1     -10.825   9.386  71.918  1.00  0.00    -0.310 OA 
BRANCH   6   7
HETATM    7  C   UNL     1     -11.097   9.931  70.706  1.00  0.00    -0.347 C  
HETATM    8  O   UNL     1     -12.130  10.525  70.444  1.00  0.00    -0.280 OA 
HETATM    9  N   UNL     1     -10.051   9.675  69.857  1.00  0.00    -0.229 N  
HETATM   10  H   UNL     1      -9.415   8.921  70.115  1.00  0.00     0.000 HD 
BRANCH   9  11
HETATM   11  C   UNL     1      -9.787  10.348  68.689  1.00  0.00    -0.177 C  
HETATM   12  N   UNL     1      -9.132  11.454  68.669  1.00  0.00    -0.275 N  
HETATM   13  C   UNL     1      -8.962  12.103  67.466  1.00  0.00    -0.177 C  
HETATM   14  H   UNL     1      -8.745  11.844  69.528  1.00  0.00     0.000 HD 
HETATM   15  N   UNL     1      -9.844  11.755  66.424  1.00  0.00    -0.208 N  
HETATM   16  O   UNL     1      -8.091  12.956  67.345  1.00  0.00    -0.167 OA 
HETATM   17  F   UNL     1     -10.823   8.454  67.568  1.00  0.00    -0.315 F  
HETATM   18  C   UNL     1     -10.372  10.469  66.403  1.00  0.00    -0.221 C  
HETATM   19  C   UNL     1     -10.322   9.697  67.488  1.00  0.00    -0.241 C  
BRANCH  15  20
HETATM   20  C   UNL     1      -9.937  12.615  65.236  1.00  0.00    -0.197 C  
HETATM   21  C   UNL     1     -11.656  14.179  65.565  1.00  0.00    -0.337 C  
HETATM   22  O   UNL     1     -10.242  13.976  65.601  1.00  0.00    -0.308 OA 
HETATM   23  C   UNL     1     -12.268  13.865  66.925  1.00  0.00    -0.415 C  
HETATM   24  C   UNL     1     -12.157  13.290  64.433  1.00  0.00    -0.415 C  
HETATM   25  O   UNL     1     -12.308  14.020  63.204  1.00  0.00    -1.133 OA 
HETATM   26  C   UNL     1     -11.064  12.229  64.250  1.00  0.00    -0.348 C  
HETATM   27  H   UNL     1     -12.621  13.465  62.499  1.00  0.00     0.000 HD 
HETATM   28  O   UNL     1     -10.556  12.200  62.907  1.00  0.00    -0.555 OA 
HETATM   29  H   UNL     1     -11.248  11.963  62.301  1.00  0.00     0.000 HD 
ENDBRANCH  15  20
ENDBRANCH   9  11
ENDBRANCH   6   7
ENDBRANCH   5   6
ENDBRANCH   4   5
ENDBRANCH   3   4
ENDBRANCH   2   3
TORSDOF 7
ENDMDL
MODEL       20
REMARK 921   NORMALIZED FREE ENERGY PREDICTED BY IDOCK:   -5.83 KCAL/MOL
REMARK 922        TOTAL FREE ENERGY PREDICTED BY IDOCK:   -9.32 KCAL/MOL
REMARK 923 INTER-LIGAND FREE ENERGY PREDICTED BY IDOCK:   -8.43 KCAL/MOL
REMARK 924 INTRA-LIGAND FREE ENERGY PREDICTED BY IDOCK:   -0.89 KCAL/MOL
REMARK 927      BINDING AFFINITY PREDICTED BY RF-SCORE:    0.00 PKD
ROOT
HETATM    1  C   UNL     1     -10.530   7.121  73.648  1.00  0.00    -0.412 C  
HETATM    2  C   UNL     1     -11.441   7.811  72.639  1.00  0.00    -0.430 C  
ENDROOT
BRANCH   2   3
HETATM    3  C   UNL     1     -10.798   7.834  71.257  1.00  0.00    -0.255 C  
BRANCH   3   4
HETATM    4  C   UNL     1      -9.853   9.022  71.043  1.00  0.00    -0.352 C  
BRANCH   4   5
HETATM    5  C   UNL     1     -10.253   9.737  69.754  1.00  0.00    -0.242 C  
BRANCH   5   6
HETATM    6  O   UNL     1     -11.214  10.783  69.945  1.00  0.00    -0.269 OA 
BRANCH   6   7
HETATM    7  C   UNL     1     -11.372  11.574  68.855  1.00  0.00    -0.268 C  
HETATM    8  O   UNL     1     -12.070  11.281  67.898  1.00  0.00    -0.634 OA 
HETATM    9  N   UNL     1     -10.611  12.704  69.009  1.00  0.00    -0.424 N  
HETATM   10  H   UNL     1      -9.859  12.669  69.697  1.00  0.00     0.000 HD 
BRANCH   9  11
HETATM   11  C   UNL     1     -10.775  13.879  68.317  1.00  0.00    -0.251 C  
HETATM   12  N   UNL     1     -10.819  13.916  67.032  1.00  0.00    -0.284 N  
HETATM   13  C   UNL     1     -10.921  15.139  66.407  1.00  0.00    -0.329 C  
HETATM   14  H   UNL     1     -10.780  13.056  66.486  1.00  0.00     0.000 HD 
HETATM   15  N   UNL     1     -10.558  16.272  67.161  1.00  0.00    -0.310 N  
HETATM   16  O   UNL     1     -11.291  15.205  65.240  1.00  0.00    -0.349 OA 
HETATM   17  F   UNL     1     -11.025  14.926  70.498  1.00  0.00    -0.268 F  
HETATM   18  C   UNL     1     -10.716  16.230  68.541  1.00  0.00    -0.307 C  
HETATM   19  C   UNL     1     -10.885  15.067  69.169  1.00  0.00    -0.251 C  
BRANCH  15  20
HETATM   20  C   UNL     1     -10.333  17.554  66.478  1.00  0.00    -0.325 C  
HETATM   21  C   UNL     1      -8.047  18.080  66.586  1.00  0.00    -0.260 C  
HETATM   22  O   UNL     1      -9.084  17.549  65.758  1.00  0.00    -0.509 OA 
HETATM   23  C   UNL     1      -7.387  16.961  67.384  1.00  0.00    -0.186 C  
HETATM   24  C   UNL     1      -8.727  19.142  67.441  1.00  0.00    -0.290 C  
HETATM   25  O   UNL     1      -8.566  20.459  66.887  1.00  0.00    -0.442 OA 
HETATM   26  C   UNL     1     -10.215  18.773  67.423  1.00  0.00    -0.395 C  
HETATM   27  H   UNL     1      -8.989  21.122  67.421  1.00  0.00     0.000 HD 
HETATM   28  O   UNL     1     -11.036  19.850  66.943  1.00  0.00    -0.385 OA 
HETATM   29  H   UNL     1     -10.963  20.599  67.523  1.00  0.00     0.000 HD 
ENDBRANCH  15  20
ENDBRANCH   9  11
ENDBRANCH   6   7
ENDBRANCH   5   6
ENDBRANCH   4   5
ENDBRANCH   3   4
ENDBRANCH   2   3
TORSDOF 7
ENDMDL
MODEL       21
REMARK 921   NORMALIZED FREE ENERGY PREDICTED BY IDOCK:   -5.81 KCAL/MOL
REMARK 922        TOTAL FREE ENERGY PREDICTED BY IDOCK:   -9.29 KCAL/MOL
REMARK 923 INTER-LIGAND FREE ENERGY PREDICTED BY IDOCK:   -8.01 KCAL/MOL
REMARK 924 INTRA-LIGAND FREE ENERGY PREDICTED BY IDOCK:   -1.28 KCAL/MOL
REMARK 927      BINDING AFFINITY PREDICTED BY RF-SCORE:    0.00 PKD
ROOT
HETATM    1  C   UNL     1     -12.125  12.338  63.634  1.00  0.00    -0.648 C  
HETATM    2  C   UNL     1     -12.478  13.176  64.858  1.00  0.00    -0.490 C  
ENDROOT
BRANCH   2   3
HETATM    3  C   UNL     1     -12.316  14.662  64.560  1.00  0.00    -0.416 C  
BRANCH   3   4
HETATM    4  C   UNL     1     -10.889  15.178  64.781  1.00  0.00    -0.378 C  
BRANCH   4   5
HETATM    5  C   UNL     1     -10.452  14.813  66.198  1.00  0.00    -0.304 C  
BRANCH   5   6
HETATM    6  O   UNL     1     -11.121  15.560  67.221  1.00  0.00    -0.319 OA 
BRANCH   6   7
HETATM    7  C   UNL     1     -11.461  14.811  68.300  1.00  0.00    -0.317 C  
HETATM    8  O   UNL     1     -12.116  15.230  69.240  1.00  0.00    -0.306 OA 
HETATM    9  N   UNL     1     -10.929  13.555  68.156  1.00  0.00    -0.246 N  
HETATM   10  H   UNL     1     -10.166  13.446  67.489  1.00  0.00     0.000 HD 
BRANCH   9  11
HETATM   11  C   UNL     1     -11.338  12.431  68.833  1.00  0.00    -0.294 C  
HETATM   12  N   UNL     1     -11.824  12.487  70.022  1.00  0.00    -0.478 N  
HETATM   13  C   UNL     1     -12.152  11.312  70.660  1.00  0.00    -0.383 C  
HETATM   14  H   UNL     1     -11.964  13.385  70.484  1.00  0.00     0.000 HD 
HETATM   15  N   UNL     1     -11.565  10.132  70.163  1.00  0.00    -0.271 N  
HETATM   16  O   UNL     1     -12.902  11.327  71.629  1.00  0.00    -0.424 OA 
HETATM   17  F   UNL     1     -10.832  11.225  66.782  1.00  0.00    -0.273 F  
HETATM   18  C   UNL     1     -11.236  10.071  68.814  1.00  0.00    -0.122 C  
HETATM   19  C   UNL     1     -11.163  11.183  68.083  1.00  0.00    -0.292 C  
BRANCH  15  20
HETATM   20  C   UNL     1     -11.606   8.906  70.973  1.00  0.00    -0.293 C  
HETATM   21  C   UNL     1      -9.409   8.274  71.505  1.00  0.00    -0.180 C  
HETATM   22  O   UNL     1     -10.587   8.920  71.992  1.00  0.00    -0.341 OA 
HETATM   23  C   UNL     1      -8.495   9.288  70.828  1.00  0.00    -0.244 C  
HETATM   24  C   UNL     1      -9.913   7.171  70.582  1.00  0.00    -0.190 C  
HETATM   25  O   UNL     1      -9.986   5.903  71.254  1.00  0.00    -0.179 OA 
HETATM   26  C   UNL     1     -11.329   7.605  70.184  1.00  0.00    -0.132 C  
HETATM   27  H   UNL     1     -10.300   5.215  70.678  1.00  0.00     0.000 HD 
HETATM   28  O   UNL     1     -12.313   6.611  70.510  1.00  0.00    -0.495 OA 
HETATM   29  H   UNL     1     -12.143   5.812  70.025  1.00  0.00     0.000 HD 
ENDBRANCH  15  20
ENDBRANCH   9  11
ENDBRANCH   6   7
ENDBRANCH   5   6
ENDBRANCH   4   5
ENDBRANCH   3   4
ENDBRANCH   2   3
TORSDOF 7
ENDMDL
MODEL       22
REMARK 921   NORMALIZED FREE ENERGY PREDICTED BY IDOCK:   -5.81 KCAL/MOL
REMARK 922        TOTAL FREE ENERGY PREDICTED BY IDOCK:   -9.29 KCAL/MOL
REMARK 923 INTER-LIGAND FREE ENERGY PREDICTED BY IDOCK:   -8.10 KCAL/MOL
REMARK 924 INTRA-LIGAND FREE ENERGY PREDICTED BY IDOCK:   -1.19 KCAL/MOL
REMARK 927      BINDING AFFINITY PREDICTED BY RF-SCORE:    0.00 PKD
ROOT
HETATM    1  C   UNL     1     -10.483  19.974  66.432  1.00  0.00    -0.534 C  
HETATM    2  C   UNL     1     -10.631  19.227  67.753  1.00  0.00    -0.516 C  
ENDROOT
BRANCH   2   3
HETATM    3  C   UNL     1      -9.292  19.136  68.475  1.00  0.00    -0.426 C  
BRANCH   3   4
HETATM    4  C   UNL     1      -8.088  19.099  67.526  1.00  0.00    -0.301 C  
BRANCH   4   5
HETATM    5  C   UNL     1      -7.804  17.645  67.154  1.00  0.00    -0.209 C  
BRANCH   5   6
HETATM    6  O   UNL     1      -8.282  17.276  65.855  1.00  0.00    -0.534 OA 
BRANCH   6   7
HETATM    7  C   UNL     1      -9.258  16.334  65.889  1.00  0.00    -0.233 C  
HETATM    8  O   UNL     1     -10.267  16.375  65.205  1.00  0.00    -0.582 OA 
HETATM    9  N   UNL     1      -8.927  15.381  66.818  1.00  0.00    -0.238 N  
HETATM   10  H   UNL     1      -8.228  15.634  67.516  1.00  0.00     0.000 HD 
BRANCH   9  11
HETATM   11  C   UNL     1      -9.456  14.115  66.889  1.00  0.00    -0.267 C  
HETATM   12  N   UNL     1     -10.602  13.823  66.385  1.00  0.00    -0.281 N  
HETATM   13  C   UNL     1     -11.095  12.548  66.551  1.00  0.00    -0.287 C  
HETATM   14  H   UNL     1     -11.137  14.523  65.870  1.00  0.00     0.000 HD 
HETATM   15  N   UNL     1     -10.534  11.779  67.590  1.00  0.00    -0.194 N  
HETATM   16  O   UNL     1     -11.997  12.137  65.831  1.00  0.00    -0.561 OA 
HETATM   17  F   UNL     1      -7.345  13.479  67.916  1.00  0.00    -0.093 F  
HETATM   18  C   UNL     1      -9.216  12.023  67.960  1.00  0.00    -0.192 C  
HETATM   19  C   UNL     1      -8.605  13.149  67.590  1.00  0.00    -0.193 C  
BRANCH  15  20
HETATM   20  C   UNL     1     -11.214  10.554  68.033  1.00  0.00    -0.294 C  
HETATM   21  C   UNL     1     -12.411  11.020  69.999  1.00  0.00    -0.305 C  
HETATM   22  O   UNL     1     -12.514  10.850  68.583  1.00  0.00    -0.418 OA 
HETATM   23  C   UNL     1     -12.133  12.480  70.334  1.00  0.00    -0.380 C  
HETATM   24  C   UNL     1     -11.313  10.057  70.436  1.00  0.00    -0.320 C  
HETATM   25  O   UNL     1     -11.850   8.812  70.912  1.00  0.00    -0.310 OA 
HETATM   26  C   UNL     1     -10.491   9.792  69.168  1.00  0.00    -0.215 C  
HETATM   27  H   UNL     1     -11.166   8.212  71.185  1.00  0.00     0.000 HD 
HETATM   28  O   UNL     1     -10.416   8.393  68.853  1.00  0.00    -0.218 OA 
HETATM   29  H   UNL     1      -9.972   7.925  69.550  1.00  0.00     0.000 HD 
ENDBRANCH  15  20
ENDBRANCH   9  11
ENDBRANCH   6   7
ENDBRANCH   5   6
ENDBRANCH   4   5
ENDBRANCH   3   4
ENDBRANCH   2   3
TORSDOF 7
ENDMDL
MODEL       23
REMARK 921   NORMALIZED FREE ENERGY PREDICTED BY IDOCK:   -5.81 KCAL/MOL
REMARK 922        TOTAL FREE ENERGY PREDICTED BY IDOCK:   -9.29 KCAL/MOL
REMARK 923 INTER-LIGAND FREE ENERGY PREDICTED BY IDOCK:   -8.04 KCAL/MOL
REMARK 924 INTRA-LIGAND FREE ENERGY PREDICTED BY IDOCK:   -1.25 KCAL/MOL
REMARK 927      BINDING AFFINITY PREDICTED BY RF-SCORE:    0.00 PKD
ROOT
HETATM    1  C   UNL     1     -11.006  13.691  66.248  1.00  0.00    -0.300 C  
HETATM    2  C   UNL     1     -11.895  14.350  67.296  1.00  0.00    -0.434 C  
ENDROOT
BRANCH   2   3
HETATM    3  C   UNL     1     -11.054  14.961  68.411  1.00  0.00    -0.282 C  
BRANCH   3   4
HETATM    4  C   UNL     1     -11.869  15.808  69.396  1.00  0.00    -0.361 C  
BRANCH   4   5
HETATM    5  C   UNL     1     -11.793  15.159  70.777  1.00  0.00    -0.324 C  
BRANCH   5   6
HETATM    6  O   UNL     1     -13.071  14.955  71.393  1.00  0.00    -0.321 OA 
BRANCH   6   7
HETATM    7  C   UNL     1     -13.267  13.681  71.816  1.00  0.00    -0.394 C  
HETATM    8  O   UNL     1     -14.129  13.356  72.616  1.00  0.00    -0.767 OA 
HETATM    9  N   UNL     1     -12.335  12.866  71.226  1.00  0.00    -0.304 N  
HETATM   10  H   UNL     1     -11.506  13.313  70.836  1.00  0.00     0.000 HD 
BRANCH   9  11
HETATM   11  C   UNL     1     -12.424  11.500  71.115  1.00  0.00    -0.337 C  
HETATM   12  N   UNL     1     -13.210  10.803  71.856  1.00  0.00    -0.466 N  
HETATM   13  C   UNL     1     -13.197   9.431  71.730  1.00  0.00    -0.411 C  
HETATM   14  H   UNL     1     -13.832  11.256  72.524  1.00  0.00     0.000 HD 
HETATM   15  N   UNL     1     -12.063   8.858  71.122  1.00  0.00    -0.291 N  
HETATM   16  O   UNL     1     -14.132   8.765  72.159  1.00  0.00    -0.431 OA 
HETATM   17  F   UNL     1     -10.902  11.729  69.231  1.00  0.00    -0.254 F  
HETATM   18  C   UNL     1     -11.364   9.606  70.181  1.00  0.00    -0.227 C  
HETATM   19  C   UNL     1     -11.546  10.923  70.092  1.00  0.00    -0.338 C  
BRANCH  15  20
HETATM   20  C   UNL     1     -11.830   7.412  71.242  1.00  0.00    -0.301 C  
HETATM   21  C   UNL     1     -10.019   7.052  72.692  1.00  0.00    -0.173 C  
HETATM   22  O   UNL     1     -11.444   7.055  72.584  1.00  0.00    -0.267 OA 
HETATM   23  C   UNL     1      -9.520   8.432  73.104  1.00  0.00    -0.180 C  
HETATM   24  C   UNL     1      -9.519   6.588  71.329  1.00  0.00    -0.166 C  
HETATM   25  O   UNL     1      -9.235   5.179  71.314  1.00  0.00    -0.140 OA 
HETATM   26  C   UNL     1     -10.677   6.872  70.364  1.00  0.00    -0.246 C  
HETATM   27  H   UNL     1      -8.923   4.889  70.465  1.00  0.00     0.000 HD 
HETATM   28  O   UNL     1     -11.100   5.693  69.663  1.00  0.00    -0.328 OA 
HETATM   29  H   UNL     1     -10.392   5.361  69.124  1.00  0.00     0.000 HD 
ENDBRANCH  15  20
ENDBRANCH   9  11
ENDBRANCH   6   7
ENDBRANCH   5   6
ENDBRANCH   4   5
ENDBRANCH   3   4
ENDBRANCH   2   3
TORSDOF 7
ENDMDL
MODEL       24
REMARK 921   NORMALIZED FREE ENERGY PREDICTED BY IDOCK:   -5.74 KCAL/MOL
REMARK 922        TOTAL FREE ENERGY PREDICTED BY IDOCK:   -9.19 KCAL/MOL
REMARK 923 INTER-LIGAND FREE ENERGY PREDICTED BY IDOCK:   -8.14 KCAL/MOL
REMARK 924 INTRA-LIGAND FREE ENERGY PREDICTED BY IDOCK:   -1.05 KCAL/MOL
REMARK 927      BINDING AFFINITY PREDICTED BY RF-SCORE:    0.00 PKD
ROOT
HETATM    1  C   UNL     1     -12.410  15.678  74.276  1.00  0.00    -0.813 C  
HETATM    2  C   UNL     1     -12.173  15.529  72.778  1.00  0.00    -0.538 C  
ENDROOT
BRANCH   2   3
HETATM    3  C   UNL     1     -13.495  15.525  72.019  1.00  0.00    -0.578 C  
BRANCH   3   4
HETATM    4  C   UNL     1     -14.093  14.125  71.841  1.00  0.00    -0.566 C  
BRANCH   4   5
HETATM    5  C   UNL     1     -12.957  13.138  71.581  1.00  0.00    -0.335 C  
BRANCH   5   6
HETATM    6  O   UNL     1     -13.180  11.837  72.137  1.00  0.00    -0.498 OA 
BRANCH   6   7
HETATM    7  C   UNL     1     -12.704  10.831  71.361  1.00  0.00    -0.439 C  
HETATM    8  O   UNL     1     -12.938   9.650  71.559  1.00  0.00    -0.344 OA 
HETATM    9  N   UNL     1     -11.918  11.365  70.372  1.00  0.00    -0.362 N  
HETATM   10  H   UNL     1     -11.569  12.312  70.515  1.00  0.00     0.000 HD 
BRANCH   9  11
HETATM   11  C   UNL     1     -11.561  10.732  69.206  1.00  0.00    -0.305 C  
HETATM   12  N   UNL     1     -11.159   9.511  69.185  1.00  0.00    -0.425 N  
HETATM   13  C   UNL     1     -10.757   8.966  67.986  1.00  0.00    -0.108 C  
HETATM   14  H   UNL     1     -11.137   8.957  70.040  1.00  0.00     0.000 HD 
HETATM   15  N   UNL     1     -10.419   9.868  66.957  1.00  0.00    -0.240 N  
HETATM   16  O   UNL     1     -10.684   7.750  67.856  1.00  0.00    -0.187 OA 
HETATM   17  F   UNL     1     -12.285  12.767  68.086  1.00  0.00    -0.351 F  
HETATM   18  C   UNL     1     -11.040  11.111  66.933  1.00  0.00    -0.247 C  
HETATM   19  C   UNL     1     -11.676  11.572  68.009  1.00  0.00    -0.273 C  
BRANCH  15  20
HETATM   20  C   UNL     1      -9.685   9.381  65.780  1.00  0.00    -0.284 C  
HETATM   21  C   UNL     1      -7.423   9.968  65.999  1.00  0.00    -0.112 C  
HETATM   22  O   UNL     1      -8.373   8.909  66.142  1.00  0.00    -0.115 OA 
HETATM   23  C   UNL     1      -7.307  10.750  67.302  1.00  0.00    -0.097 C  
HETATM   24  C   UNL     1      -7.921  10.791  64.817  1.00  0.00     0.130 C  
HETATM   25  O   UNL     1      -7.265  10.422  63.593  1.00  0.00    -0.275 OA 
HETATM   26  C   UNL     1      -9.414  10.456  64.703  1.00  0.00    -0.280 C  
HETATM   27  H   UNL     1      -7.576  10.935  62.856  1.00  0.00     0.000 HD 
HETATM   28  O   UNL     1      -9.758   9.951  63.403  1.00  0.00    -0.501 OA 
HETATM   29  H   UNL     1      -9.591  10.612  62.741  1.00  0.00     0.000 HD 
ENDBRANCH  15  20
ENDBRANCH   9  11
ENDBRANCH   6   7
ENDBRANCH   5   6
ENDBRANCH   4   5
ENDBRANCH   3   4
ENDBRANCH   2   3
TORSDOF 7
ENDMDL
MODEL       25
REMARK 921   NORMALIZED FREE ENERGY PREDICTED BY IDOCK:   -5.68 KCAL/MOL
REMARK 922        TOTAL FREE ENERGY PREDICTED BY IDOCK:   -9.11 KCAL/MOL
REMARK 923 INTER-LIGAND FREE ENERGY PREDICTED BY IDOCK:   -8.03 KCAL/MOL
REMARK 924 INTRA-LIGAND FREE ENERGY PREDICTED BY IDOCK:   -1.08 KCAL/MOL
REMARK 927      BINDING AFFINITY PREDICTED BY RF-SCORE:    0.00 PKD
ROOT
HETATM    1  C   UNL     1      -6.354  19.943  69.497  1.00  0.00    -0.382 C  
HETATM    2  C   UNL     1      -7.482  19.661  68.511  1.00  0.00    -0.369 C  
ENDROOT
BRANCH   2   3
HETATM    3  C   UNL     1      -7.098  20.115  67.107  1.00  0.00    -0.293 C  
BRANCH   3   4
HETATM    4  C   UNL     1      -8.231  19.964  66.085  1.00  0.00    -0.346 C  
BRANCH   4   5
HETATM    5  C   UNL     1      -9.566  20.097  66.815  1.00  0.00    -0.427 C  
BRANCH   5   6
HETATM    6  O   UNL     1     -10.674  19.528  66.104  1.00  0.00    -0.457 OA 
BRANCH   6   7
HETATM    7  C   UNL     1     -10.659  18.172  66.081  1.00  0.00    -0.274 C  
HETATM    8  O   UNL     1     -10.834  17.508  65.073  1.00  0.00    -0.727 OA 
HETATM    9  N   UNL     1     -10.448  17.706  67.353  1.00  0.00    -0.362 N  
HETATM   10  H   UNL     1     -10.627  18.352  68.122  1.00  0.00     0.000 HD 
BRANCH   9  11
HETATM   11  C   UNL     1     -10.017  16.444  67.681  1.00  0.00    -0.252 C  
HETATM   12  N   UNL     1      -8.906  15.965  67.244  1.00  0.00    -0.190 N  
HETATM   13  C   UNL     1      -8.571  14.668  67.564  1.00  0.00    -0.187 C  
HETATM   14  H   UNL     1      -8.284  16.535  66.671  1.00  0.00     0.000 HD 
HETATM   15  N   UNL     1      -9.619  13.824  67.982  1.00  0.00    -0.208 N  
HETATM   16  O   UNL     1      -7.411  14.287  67.456  1.00  0.00    -0.167 OA 
HETATM   17  F   UNL     1     -11.972  16.339  69.124  1.00  0.00    -0.304 F  
HETATM   18  C   UNL     1     -10.714  14.393  68.624  1.00  0.00    -0.253 C  
HETATM   19  C   UNL     1     -10.932  15.705  68.556  1.00  0.00    -0.303 C  
BRANCH  15  20
HETATM   20  C   UNL     1      -9.404  12.371  68.028  1.00  0.00    -0.204 C  
HETATM   21  C   UNL     1     -10.807  11.347  66.448  1.00  0.00    -0.271 C  
HETATM   22  O   UNL     1      -9.474  11.792  66.710  1.00  0.00    -0.184 OA 
HETATM   23  C   UNL     1     -11.619  12.465  65.807  1.00  0.00    -0.449 C  
HETATM   24  C   UNL     1     -11.341  10.880  67.797  1.00  0.00    -0.292 C  
HETATM   25  O   UNL     1     -11.204   9.459  67.965  1.00  0.00    -0.515 OA 
HETATM   26  C   UNL     1     -10.465  11.590  68.837  1.00  0.00    -0.187 C  
HETATM   27  H   UNL     1     -11.538   9.168  68.806  1.00  0.00     0.000 HD 
HETATM   28  O   UNL     1      -9.824  10.665  69.729  1.00  0.00    -0.431 OA 
HETATM   29  H   UNL     1     -10.476  10.184  70.226  1.00  0.00     0.000 HD 
ENDBRANCH  15  20
ENDBRANCH   9  11
ENDBRANCH   6   7
ENDBRANCH   5   6
ENDBRANCH   4   5
ENDBRANCH   3   4
ENDBRANCH   2   3
TORSDOF 7
ENDMDL
MODEL       26
REMARK 921   NORMALIZED FREE ENERGY PREDICTED BY IDOCK:   -5.65 KCAL/MOL
REMARK 922        TOTAL FREE ENERGY PREDICTED BY IDOCK:   -9.06 KCAL/MOL
REMARK 923 INTER-LIGAND FREE ENERGY PREDICTED BY IDOCK:   -8.12 KCAL/MOL
REMARK 924 INTRA-LIGAND FREE ENERGY PREDICTED BY IDOCK:   -0.93 KCAL/MOL
REMARK 927      BINDING AFFINITY PREDICTED BY RF-SCORE:    0.00 PKD
ROOT
HETATM    1  C   UNL     1     -13.492  12.853  72.318  1.00  0.00    -0.631 C  
HETATM    2  C   UNL     1     -13.779  14.347  72.216  1.00  0.00    -0.569 C  
ENDROOT
BRANCH   2   3
HETATM    3  C   UNL     1     -12.752  15.150  73.005  1.00  0.00    -0.556 C  
BRANCH   3   4
HETATM    4  C   UNL     1     -11.884  16.061  72.128  1.00  0.00    -0.623 C  
BRANCH   4   5
HETATM    5  C   UNL     1     -12.234  15.804  70.663  1.00  0.00    -0.384 C  
BRANCH   5   6
HETATM    6  O   UNL     1     -11.135  15.994  69.763  1.00  0.00    -0.287 OA 
BRANCH   6   7
HETATM    7  C   UNL     1     -10.696  14.841  69.199  1.00  0.00    -0.254 C  
HETATM    8  O   UNL     1      -9.566  14.682  68.767  1.00  0.00    -0.211 OA 
HETATM    9  N   UNL     1     -11.725  13.934  69.179  1.00  0.00    -0.313 N  
HETATM   10  H   UNL     1     -12.670  14.301  69.285  1.00  0.00     0.000 HD 
BRANCH   9  11
HETATM   11  C   UNL     1     -11.590  12.576  69.028  1.00  0.00    -0.314 C  
HETATM   12  N   UNL     1     -11.360  11.796  70.024  1.00  0.00    -0.501 N  
HETATM   13  C   UNL     1     -11.173  10.452  69.786  1.00  0.00    -0.293 C  
HETATM   14  H   UNL     1     -11.316  12.165  70.974  1.00  0.00     0.000 HD 
HETATM   15  N   UNL     1     -10.835  10.080  68.470  1.00  0.00    -0.233 N  
HETATM   16  O   UNL     1     -11.279   9.644  70.701  1.00  0.00    -0.269 OA 
HETATM   17  F   UNL     1     -12.156  12.954  66.693  1.00  0.00    -0.428 F  
HETATM   18  C   UNL     1     -11.282  10.873  67.420  1.00  0.00    -0.273 C  
HETATM   19  C   UNL     1     -11.725  12.110  67.645  1.00  0.00    -0.316 C  
BRANCH  15  20
HETATM   20  C   UNL     1     -10.311   8.731  68.211  1.00  0.00    -0.207 C  
HETATM   21  C   UNL     1      -8.100   8.910  67.443  1.00  0.00    -0.108 C  
HETATM   22  O   UNL     1      -8.921   8.632  68.579  1.00  0.00    -0.138 OA 
HETATM   23  C   UNL     1      -7.791  10.401  67.369  1.00  0.00    -0.103 C  
HETATM   24  C   UNL     1      -8.880   8.373  66.248  1.00  0.00    -0.159 C  
HETATM   25  O   UNL     1      -8.450   7.052  65.878  1.00  0.00    -0.137 OA 
HETATM   26  C   UNL     1     -10.337   8.306  66.725  1.00  0.00    -0.290 C  
HETATM   27  H   UNL     1      -8.936   6.717  65.133  1.00  0.00     0.000 HD 
HETATM   28  O   UNL     1     -10.890   6.987  66.597  1.00  0.00    -0.524 OA 
HETATM   29  H   UNL     1     -10.905   6.726  65.684  1.00  0.00     0.000 HD 
ENDBRANCH  15  20
ENDBRANCH   9  11
ENDBRANCH   6   7
ENDBRANCH   5   6
ENDBRANCH   4   5
ENDBRANCH   3   4
ENDBRANCH   2   3
TORSDOF 7
ENDMDL
MODEL       27
REMARK 921   NORMALIZED FREE ENERGY PREDICTED BY IDOCK:   -5.64 KCAL/MOL
REMARK 922        TOTAL FREE ENERGY PREDICTED BY IDOCK:   -9.05 KCAL/MOL
REMARK 923 INTER-LIGAND FREE ENERGY PREDICTED BY IDOCK:   -8.05 KCAL/MOL
REMARK 924 INTRA-LIGAND FREE ENERGY PREDICTED BY IDOCK:   -1.00 KCAL/MOL
REMARK 927      BINDING AFFINITY PREDICTED BY RF-SCORE:    0.00 PKD
ROOT
HETATM    1  C   UNL     1     -14.290   7.917  71.675  1.00  0.00    -0.595 C  
HETATM    2  C   UNL     1     -13.749   9.109  72.457  1.00  0.00    -0.499 C  
ENDROOT
BRANCH   2   3
HETATM    3  C   UNL     1     -13.121  10.132  71.517  1.00  0.00    -0.529 C  
BRANCH   3   4
HETATM    4  C   UNL     1     -11.683   9.787  71.112  1.00  0.00    -0.465 C  
BRANCH   4   5
HETATM    5  C   UNL     1     -11.272  10.694  69.954  1.00  0.00    -0.308 C  
BRANCH   5   6
HETATM    6  O   UNL     1     -12.225  11.723  69.657  1.00  0.00    -0.262 OA 
BRANCH   6   7
HETATM    7  C   UNL     1     -11.669  12.955  69.543  1.00  0.00    -0.323 C  
HETATM    8  O   UNL     1     -11.839  13.855  70.350  1.00  0.00    -0.298 OA 
HETATM    9  N   UNL     1     -10.935  13.008  68.386  1.00  0.00    -0.251 N  
HETATM   10  H   UNL     1     -11.133  12.304  67.676  1.00  0.00     0.000 HD 
BRANCH   9  11
HETATM   11  C   UNL     1      -9.955  13.929  68.103  1.00  0.00    -0.240 C  
HETATM   12  N   UNL     1      -9.047  14.246  68.955  1.00  0.00    -0.384 N  
HETATM   13  C   UNL     1      -8.136  15.224  68.622  1.00  0.00    -0.156 C  
HETATM   14  H   UNL     1      -9.001  13.783  69.862  1.00  0.00     0.000 HD 
HETATM   15  N   UNL     1      -8.491  16.092  67.570  1.00  0.00    -0.160 N  
HETATM   16  O   UNL     1      -7.085  15.325  69.244  1.00  0.00    -0.147 OA 
HETATM   17  F   UNL     1     -10.902  13.987  65.863  1.00  0.00    -0.281 F  
HETATM   18  C   UNL     1      -9.333  15.617  66.572  1.00  0.00    -0.276 C  
HETATM   19  C   UNL     1     -10.048  14.508  66.759  1.00  0.00    -0.264 C  
BRANCH  15  20
HETATM   20  C   UNL     1      -7.734  17.337  67.374  1.00  0.00    -0.176 C  
HETATM   21  C   UNL     1      -9.066  19.149  68.049  1.00  0.00    -0.311 C  
HETATM   22  O   UNL     1      -7.998  18.280  68.432  1.00  0.00    -0.289 OA 
HETATM   23  C   UNL     1     -10.404  18.560  68.482  1.00  0.00    -0.315 C  
HETATM   24  C   UNL     1      -8.917  19.322  66.542  1.00  0.00    -0.346 C  
HETATM   25  O   UNL     1      -8.201  20.524  66.210  1.00  0.00    -0.527 OA 
HETATM   26  C   UNL     1      -8.095  18.111  66.084  1.00  0.00    -0.163 C  
HETATM   27  H   UNL     1      -8.109  20.632  65.270  1.00  0.00     0.000 HD 
HETATM   28  O   UNL     1      -6.899  18.498  65.390  1.00  0.00    -0.485 OA 
HETATM   29  H   UNL     1      -7.120  18.974  64.598  1.00  0.00     0.000 HD 
ENDBRANCH  15  20
ENDBRANCH   9  11
ENDBRANCH   6   7
ENDBRANCH   5   6
ENDBRANCH   4   5
ENDBRANCH   3   4
ENDBRANCH   2   3
TORSDOF 7
ENDMDL
MODEL       28
REMARK 921   NORMALIZED FREE ENERGY PREDICTED BY IDOCK:   -5.63 KCAL/MOL
REMARK 922        TOTAL FREE ENERGY PREDICTED BY IDOCK:   -9.03 KCAL/MOL
REMARK 923 INTER-LIGAND FREE ENERGY PREDICTED BY IDOCK:   -8.20 KCAL/MOL
REMARK 924 INTRA-LIGAND FREE ENERGY PREDICTED BY IDOCK:   -0.83 KCAL/MOL
REMARK 927      BINDING AFFINITY PREDICTED BY RF-SCORE:    0.00 PKD
ROOT
HETATM    1  C   UNL     1      -6.542  20.401  64.496  1.00  0.00    -0.257 C  
HETATM    2  C   UNL     1      -5.494  19.311  64.689  1.00  0.00    -0.255 C  
ENDROOT
BRANCH   2   3
HETATM    3  C   UNL     1      -5.216  19.085  66.171  1.00  0.00    -0.171 C  
BRANCH   3   4
HETATM    4  C   UNL     1      -6.273  19.707  67.092  1.00  0.00    -0.196 C  
BRANCH   4   5
HETATM    5  C   UNL     1      -6.838  18.612  67.994  1.00  0.00    -0.225 C  
BRANCH   5   6
HETATM    6  O   UNL     1      -7.831  19.077  68.917  1.00  0.00    -0.336 OA 
BRANCH   6   7
HETATM    7  C   UNL     1      -9.053  18.522  68.718  1.00  0.00    -0.255 C  
HETATM    8  O   UNL     1     -10.105  19.108  68.911  1.00  0.00    -0.416 OA 
HETATM    9  N   UNL     1      -8.892  17.224  68.306  1.00  0.00    -0.250 N  
HETATM   10  H   UNL     1      -7.988  16.787  68.486  1.00  0.00     0.000 HD 
BRANCH   9  11
HETATM   11  C   UNL     1      -9.843  16.463  67.672  1.00  0.00    -0.243 C  
HETATM   12  N   UNL     1     -10.507  15.548  68.283  1.00  0.00    -0.238 N  
HETATM   13  C   UNL     1     -11.398  14.782  67.564  1.00  0.00    -0.344 C  
HETATM   14  H   UNL     1     -10.376  15.391  69.282  1.00  0.00     0.000 HD 
HETATM   15  N   UNL     1     -11.233  14.758  66.165  1.00  0.00    -0.336 N  
HETATM   16  O   UNL     1     -12.269  14.144  68.144  1.00  0.00    -0.306 OA 
HETATM   17  F   UNL     1      -9.432  17.878  65.736  1.00  0.00    -0.166 F  
HETATM   18  C   UNL     1     -10.677  15.870  65.543  1.00  0.00    -0.372 C  
HETATM   19  C   UNL     1     -10.019  16.786  66.252  1.00  0.00    -0.320 C  
BRANCH  15  20
HETATM   20  C   UNL     1     -11.924  13.731  65.373  1.00  0.00    -0.379 C  
HETATM   21  C   UNL     1     -10.547  11.836  65.219  1.00  0.00    -0.278 C  
HETATM   22  O   UNL     1     -11.669  12.411  65.893  1.00  0.00    -0.391 OA 
HETATM   23  C   UNL     1      -9.258  12.183  65.955  1.00  0.00    -0.069 C  
HETATM   24  C   UNL     1     -10.620  12.375  63.795  1.00  0.00    -0.452 C  
HETATM   25  O   UNL     1     -11.266  11.450  62.905  1.00  0.00    -0.807 OA 
HETATM   26  C   UNL     1     -11.472  13.647  63.896  1.00  0.00    -0.181 C  
HETATM   27  H   UNL     1     -11.311  11.786  62.017  1.00  0.00     0.000 HD 
HETATM   28  O   UNL     1     -12.617  13.602  63.031  1.00  0.00    -0.957 OA 
HETATM   29  H   UNL     1     -12.339  13.550  62.124  1.00  0.00     0.000 HD 
ENDBRANCH  15  20
ENDBRANCH   9  11
ENDBRANCH   6   7
ENDBRANCH   5   6
ENDBRANCH   4   5
ENDBRANCH   3   4
ENDBRANCH   2   3
TORSDOF 7
ENDMDL
MODEL       29
REMARK 921   NORMALIZED FREE ENERGY PREDICTED BY IDOCK:   -5.61 KCAL/MOL
REMARK 922        TOTAL FREE ENERGY PREDICTED BY IDOCK:   -9.00 KCAL/MOL
REMARK 923 INTER-LIGAND FREE ENERGY PREDICTED BY IDOCK:   -8.04 KCAL/MOL
REMARK 924 INTRA-LIGAND FREE ENERGY PREDICTED BY IDOCK:   -0.96 KCAL/MOL
REMARK 927      BINDING AFFINITY PREDICTED BY RF-SCORE:    0.00 PKD
ROOT
HETATM    1  C   UNL     1     -10.532  19.724  65.984  1.00  0.00    -0.609 C  
HETATM    2  C   UNL     1     -10.164  19.752  67.463  1.00  0.00    -0.572 C  
ENDROOT
BRANCH   2   3
HETATM    3  C   UNL     1     -10.037  18.336  68.015  1.00  0.00    -0.381 C  
BRANCH   3   4
HETATM    4  C   UNL     1      -9.694  17.292  66.945  1.00  0.00    -0.275 C  
BRANCH   4   5
HETATM    5  C   UNL     1     -10.600  16.078  67.140  1.00  0.00    -0.305 C  
BRANCH   5   6
HETATM    6  O   UNL     1     -11.378  16.124  68.343  1.00  0.00    -0.366 OA 
BRANCH   6   7
HETATM    7  C   UNL     1     -11.158  15.068  69.167  1.00  0.00    -0.270 C  
HETATM    8  O   UNL     1     -10.669  15.164  70.280  1.00  0.00    -0.261 OA 
HETATM    9  N   UNL     1     -11.545  13.917  68.529  1.00  0.00    -0.309 N  
HETATM   10  H   UNL     1     -11.640  13.956  67.514  1.00  0.00     0.000 HD 
BRANCH   9  11
HETATM   11  C   UNL     1     -11.815  12.717  69.140  1.00  0.00    -0.297 C  
HETATM   12  N   UNL     1     -12.134  12.638  70.383  1.00  0.00    -0.469 N  
HETATM   13  C   UNL     1     -12.328  11.394  70.941  1.00  0.00    -0.381 C  
HETATM   14  H   UNL     1     -12.242  13.481  70.946  1.00  0.00     0.000 HD 
HETATM   15  N   UNL     1     -11.772  10.295  70.255  1.00  0.00    -0.287 N  
HETATM   16  O   UNL     1     -12.938  11.281  71.997  1.00  0.00    -0.445 OA 
HETATM   17  F   UNL     1     -11.553  11.732  66.931  1.00  0.00    -0.368 F  
HETATM   18  C   UNL     1     -11.630  10.376  68.875  1.00  0.00    -0.139 C  
HETATM   19  C   UNL     1     -11.699  11.554  68.254  1.00  0.00    -0.301 C  
BRANCH  15  20
HETATM   20  C   UNL     1     -11.657   8.999  70.939  1.00  0.00    -0.290 C  
HETATM   21  C   UNL     1      -9.383   8.462  71.169  1.00  0.00    -0.177 C  
HETATM   22  O   UNL     1     -10.532   8.983  71.840  1.00  0.00    -0.343 OA 
HETATM   23  C   UNL     1      -8.606   9.592  70.502  1.00  0.00    -0.231 C  
HETATM   24  C   UNL     1      -9.928   7.420  70.199  1.00  0.00    -0.184 C  
HETATM   25  O   UNL     1      -9.857   6.092  70.744  1.00  0.00    -0.181 OA 
HETATM   26  C   UNL     1     -11.401   7.798  69.999  1.00  0.00    -0.048 C  
HETATM   27  H   UNL     1     -10.196   5.442  70.139  1.00  0.00     0.000 HD 
HETATM   28  O   UNL     1     -12.288   6.717  70.326  1.00  0.00    -0.555 OA 
HETATM   29  H   UNL     1     -12.130   5.978  69.749  1.00  0.00     0.000 HD 
ENDBRANCH  15  20
ENDBRANCH   9  11
ENDBRANCH   6   7
ENDBRANCH   5   6
ENDBRANCH   4   5
ENDBRANCH   3   4
ENDBRANCH   2   3
TORSDOF 7
ENDMDL
MODEL       30
REMARK 921   NORMALIZED FREE ENERGY PREDICTED BY IDOCK:   -5.60 KCAL/MOL
REMARK 922        TOTAL FREE ENERGY PREDICTED BY IDOCK:   -9.00 KCAL/MOL
REMARK 923 INTER-LIGAND FREE ENERGY PREDICTED BY IDOCK:   -8.10 KCAL/MOL
REMARK 924 INTRA-LIGAND FREE ENERGY PREDICTED BY IDOCK:   -0.90 KCAL/MOL
REMARK 927      BINDING AFFINITY PREDICTED BY RF-SCORE:    0.00 PKD
ROOT
HETATM    1  C   UNL     1     -10.023   7.422  71.116  1.00  0.00    -0.188 C  
HETATM    2  C   UNL     1     -11.197   6.561  71.570  1.00  0.00    -0.322 C  
ENDROOT
BRANCH   2   3
HETATM    3  C   UNL     1     -12.521   7.270  71.306  1.00  0.00    -0.402 C  
BRANCH   3   4
HETATM    4  C   UNL     1     -12.731   8.515  72.177  1.00  0.00    -0.423 C  
BRANCH   4   5
HETATM    5  C   UNL     1     -13.248   9.648  71.293  1.00  0.00    -0.355 C  
BRANCH   5   6
HETATM    6  O   UNL     1     -12.753  10.942  71.660  1.00  0.00    -0.405 OA 
BRANCH   6   7
HETATM    7  C   UNL     1     -12.234  11.635  70.616  1.00  0.00    -0.366 C  
HETATM    8  O   UNL     1     -11.935  11.131  69.546  1.00  0.00    -0.311 OA 
HETATM    9  N   UNL     1     -12.084  12.948  70.983  1.00  0.00    -0.396 N  
HETATM   10  H   UNL     1     -12.082  13.156  71.981  1.00  0.00     0.000 HD 
BRANCH   9  11
HETATM   11  C   UNL     1     -11.938  14.007  70.121  1.00  0.00    -0.330 C  
HETATM   12  N   UNL     1     -11.936  13.855  68.844  1.00  0.00    -0.352 N  
HETATM   13  C   UNL     1     -11.720  14.956  68.045  1.00  0.00    -0.320 C  
HETATM   14  H   UNL     1     -12.091  12.937  68.430  1.00  0.00     0.000 HD 
HETATM   15  N   UNL     1     -11.113  16.074  68.651  1.00  0.00    -0.329 N  
HETATM   16  O   UNL     1     -12.029  14.927  66.860  1.00  0.00    -0.279 OA 
HETATM   17  F   UNL     1     -11.987  15.408  72.109  1.00  0.00    -0.361 F  
HETATM   18  C   UNL     1     -11.315  16.283  70.011  1.00  0.00    -0.269 C  
HETATM   19  C   UNL     1     -11.780  15.305  70.786  1.00  0.00    -0.337 C  
BRANCH  15  20
HETATM   20  C   UNL     1     -10.563  17.145  67.808  1.00  0.00    -0.360 C  
HETATM   21  C   UNL     1      -8.219  17.020  67.855  1.00  0.00    -0.200 C  
HETATM   22  O   UNL     1      -9.390  16.700  67.099  1.00  0.00    -0.222 OA 
HETATM   23  C   UNL     1      -7.870  15.872  68.795  1.00  0.00    -0.185 C  
HETATM   24  C   UNL     1      -8.549  18.330  68.563  1.00  0.00    -0.306 C  
HETATM   25  O   UNL     1      -8.048  19.468  67.843  1.00  0.00    -0.289 OA 
HETATM   26  C   UNL     1     -10.081  18.392  68.587  1.00  0.00    -0.377 C  
HETATM   27  H   UNL     1      -8.253  20.285  68.284  1.00  0.00     0.000 HD 
HETATM   28  O   UNL     1     -10.586  19.585  67.968  1.00  0.00    -0.415 OA 
HETATM   29  H   UNL     1     -10.290  20.351  68.446  1.00  0.00     0.000 HD 
ENDBRANCH  15  20
ENDBRANCH   9  11
ENDBRANCH   6   7
ENDBRANCH   5   6
ENDBRANCH   4   5
ENDBRANCH   3   4
ENDBRANCH   2   3
TORSDOF 7
ENDMDL
MODEL       31
REMARK 921   NORMALIZED FREE ENERGY PREDICTED BY IDOCK:   -5.59 KCAL/MOL
REMARK 922        TOTAL FREE ENERGY PREDICTED BY IDOCK:   -8.98 KCAL/MOL
REMARK 923 INTER-LIGAND FREE ENERGY PREDICTED BY IDOCK:   -7.87 KCAL/MOL
REMARK 924 INTRA-LIGAND FREE ENERGY PREDICTED BY IDOCK:   -1.11 KCAL/MOL
REMARK 927      BINDING AFFINITY PREDICTED BY RF-SCORE:    0.00 PKD
ROOT
HETATM    1  C   UNL     1     -10.867  15.415  70.233  1.00  0.00    -0.332 C  
HETATM    2  C   UNL     1     -11.842  15.680  71.375  1.00  0.00    -0.482 C  
ENDROOT
BRANCH   2   3
HETATM    3  C   UNL     1     -13.283  15.542  70.898  1.00  0.00    -0.474 C  
BRANCH   3   4
HETATM    4  C   UNL     1     -14.197  14.840  71.909  1.00  0.00    -0.632 C  
BRANCH   4   5
HETATM    5  C   UNL     1     -13.409  13.715  72.579  1.00  0.00    -0.534 C  
BRANCH   5   6
HETATM    6  O   UNL     1     -13.889  12.403  72.260  1.00  0.00    -0.353 OA 
BRANCH   6   7
HETATM    7  C   UNL     1     -12.998  11.661  71.555  1.00  0.00    -0.358 C  
HETATM    8  O   UNL     1     -12.241  12.123  70.717  1.00  0.00    -0.377 OA 
HETATM    9  N   UNL     1     -13.122  10.346  71.922  1.00  0.00    -0.466 N  
HETATM   10  H   UNL     1     -13.986  10.073  72.391  1.00  0.00     0.000 HD 
BRANCH   9  11
HETATM   11  C   UNL     1     -12.183   9.365  71.714  1.00  0.00    -0.390 C  
HETATM   12  N   UNL     1     -10.925   9.624  71.652  1.00  0.00    -0.231 N  
HETATM   13  C   UNL     1     -10.050   8.597  71.376  1.00  0.00    -0.254 C  
HETATM   14  H   UNL     1     -10.582  10.572  71.805  1.00  0.00     0.000 HD 
HETATM   15  N   UNL     1     -10.591   7.442  70.778  1.00  0.00    -0.221 N  
HETATM   16  O   UNL     1      -8.857   8.721  71.628  1.00  0.00    -0.206 OA 
HETATM   17  F   UNL     1     -14.044   7.802  71.833  1.00  0.00    -0.395 F  
HETATM   18  C   UNL     1     -11.916   7.116  71.043  1.00  0.00    -0.347 C  
HETATM   19  C   UNL     1     -12.745   8.019  71.564  1.00  0.00    -0.307 C  
BRANCH  15  20
HETATM   20  C   UNL     1      -9.690   6.453  70.168  1.00  0.00    -0.166 C  
HETATM   21  C   UNL     1      -9.615   6.825  67.851  1.00  0.00    -0.120 C  
HETATM   22  O   UNL     1      -8.932   7.036  69.089  1.00  0.00    -0.135 OA 
HETATM   23  C   UNL     1     -10.565   7.983  67.571  1.00  0.00    -0.302 C  
HETATM   24  C   UNL     1     -10.302   5.473  68.002  1.00  0.00    -0.177 C  
HETATM   25  O   UNL     1      -9.525   4.410  67.425  1.00  0.00    -0.148 OA 
HETATM   26  C   UNL     1     -10.407   5.248  69.515  1.00  0.00    -0.263 C  
HETATM   27  H   UNL     1      -9.954   3.567  67.519  1.00  0.00     0.000 HD 
HETATM   28  O   UNL     1      -9.784   4.022  69.926  1.00  0.00    -0.203 OA 
HETATM   29  H   UNL     1     -10.224   3.281  69.525  1.00  0.00     0.000 HD 
ENDBRANCH  15  20
ENDBRANCH   9  11
ENDBRANCH   6   7
ENDBRANCH   5   6
ENDBRANCH   4   5
ENDBRANCH   3   4
ENDBRANCH   2   3
TORSDOF 7
ENDMDL
MODEL       32
REMARK 921   NORMALIZED FREE ENERGY PREDICTED BY IDOCK:   -5.59 KCAL/MOL
REMARK 922        TOTAL FREE ENERGY PREDICTED BY IDOCK:   -8.98 KCAL/MOL
REMARK 923 INTER-LIGAND FREE ENERGY PREDICTED BY IDOCK:   -8.05 KCAL/MOL
REMARK 924 INTRA-LIGAND FREE ENERGY PREDICTED BY IDOCK:   -0.93 KCAL/MOL
REMARK 927      BINDING AFFINITY PREDICTED BY RF-SCORE:    0.00 PKD
ROOT
HETATM    1  C   UNL     1     -12.337  15.384  74.209  1.00  0.00    -0.807 C  
HETATM    2  C   UNL     1     -13.289  15.787  73.089  1.00  0.00    -0.685 C  
ENDROOT
BRANCH   2   3
HETATM    3  C   UNL     1     -12.570  15.790  71.744  1.00  0.00    -0.524 C  
BRANCH   3   4
HETATM    4  C   UNL     1     -13.021  14.663  70.808  1.00  0.00    -0.405 C  
BRANCH   4   5
HETATM    5  C   UNL     1     -12.233  14.768  69.504  1.00  0.00    -0.243 C  
BRANCH   5   6
HETATM    6  O   UNL     1     -12.322  13.600  68.678  1.00  0.00    -0.258 OA 
BRANCH   6   7
HETATM    7  C   UNL     1     -11.393  12.657  68.977  1.00  0.00    -0.292 C  
HETATM    8  O   UNL     1     -10.220  12.731  68.651  1.00  0.00    -0.222 OA 
HETATM    9  N   UNL     1     -12.000  11.635  69.661  1.00  0.00    -0.322 N  
HETATM   10  H   UNL     1     -13.015  11.564  69.589  1.00  0.00     0.000 HD 
BRANCH   9  11
HETATM   11  C   UNL     1     -11.358  10.698  70.433  1.00  0.00    -0.304 C  
HETATM   12  N   UNL     1     -10.119  10.400  70.259  1.00  0.00    -0.373 N  
HETATM   13  C   UNL     1      -9.561   9.404  71.030  1.00  0.00    -0.202 C  
HETATM   14  H   UNL     1      -9.560  10.890  69.562  1.00  0.00     0.000 HD 
HETATM   15  N   UNL     1     -10.452   8.507  71.653  1.00  0.00    -0.250 N  
HETATM   16  O   UNL     1      -8.344   9.314  71.133  1.00  0.00    -0.291 OA 
HETATM   17  F   UNL     1     -13.430  10.578  71.702  1.00  0.00    -0.426 F  
HETATM   18  C   UNL     1     -11.723   8.957  71.988  1.00  0.00    -0.367 C  
HETATM   19  C   UNL     1     -12.208  10.078  71.454  1.00  0.00    -0.416 C  
BRANCH  15  20
HETATM   20  C   UNL     1      -9.937   7.250  72.215  1.00  0.00    -0.169 C  
HETATM   21  C   UNL     1     -10.552   5.479  70.802  1.00  0.00    -0.249 C  
HETATM   22  O   UNL     1      -9.489   6.358  71.175  1.00  0.00    -0.166 OA 
HETATM   23  C   UNL     1     -11.374   6.094  69.676  1.00  0.00    -0.442 C  
HETATM   24  C   UNL     1     -11.335   5.235  72.088  1.00  0.00    -0.007 C  
HETATM   25  O   UNL     1     -10.935   4.016  72.735  1.00  0.00    -0.108 OA 
HETATM   26  C   UNL     1     -10.982   6.420  72.996  1.00  0.00    -0.238 C  
HETATM   27  H   UNL     1     -11.424   3.864  73.536  1.00  0.00     0.000 HD 
HETATM   28  O   UNL     1     -10.435   5.995  74.254  1.00  0.00    -0.280 OA 
HETATM   29  H   UNL     1     -11.077   5.485  74.734  1.00  0.00     0.000 HD 
ENDBRANCH  15  20
ENDBRANCH   9  11
ENDBRANCH   6   7
ENDBRANCH   5   6
ENDBRANCH   4   5
ENDBRANCH   3   4
ENDBRANCH   2   3
TORSDOF 7
ENDMDL
MODEL       33
REMARK 921   NORMALIZED FREE ENERGY PREDICTED BY IDOCK:   -5.56 KCAL/MOL
REMARK 922        TOTAL FREE ENERGY PREDICTED BY IDOCK:   -8.93 KCAL/MOL
REMARK 923 INTER-LIGAND FREE ENERGY PREDICTED BY IDOCK:   -7.99 KCAL/MOL
REMARK 924 INTRA-LIGAND FREE ENERGY PREDICTED BY IDOCK:   -0.94 KCAL/MOL
REMARK 927      BINDING AFFINITY PREDICTED BY RF-SCORE:    0.00 PKD
ROOT
HETATM    1  C   UNL     1     -10.383  16.654  65.970  1.00  0.00    -0.352 C  
HETATM    2  C   UNL     1     -11.155  15.963  64.852  1.00  0.00    -0.400 C  
ENDROOT
BRANCH   2   3
HETATM    3  C   UNL     1     -10.662  14.533  64.660  1.00  0.00    -0.332 C  
BRANCH   3   4
HETATM    4  C   UNL     1     -11.681  13.624  63.962  1.00  0.00    -0.405 C  
BRANCH   4   5
HETATM    5  C   UNL     1     -12.311  12.706  65.008  1.00  0.00    -0.497 C  
BRANCH   5   6
HETATM    6  O   UNL     1     -11.828  12.926  66.339  1.00  0.00    -0.381 OA 
BRANCH   6   7
HETATM    7  C   UNL     1     -11.368  11.799  66.938  1.00  0.00    -0.320 C  
HETATM    8  O   UNL     1     -10.758  10.919  66.353  1.00  0.00    -0.249 OA 
HETATM    9  N   UNL     1     -11.727  11.818  68.261  1.00  0.00    -0.316 N  
HETATM   10  H   UNL     1     -12.482  12.448  68.530  1.00  0.00     0.000 HD 
BRANCH   9  11
HETATM   11  C   UNL     1     -11.156  11.061  69.255  1.00  0.00    -0.254 C  
HETATM   12  N   UNL     1      -9.990  10.534  69.131  1.00  0.00    -0.214 N  
HETATM   13  C   UNL     1      -9.511   9.735  70.145  1.00  0.00    -0.229 C  
HETATM   14  H   UNL     1      -9.430  10.705  68.296  1.00  0.00     0.000 HD 
HETATM   15  N   UNL     1     -10.460   9.211  71.045  1.00  0.00    -0.271 N  
HETATM   16  O   UNL     1      -8.313   9.489  70.221  1.00  0.00    -0.168 OA 
HETATM   17  F   UNL     1     -13.110  11.646  70.582  1.00  0.00    -0.219 F  
HETATM   18  C   UNL     1     -11.624   9.934  71.278  1.00  0.00    -0.379 C  
HETATM   19  C   UNL     1     -11.994  10.910  70.449  1.00  0.00    -0.362 C  
BRANCH  15  20
HETATM   20  C   UNL     1     -10.077   8.111  71.941  1.00  0.00    -0.220 C  
HETATM   21  C   UNL     1     -10.800   6.083  71.004  1.00  0.00    -0.282 C  
HETATM   22  O   UNL     1      -9.676   6.946  71.193  1.00  0.00    -0.173 OA 
HETATM   23  C   UNL     1     -11.527   6.442  69.713  1.00  0.00    -0.468 C  
HETATM   24  C   UNL     1     -11.643   6.247  72.263  1.00  0.00    -0.309 C  
HETATM   25  O   UNL     1     -11.374   5.214  73.226  1.00  0.00    -0.364 OA 
HETATM   26  C   UNL     1     -11.217   7.598  72.852  1.00  0.00    -0.372 C  
HETATM   27  H   UNL     1     -11.900   5.316  74.011  1.00  0.00     0.000 HD 
HETATM   28  O   UNL     1     -10.751   7.478  74.205  1.00  0.00    -0.458 OA 
HETATM   29  H   UNL     1     -11.451   7.163  74.765  1.00  0.00     0.000 HD 
ENDBRANCH  15  20
ENDBRANCH   9  11
ENDBRANCH   6   7
ENDBRANCH   5   6
ENDBRANCH   4   5
ENDBRANCH   3   4
ENDBRANCH   2   3
TORSDOF 7
ENDMDL
MODEL       34
REMARK 921   NORMALIZED FREE ENERGY PREDICTED BY IDOCK:   -5.55 KCAL/MOL
REMARK 922        TOTAL FREE ENERGY PREDICTED BY IDOCK:   -8.93 KCAL/MOL
REMARK 923 INTER-LIGAND FREE ENERGY PREDICTED BY IDOCK:   -8.26 KCAL/MOL
REMARK 924 INTRA-LIGAND FREE ENERGY PREDICTED BY IDOCK:   -0.66 KCAL/MOL
REMARK 927      BINDING AFFINITY PREDICTED BY RF-SCORE:    0.00 PKD
ROOT
HETATM    1  C   UNL     1      -6.037  19.765  70.297  1.00  0.00    -0.333 C  
HETATM    2  C   UNL     1      -7.026  19.329  69.222  1.00  0.00    -0.349 C  
ENDROOT
BRANCH   2   3
HETATM    3  C   UNL     1      -6.810  20.119  67.936  1.00  0.00    -0.313 C  
BRANCH   3   4
HETATM    4  C   UNL     1      -7.882  19.858  66.871  1.00  0.00    -0.330 C  
BRANCH   4   5
HETATM    5  C   UNL     1      -9.236  20.300  67.424  1.00  0.00    -0.380 C  
BRANCH   5   6
HETATM    6  O   UNL     1     -10.355  19.685  66.773  1.00  0.00    -0.408 OA 
BRANCH   6   7
HETATM    7  C   UNL     1     -10.428  18.346  66.977  1.00  0.00    -0.399 C  
HETATM    8  O   UNL     1     -10.750  17.836  68.037  1.00  0.00    -0.382 OA 
HETATM    9  N   UNL     1     -10.057  17.699  65.825  1.00  0.00    -0.160 N  
HETATM   10  H   UNL     1      -9.527  18.236  65.139  1.00  0.00     0.000 HD 
BRANCH   9  11
HETATM   11  C   UNL     1     -10.338  16.390  65.518  1.00  0.00    -0.313 C  
HETATM   12  N   UNL     1     -11.394  16.052  64.867  1.00  0.00    -0.282 N  
HETATM   13  C   UNL     1     -11.641  14.714  64.652  1.00  0.00    -0.402 C  
HETATM   14  H   UNL     1     -12.038  16.761  64.517  1.00  0.00     0.000 HD 
HETATM   15  N   UNL     1     -10.972  13.800  65.490  1.00  0.00    -0.293 N  
HETATM   16  O   UNL     1     -12.429  14.365  63.781  1.00  0.00    -0.814 OA 
HETATM   17  F   UNL     1      -8.172  15.877  66.499  1.00  0.00    -0.252 F  
HETATM   18  C   UNL     1      -9.734  14.161  66.011  1.00  0.00    -0.274 C  
HETATM   19  C   UNL     1      -9.338  15.433  66.001  1.00  0.00    -0.329 C  
BRANCH  15  20
HETATM   20  C   UNL     1     -11.419  12.401  65.540  1.00  0.00    -0.361 C  
HETATM   21  C   UNL     1     -12.061  11.887  67.738  1.00  0.00     0.125 C  
HETATM   22  O   UNL     1     -12.535  12.242  66.438  1.00  0.00    -0.377 OA 
HETATM   23  C   UNL     1     -11.803  13.141  68.565  1.00  0.00    -0.377 C  
HETATM   24  C   UNL     1     -10.822  11.035  67.490  1.00  0.00    -0.263 C  
HETATM   25  O   UNL     1     -11.122   9.629  67.528  1.00  0.00    -0.438 OA 
HETATM   26  C   UNL     1     -10.362  11.407  66.075  1.00  0.00    -0.249 C  
HETATM   27  H   UNL     1     -10.349   9.098  67.373  1.00  0.00     0.000 HD 
HETATM   28  O   UNL     1     -10.280  10.262  65.212  1.00  0.00    -0.307 OA 
HETATM   29  H   UNL     1      -9.631   9.651  65.541  1.00  0.00     0.000 HD 
ENDBRANCH  15  20
ENDBRANCH   9  11
ENDBRANCH   6   7
ENDBRANCH   5   6
ENDBRANCH   4   5
ENDBRANCH   3   4
ENDBRANCH   2   3
TORSDOF 7
ENDMDL
MODEL       35
REMARK 921   NORMALIZED FREE ENERGY PREDICTED BY IDOCK:   -5.55 KCAL/MOL
REMARK 922        TOTAL FREE ENERGY PREDICTED BY IDOCK:   -8.92 KCAL/MOL
REMARK 923 INTER-LIGAND FREE ENERGY PREDICTED BY IDOCK:   -8.11 KCAL/MOL
REMARK 924 INTRA-LIGAND FREE ENERGY PREDICTED BY IDOCK:   -0.81 KCAL/MOL
REMARK 927      BINDING AFFINITY PREDICTED BY RF-SCORE:    0.00 PKD
ROOT
HETATM    1  C   UNL     1      -9.006   7.630  73.347  1.00  0.00    -0.281 C  
HETATM    2  C   UNL     1     -10.493   7.403  73.103  1.00  0.00    -0.406 C  
ENDROOT
BRANCH   2   3
HETATM    3  C   UNL     1     -10.710   6.310  72.062  1.00  0.00    -0.268 C  
BRANCH   3   4
HETATM    4  C   UNL     1     -11.632   6.736  70.913  1.00  0.00    -0.403 C  
BRANCH   4   5
HETATM    5  C   UNL     1     -10.772   7.087  69.701  1.00  0.00    -0.241 C  
BRANCH   5   6
HETATM    6  O   UNL     1      -9.949   8.245  69.890  1.00  0.00    -0.185 OA 
BRANCH   6   7
HETATM    7  C   UNL     1     -10.189   9.228  68.986  1.00  0.00    -0.206 C  
HETATM    8  O   UNL     1     -10.654   9.033  67.876  1.00  0.00    -0.234 OA 
HETATM    9  N   UNL     1      -9.799  10.430  69.521  1.00  0.00    -0.335 N  
HETATM   10  H   UNL     1      -9.158  10.401  70.313  1.00  0.00     0.000 HD 
BRANCH   9  11
HETATM   11  C   UNL     1     -10.201  11.668  69.081  1.00  0.00     0.034 C  
HETATM   12  N   UNL     1     -11.303  12.206  69.464  1.00  0.00    -0.434 N  
HETATM   13  C   UNL     1     -11.669  13.422  68.931  1.00  0.00    -0.328 C  
HETATM   14  H   UNL     1     -11.897  11.742  70.151  1.00  0.00     0.000 HD 
HETATM   15  N   UNL     1     -11.050  13.799  67.722  1.00  0.00    -0.262 N  
HETATM   16  O   UNL     1     -12.514  14.111  69.490  1.00  0.00    -0.298 OA 
HETATM   17  F   UNL     1      -8.053  11.767  67.944  1.00  0.00    -0.119 F  
HETATM   18  C   UNL     1      -9.769  13.328  67.457  1.00  0.00    -0.224 C  
HETATM   19  C   UNL     1      -9.268  12.302  68.143  1.00  0.00    -0.197 C  
BRANCH  15  20
HETATM   20  C   UNL     1     -11.612  14.906  66.936  1.00  0.00    -0.277 C  
HETATM   21  C   UNL     1     -12.349  14.072  64.869  1.00  0.00    -0.427 C  
HETATM   22  O   UNL     1     -12.760  14.477  66.177  1.00  0.00    -0.231 OA 
HETATM   23  C   UNL     1     -12.010  12.586  64.861  1.00  0.00    -0.468 C  
HETATM   24  C   UNL     1     -11.178  14.983  64.520  1.00  0.00    -0.265 C  
HETATM   25  O   UNL     1     -11.593  16.109  63.730  1.00  0.00    -1.390 OA 
HETATM   26  C   UNL     1     -10.654  15.488  65.871  1.00  0.00    -0.339 C  
HETATM   27  H   UNL     1     -10.863  16.677  63.512  1.00  0.00     0.000 HD 
HETATM   28  O   UNL     1     -10.644  16.922  65.946  1.00  0.00    -0.322 OA 
HETATM   29  H   UNL     1     -10.056  17.280  65.291  1.00  0.00     0.000 HD 
ENDBRANCH  15  20
ENDBRANCH   9  11
ENDBRANCH   6   7
ENDBRANCH   5   6
ENDBRANCH   4   5
ENDBRANCH   3   4
ENDBRANCH   2   3
TORSDOF 7
ENDMDL
MODEL       36
REMARK 921   NORMALIZED FREE ENERGY PREDICTED BY IDOCK:   -5.53 KCAL/MOL
REMARK 922        TOTAL FREE ENERGY PREDICTED BY IDOCK:   -8.90 KCAL/MOL
REMARK 923 INTER-LIGAND FREE ENERGY PREDICTED BY IDOCK:   -7.86 KCAL/MOL
REMARK 924 INTRA-LIGAND FREE ENERGY PREDICTED BY IDOCK:   -1.04 KCAL/MOL
REMARK 927      BINDING AFFINITY PREDICTED BY RF-SCORE:    0.00 PKD
ROOT
HETATM    1  C   UNL     1     -10.471  19.755  66.241  1.00  0.00    -0.614 C  
HETATM    2  C   UNL     1     -10.824  19.002  67.518  1.00  0.00    -0.478 C  
ENDROOT
BRANCH   2   3
HETATM    3  C   UNL     1      -9.954  19.470  68.679  1.00  0.00    -0.538 C  
BRANCH   3   4
HETATM    4  C   UNL     1      -8.579  19.988  68.242  1.00  0.00    -0.173 C  
BRANCH   4   5
HETATM    5  C   UNL     1      -7.509  19.025  68.753  1.00  0.00    -0.333 C  
BRANCH   5   6
HETATM    6  O   UNL     1      -6.692  18.464  67.717  1.00  0.00    -0.202 OA 
BRANCH   6   7
HETATM    7  C   UNL     1      -7.394  17.727  66.819  1.00  0.00    -0.206 C  
HETATM    8  O   UNL     1      -7.355  17.907  65.613  1.00  0.00    -0.533 OA 
HETATM    9  N   UNL     1      -8.145  16.798  67.494  1.00  0.00    -0.170 N  
HETATM   10  H   UNL     1      -8.311  16.966  68.486  1.00  0.00     0.000 HD 
BRANCH   9  11
HETATM   11  C   UNL     1      -8.692  15.663  66.947  1.00  0.00    -0.253 C  
HETATM   12  N   UNL     1      -9.743  15.697  66.206  1.00  0.00    -0.277 N  
HETATM   13  C   UNL     1     -10.270  14.511  65.747  1.00  0.00    -0.335 C  
HETATM   14  H   UNL     1     -10.178  16.587  65.964  1.00  0.00     0.000 HD 
HETATM   15  N   UNL     1      -9.895  13.339  66.434  1.00  0.00    -0.276 N  
HETATM   16  O   UNL     1     -11.045  14.508  64.798  1.00  0.00    -0.382 OA 
HETATM   17  F   UNL     1      -6.785  14.494  67.903  1.00  0.00    -0.102 F  
HETATM   18  C   UNL     1      -8.653  13.304  67.058  1.00  0.00    -0.161 C  
HETATM   19  C   UNL     1      -7.978  14.429  67.290  1.00  0.00    -0.180 C  
BRANCH  15  20
HETATM   20  C   UNL     1     -10.652  12.099  66.216  1.00  0.00    -0.250 C  
HETATM   21  C   UNL     1     -11.703  11.488  68.224  1.00  0.00    -0.301 C  
HETATM   22  O   UNL     1     -11.892  12.109  66.951  1.00  0.00    -0.555 OA 
HETATM   23  C   UNL     1     -11.287  12.527  69.259  1.00  0.00    -0.307 C  
HETATM   24  C   UNL     1     -10.668  10.395  67.984  1.00  0.00    -0.249 C  
HETATM   25  O   UNL     1     -11.283   9.113  67.770  1.00  0.00    -0.474 OA 
HETATM   26  C   UNL     1      -9.938  10.816  66.702  1.00  0.00    -0.206 C  
HETATM   27  H   UNL     1     -10.638   8.432  67.620  1.00  0.00     0.000 HD 
HETATM   28  O   UNL     1      -9.996   9.803  65.686  1.00  0.00    -0.301 OA 
HETATM   29  H   UNL     1      -9.558   9.015  65.985  1.00  0.00     0.000 HD 
ENDBRANCH  15  20
ENDBRANCH   9  11
ENDBRANCH   6   7
ENDBRANCH   5   6
ENDBRANCH   4   5
ENDBRANCH   3   4
ENDBRANCH   2   3
TORSDOF 7
ENDMDL
MODEL       37
REMARK 921   NORMALIZED FREE ENERGY PREDICTED BY IDOCK:   -5.52 KCAL/MOL
REMARK 922        TOTAL FREE ENERGY PREDICTED BY IDOCK:   -8.88 KCAL/MOL
REMARK 923 INTER-LIGAND FREE ENERGY PREDICTED BY IDOCK:   -7.64 KCAL/MOL
REMARK 924 INTRA-LIGAND FREE ENERGY PREDICTED BY IDOCK:   -1.24 KCAL/MOL
REMARK 927      BINDING AFFINITY PREDICTED BY RF-SCORE:    0.00 PKD
ROOT
HETATM    1  C   UNL     1     -12.531  12.393  64.578  1.00  0.00    -0.519 C  
HETATM    2  C   UNL     1     -11.380  13.259  65.075  1.00  0.00    -0.326 C  
ENDROOT
BRANCH   2   3
HETATM    3  C   UNL     1     -11.896  14.589  65.612  1.00  0.00    -0.326 C  
BRANCH   3   4
HETATM    4  C   UNL     1     -10.816  15.674  65.699  1.00  0.00    -0.336 C  
BRANCH   4   5
HETATM    5  C   UNL     1     -10.599  16.029  67.168  1.00  0.00    -0.305 C  
BRANCH   5   6
HETATM    6  O   UNL     1      -9.675  15.165  67.843  1.00  0.00    -0.207 OA 
BRANCH   6   7
HETATM    7  C   UNL     1     -10.205  14.558  68.934  1.00  0.00    -0.229 C  
HETATM    8  O   UNL     1     -10.383  15.116  70.004  1.00  0.00    -0.238 OA 
HETATM    9  N   UNL     1     -10.466  13.245  68.632  1.00  0.00    -0.309 N  
HETATM   10  H   UNL     1      -9.989  12.851  67.821  1.00  0.00     0.000 HD 
BRANCH   9  11
HETATM   11  C   UNL     1     -11.314  12.418  69.327  1.00  0.00    -0.254 C  
HETATM   12  N   UNL     1     -11.850  12.768  70.442  1.00  0.00    -0.550 N  
HETATM   13  C   UNL     1     -12.639  11.861  71.113  1.00  0.00    -0.288 C  
HETATM   14  H   UNL     1     -11.695  13.701  70.823  1.00  0.00     0.000 HD 
HETATM   15  N   UNL     1     -12.480  10.503  70.770  1.00  0.00    -0.348 N  
HETATM   16  O   UNL     1     -13.416  12.243  71.980  1.00  0.00    -0.467 OA 
HETATM   17  F   UNL     1     -11.101  10.901  67.438  1.00  0.00    -0.291 F  
HETATM   18  C   UNL     1     -12.076  10.187  69.478  1.00  0.00     0.139 C  
HETATM   19  C   UNL     1     -11.539  11.117  68.689  1.00  0.00    -0.315 C  
BRANCH  15  20
HETATM   20  C   UNL     1     -13.037   9.465  71.649  1.00  0.00    -0.394 C  
HETATM   21  C   UNL     1     -11.269   8.243  72.595  1.00  0.00    -0.340 C  
HETATM   22  O   UNL     1     -12.221   9.284  72.824  1.00  0.00     0.021 OA 
HETATM   23  C   UNL     1      -9.986   8.824  72.011  1.00  0.00    -0.391 C  
HETATM   24  C   UNL     1     -11.978   7.249  71.682  1.00  0.00    -0.308 C  
HETATM   25  O   UNL     1     -12.560   6.163  72.423  1.00  0.00    -0.542 OA 
HETATM   26  C   UNL     1     -13.101   8.055  71.017  1.00  0.00     0.064 C  
HETATM   27  H   UNL     1     -13.001   5.543  71.854  1.00  0.00     0.000 HD 
HETATM   28  O   UNL     1     -14.394   7.472  71.241  1.00  0.00    -0.585 OA 
HETATM   29  H   UNL     1     -14.434   6.605  70.853  1.00  0.00     0.000 HD 
ENDBRANCH  15  20
ENDBRANCH   9  11
ENDBRANCH   6   7
ENDBRANCH   5   6
ENDBRANCH   4   5
ENDBRANCH   3   4
ENDBRANCH   2   3
TORSDOF 7
ENDMDL
MODEL       38
REMARK 921   NORMALIZED FREE ENERGY PREDICTED BY IDOCK:   -5.52 KCAL/MOL
REMARK 922        TOTAL FREE ENERGY PREDICTED BY IDOCK:   -8.88 KCAL/MOL
REMARK 923 INTER-LIGAND FREE ENERGY PREDICTED BY IDOCK:   -8.03 KCAL/MOL
REMARK 924 INTRA-LIGAND FREE ENERGY PREDICTED BY IDOCK:   -0.85 KCAL/MOL
REMARK 927      BINDING AFFINITY PREDICTED BY RF-SCORE:    0.00 PKD
ROOT
HETATM    1  C   UNL     1     -13.343  13.009  71.834  1.00  0.00    -0.539 C  
HETATM    2  C   UNL     1     -14.020  14.159  72.570  1.00  0.00    -0.536 C  
ENDROOT
BRANCH   2   3
HETATM    3  C   UNL     1     -13.585  15.501  71.992  1.00  0.00    -0.595 C  
BRANCH   3   4
HETATM    4  C   UNL     1     -12.143  15.882  72.351  1.00  0.00    -0.605 C  
BRANCH   4   5
HETATM    5  C   UNL     1     -11.356  16.082  71.058  1.00  0.00    -0.379 C  
BRANCH   5   6
HETATM    6  O   UNL     1     -12.108  15.797  69.871  1.00  0.00    -0.352 OA 
BRANCH   6   7
HETATM    7  C   UNL     1     -11.434  15.029  68.978  1.00  0.00    -0.304 C  
HETATM    8  O   UNL     1     -10.269  15.214  68.665  1.00  0.00    -0.215 OA 
HETATM    9  N   UNL     1     -12.279  14.065  68.492  1.00  0.00    -0.537 N  
HETATM   10  H   UNL     1     -13.280  14.223  68.606  1.00  0.00     0.000 HD 
BRANCH   9  11
HETATM   11  C   UNL     1     -11.892  12.906  67.864  1.00  0.00    -0.339 C  
HETATM   12  N   UNL     1     -11.561  11.851  68.519  1.00  0.00    -0.294 N  
HETATM   13  C   UNL     1     -11.123  10.747  67.821  1.00  0.00    -0.318 C  
HETATM   14  H   UNL     1     -11.621  11.830  69.536  1.00  0.00     0.000 HD 
HETATM   15  N   UNL     1     -10.673  10.964  66.504  1.00  0.00    -0.238 N  
HETATM   16  O   UNL     1     -11.114   9.644  68.356  1.00  0.00    -0.156 OA 
HETATM   17  F   UNL     1     -12.430  14.057  65.789  1.00  0.00    -0.413 F  
HETATM   18  C   UNL     1     -11.218  12.019  65.781  1.00  0.00    -0.334 C  
HETATM   19  C   UNL     1     -11.888  12.990  66.400  1.00  0.00    -0.405 C  
BRANCH  15  20
HETATM   20  C   UNL     1      -9.902   9.915  65.820  1.00  0.00    -0.287 C  
HETATM   21  C   UNL     1      -7.657  10.069  66.487  1.00  0.00    -0.106 C  
HETATM   22  O   UNL     1      -8.887   9.368  66.684  1.00  0.00    -0.131 OA 
HETATM   23  C   UNL     1      -7.571  11.259  67.435  1.00  0.00    -0.120 C  
HETATM   24  C   UNL     1      -7.646  10.443  65.009  1.00  0.00    -0.086 C  
HETATM   25  O   UNL     1      -6.903   9.497  64.222  1.00  0.00    -0.093 OA 
HETATM   26  C   UNL     1      -9.118  10.401  64.579  1.00  0.00    -0.229 C  
HETATM   27  H   UNL     1      -6.896   9.731  63.301  1.00  0.00     0.000 HD 
HETATM   28  O   UNL     1      -9.335   9.507  63.477  1.00  0.00    -0.420 OA 
HETATM   29  H   UNL     1      -8.853   9.805  62.714  1.00  0.00     0.000 HD 
ENDBRANCH  15  20
ENDBRANCH   9  11
ENDBRANCH   6   7
ENDBRANCH   5   6
ENDBRANCH   4   5
ENDBRANCH   3   4
ENDBRANCH   2   3
TORSDOF 7
ENDMDL
MODEL       39
REMARK 921   NORMALIZED FREE ENERGY PREDICTED BY IDOCK:   -5.49 KCAL/MOL
REMARK 922        TOTAL FREE ENERGY PREDICTED BY IDOCK:   -8.83 KCAL/MOL
REMARK 923 INTER-LIGAND FREE ENERGY PREDICTED BY IDOCK:   -7.59 KCAL/MOL
REMARK 924 INTRA-LIGAND FREE ENERGY PREDICTED BY IDOCK:   -1.24 KCAL/MOL
REMARK 927      BINDING AFFINITY PREDICTED BY RF-SCORE:    0.00 PKD
ROOT
HETATM    1  C   UNL     1     -13.646  13.126  72.324  1.00  0.00    -0.677 C  
HETATM    2  C   UNL     1     -13.483  14.620  72.581  1.00  0.00    -0.580 C  
ENDROOT
BRANCH   2   3
HETATM    3  C   UNL     1     -13.451  15.394  71.268  1.00  0.00    -0.598 C  
BRANCH   3   4
HETATM    4  C   UNL     1     -12.041  15.827  70.848  1.00  0.00    -0.459 C  
BRANCH   4   5
HETATM    5  C   UNL     1     -11.866  15.541  69.358  1.00  0.00    -0.374 C  
BRANCH   5   6
HETATM    6  O   UNL     1     -12.361  14.259  68.952  1.00  0.00    -0.259 OA 
BRANCH   6   7
HETATM    7  C   UNL     1     -11.394  13.310  68.872  1.00  0.00    -0.288 C  
HETATM    8  O   UNL     1     -10.282  13.510  68.411  1.00  0.00    -0.237 OA 
HETATM    9  N   UNL     1     -11.889  12.127  69.358  1.00  0.00    -0.313 N  
HETATM   10  H   UNL     1     -12.902  12.035  69.416  1.00  0.00     0.000 HD 
BRANCH   9  11
HETATM   11  C   UNL     1     -11.135  11.056  69.773  1.00  0.00    -0.235 C  
HETATM   12  N   UNL     1      -9.869  10.986  69.561  1.00  0.00    -0.428 N  
HETATM   13  C   UNL     1      -9.192   9.852  69.950  1.00  0.00    -0.212 C  
HETATM   14  H   UNL     1      -9.374  11.757  69.112  1.00  0.00     0.000 HD 
HETATM   15  N   UNL     1      -9.964   8.693  70.168  1.00  0.00    -0.179 N  
HETATM   16  O   UNL     1      -7.973   9.873  70.069  1.00  0.00    -0.167 OA 
HETATM   17  F   UNL     1     -13.177  10.247  70.818  1.00  0.00    -0.426 F  
HETATM   18  C   UNL     1     -11.282   8.842  70.584  1.00  0.00    -0.266 C  
HETATM   19  C   UNL     1     -11.902  10.015  70.464  1.00  0.00    -0.303 C  
BRANCH  15  20
HETATM   20  C   UNL     1      -9.297   7.387  70.267  1.00  0.00    -0.162 C  
HETATM   21  C   UNL     1      -9.731   6.164  68.311  1.00  0.00    -0.121 C  
HETATM   22  O   UNL     1      -8.769   6.974  68.991  1.00  0.00    -0.128 OA 
HETATM   23  C   UNL     1     -10.640   7.036  67.452  1.00  0.00    -0.372 C  
HETATM   24  C   UNL     1     -10.455   5.399  69.411  1.00  0.00    -0.261 C  
HETATM   25  O   UNL     1      -9.905   4.084  69.601  1.00  0.00    -0.210 OA 
HETATM   26  C   UNL     1     -10.224   6.223  70.685  1.00  0.00    -0.194 C  
HETATM   27  H   UNL     1     -10.358   3.607  70.287  1.00  0.00     0.000 HD 
HETATM   28  O   UNL     1      -9.608   5.450  71.726  1.00  0.00    -0.145 OA 
HETATM   29  H   UNL     1     -10.177   4.734  71.983  1.00  0.00     0.000 HD 
ENDBRANCH  15  20
ENDBRANCH   9  11
ENDBRANCH   6   7
ENDBRANCH   5   6
ENDBRANCH   4   5
ENDBRANCH   3   4
ENDBRANCH   2   3
TORSDOF 7
ENDMDL
MODEL       40
REMARK 921   NORMALIZED FREE ENERGY PREDICTED BY IDOCK:   -5.44 KCAL/MOL
REMARK 922        TOTAL FREE ENERGY PREDICTED BY IDOCK:   -8.76 KCAL/MOL
REMARK 923 INTER-LIGAND FREE ENERGY PREDICTED BY IDOCK:   -7.55 KCAL/MOL
REMARK 924 INTRA-LIGAND FREE ENERGY PREDICTED BY IDOCK:   -1.21 KCAL/MOL
REMARK 927      BINDING AFFINITY PREDICTED BY RF-SCORE:    0.00 PKD
ROOT
HETATM    1  C   UNL     1      -5.690  20.494  63.590  1.00  0.00    -0.312 C  
HETATM    2  C   UNL     1      -5.766  19.139  64.285  1.00  0.00    -0.321 C  
ENDROOT
BRANCH   2   3
HETATM    3  C   UNL     1      -6.085  19.308  65.766  1.00  0.00    -0.223 C  
BRANCH   3   4
HETATM    4  C   UNL     1      -6.967  20.527  66.065  1.00  0.00    -0.233 C  
BRANCH   4   5
HETATM    5  C   UNL     1      -7.929  20.167  67.196  1.00  0.00    -0.326 C  
BRANCH   5   6
HETATM    6  O   UNL     1      -9.286  20.553  66.948  1.00  0.00    -0.357 OA 
BRANCH   6   7
HETATM    7  C   UNL     1     -10.020  19.584  66.345  1.00  0.00    -0.438 C  
HETATM    8  O   UNL     1     -10.875  19.803  65.504  1.00  0.00    -0.445 OA 
HETATM    9  N   UNL     1      -9.656  18.365  66.858  1.00  0.00    -0.292 N  
HETATM   10  H   UNL     1      -9.165  18.364  67.752  1.00  0.00     0.000 HD 
BRANCH   9  11
HETATM   11  C   UNL     1      -9.896  17.147  66.271  1.00  0.00    -0.291 C  
HETATM   12  N   UNL     1     -10.934  16.930  65.544  1.00  0.00    -0.118 N  
HETATM   13  C   UNL     1     -11.140  15.664  65.041  1.00  0.00    -0.389 C  
HETATM   14  H   UNL     1     -11.593  17.681  65.342  1.00  0.00     0.000 HD 
HETATM   15  N   UNL     1     -10.455  14.609  65.676  1.00  0.00    -0.321 N  
HETATM   16  O   UNL     1     -11.907  15.492  64.102  1.00  0.00    -0.463 OA 
HETATM   17  F   UNL     1      -7.729  16.488  67.159  1.00  0.00    -0.154 F  
HETATM   18  C   UNL     1      -9.235  14.879  66.284  1.00  0.00    -0.265 C  
HETATM   19  C   UNL     1      -8.876  16.133  66.555  1.00  0.00    -0.296 C  
BRANCH  15  20
HETATM   20  C   UNL     1     -10.863  13.221  65.414  1.00  0.00    -0.291 C  
HETATM   21  C   UNL     1     -11.888  12.356  67.341  1.00  0.00    -0.289 C  
HETATM   22  O   UNL     1     -12.122  12.920  66.048  1.00  0.00    -0.424 OA 
HETATM   23  C   UNL     1     -11.825  13.458  68.392  1.00  0.00    -0.401 C  
HETATM   24  C   UNL     1     -10.600  11.553  67.197  1.00  0.00    -0.237 C  
HETATM   25  O   UNL     1     -10.861  10.162  66.952  1.00  0.00    -0.201 OA 
HETATM   26  C   UNL     1      -9.896  12.151  65.972  1.00  0.00    -0.243 C  
HETATM   27  H   UNL     1     -10.058   9.661  66.863  1.00  0.00     0.000 HD 
HETATM   28  O   UNL     1      -9.622  11.162  64.968  1.00  0.00    -0.222 OA 
HETATM   29  H   UNL     1      -9.028  10.504  65.311  1.00  0.00     0.000 HD 
ENDBRANCH  15  20
ENDBRANCH   9  11
ENDBRANCH   6   7
ENDBRANCH   5   6
ENDBRANCH   4   5
ENDBRANCH   3   4
ENDBRANCH   2   3
TORSDOF 7
ENDMDL
MODEL       41
REMARK 921   NORMALIZED FREE ENERGY PREDICTED BY IDOCK:   -5.43 KCAL/MOL
REMARK 922        TOTAL FREE ENERGY PREDICTED BY IDOCK:   -8.75 KCAL/MOL
REMARK 923 INTER-LIGAND FREE ENERGY PREDICTED BY IDOCK:   -7.78 KCAL/MOL
REMARK 924 INTRA-LIGAND FREE ENERGY PREDICTED BY IDOCK:   -0.97 KCAL/MOL
REMARK 927      BINDING AFFINITY PREDICTED BY RF-SCORE:    0.00 PKD
ROOT
HETATM    1  C   UNL     1     -10.039  19.715  68.650  1.00  0.00    -0.547 C  
HETATM    2  C   UNL     1     -10.496  19.264  67.268  1.00  0.00    -0.566 C  
ENDROOT
BRANCH   2   3
HETATM    3  C   UNL     1     -10.633  17.747  67.213  1.00  0.00    -0.322 C  
BRANCH   3   4
HETATM    4  C   UNL     1     -10.533  17.074  68.587  1.00  0.00    -0.363 C  
BRANCH   4   5
HETATM    5  C   UNL     1     -11.422  15.832  68.588  1.00  0.00    -0.386 C  
BRANCH   5   6
HETATM    6  O   UNL     1     -12.102  15.608  69.830  1.00  0.00    -0.361 OA 
BRANCH   6   7
HETATM    7  C   UNL     1     -12.091  14.309  70.222  1.00  0.00    -0.335 C  
HETATM    8  O   UNL     1     -12.661  13.894  71.217  1.00  0.00    -0.333 OA 
HETATM    9  N   UNL     1     -11.328  13.584  69.343  1.00  0.00    -0.364 N  
HETATM   10  H   UNL     1     -10.676  14.102  68.754  1.00  0.00     0.000 HD 
BRANCH   9  11
HETATM   11  C   UNL     1     -11.366  12.220  69.188  1.00  0.00    -0.272 C  
HETATM   12  N   UNL     1     -11.236  11.414  70.181  1.00  0.00    -0.483 N  
HETATM   13  C   UNL     1     -11.221  10.058  69.939  1.00  0.00    -0.275 C  
HETATM   14  H   UNL     1     -11.147  11.771  71.132  1.00  0.00     0.000 HD 
HETATM   15  N   UNL     1     -10.932   9.650  68.621  1.00  0.00    -0.160 N  
HETATM   16  O   UNL     1     -11.429   9.267  70.851  1.00  0.00    -0.269 OA 
HETATM   17  F   UNL     1     -11.878  12.674  66.853  1.00  0.00    -0.388 F  
HETATM   18  C   UNL     1     -11.274  10.497  67.573  1.00  0.00    -0.224 C  
HETATM   19  C   UNL     1     -11.558  11.779  67.802  1.00  0.00    -0.304 C  
BRANCH  15  20
HETATM   20  C   UNL     1     -10.582   8.247  68.358  1.00  0.00    -0.099 C  
HETATM   21  C   UNL     1      -8.353   8.143  67.632  1.00  0.00    -0.127 C  
HETATM   22  O   UNL     1      -9.224   7.966  68.750  1.00  0.00    -0.144 OA 
HETATM   23  C   UNL     1      -7.851   9.582  67.579  1.00  0.00    -0.102 C  
HETATM   24  C   UNL     1      -9.172   7.721  66.418  1.00  0.00    -0.180 C  
HETATM   25  O   UNL     1      -8.910   6.359  66.042  1.00  0.00    -0.155 OA 
HETATM   26  C   UNL     1     -10.634   7.841  66.867  1.00  0.00    -0.277 C  
HETATM   27  H   UNL     1      -9.421   6.096  65.285  1.00  0.00     0.000 HD 
HETATM   28  O   UNL     1     -11.351   6.606  66.716  1.00  0.00    -0.745 OA 
HETATM   29  H   UNL     1     -11.382   6.356  65.800  1.00  0.00     0.000 HD 
ENDBRANCH  15  20
ENDBRANCH   9  11
ENDBRANCH   6   7
ENDBRANCH   5   6
ENDBRANCH   4   5
ENDBRANCH   3   4
ENDBRANCH   2   3
TORSDOF 7
ENDMDL
MODEL       42
REMARK 921   NORMALIZED FREE ENERGY PREDICTED BY IDOCK:   -5.42 KCAL/MOL
REMARK 922        TOTAL FREE ENERGY PREDICTED BY IDOCK:   -8.75 KCAL/MOL
REMARK 923 INTER-LIGAND FREE ENERGY PREDICTED BY IDOCK:   -7.66 KCAL/MOL
REMARK 924 INTRA-LIGAND FREE ENERGY PREDICTED BY IDOCK:   -1.08 KCAL/MOL
REMARK 927      BINDING AFFINITY PREDICTED BY RF-SCORE:    0.00 PKD
ROOT
HETATM    1  C   UNL     1     -12.771  12.083  63.398  1.00  0.00    -0.527 C  
HETATM    2  C   UNL     1     -11.452  12.798  63.666  1.00  0.00    -0.544 C  
ENDROOT
BRANCH   2   3
HETATM    3  C   UNL     1     -10.279  11.831  63.548  1.00  0.00    -0.483 C  
BRANCH   3   4
HETATM    4  C   UNL     1     -10.005  11.045  64.835  1.00  0.00    -0.343 C  
BRANCH   4   5
HETATM    5  C   UNL     1      -9.484  12.013  65.896  1.00  0.00    -0.197 C  
BRANCH   5   6
HETATM    6  O   UNL     1     -10.394  12.224  66.983  1.00  0.00    -0.217 OA 
BRANCH   6   7
HETATM    7  C   UNL     1     -10.712  13.530  67.173  1.00  0.00    -0.279 C  
HETATM    8  O   UNL     1     -11.853  13.939  67.309  1.00  0.00    -0.364 OA 
HETATM    9  N   UNL     1      -9.561  14.276  67.153  1.00  0.00    -0.238 N  
HETATM   10  H   UNL     1      -8.737  13.850  66.730  1.00  0.00     0.000 HD 
BRANCH   9  11
HETATM   11  C   UNL     1      -9.424  15.547  67.656  1.00  0.00    -0.208 C  
HETATM   12  N   UNL     1     -10.199  16.510  67.303  1.00  0.00    -0.282 N  
HETATM   13  C   UNL     1      -9.960  17.771  67.801  1.00  0.00    -0.322 C  
HETATM   14  H   UNL     1     -10.976  16.344  66.664  1.00  0.00     0.000 HD 
HETATM   15  N   UNL     1      -8.673  18.018  68.319  1.00  0.00    -0.277 N  
HETATM   16  O   UNL     1     -10.837  18.626  67.760  1.00  0.00    -0.390 OA 
HETATM   17  F   UNL     1      -7.687  14.610  69.077  1.00  0.00    -0.119 F  
HETATM   18  C   UNL     1      -7.961  16.955  68.863  1.00  0.00    -0.224 C  
HETATM   19  C   UNL     1      -8.324  15.697  68.614  1.00  0.00    -0.177 C  
BRANCH  15  20
HETATM   20  C   UNL     1      -8.245  19.402  68.566  1.00  0.00    -0.357 C  
HETATM   21  C   UNL     1      -6.951  20.132  66.748  1.00  0.00    -0.232 C  
HETATM   22  O   UNL     1      -8.248  20.174  67.348  1.00  0.00    -0.319 OA 
HETATM   23  C   UNL     1      -6.853  18.951  65.790  1.00  0.00    -0.307 C  
HETATM   24  C   UNL     1      -5.974  20.073  67.917  1.00  0.00    -0.217 C  
HETATM   25  O   UNL     1      -5.463  21.374  68.253  1.00  0.00    -0.406 OA 
HETATM   26  C   UNL     1      -6.799  19.543  69.096  1.00  0.00    -0.346 C  
HETATM   27  H   UNL     1      -4.853  21.337  68.982  1.00  0.00     0.000 HD 
HETATM   28  O   UNL     1      -6.770  20.433  70.222  1.00  0.00    -0.287 OA 
HETATM   29  H   UNL     1      -5.882  20.520  70.548  1.00  0.00     0.000 HD 
ENDBRANCH  15  20
ENDBRANCH   9  11
ENDBRANCH   6   7
ENDBRANCH   5   6
ENDBRANCH   4   5
ENDBRANCH   3   4
ENDBRANCH   2   3
TORSDOF 7
ENDMDL
MODEL       43
REMARK 921   NORMALIZED FREE ENERGY PREDICTED BY IDOCK:   -5.42 KCAL/MOL
REMARK 922        TOTAL FREE ENERGY PREDICTED BY IDOCK:   -8.74 KCAL/MOL
REMARK 923 INTER-LIGAND FREE ENERGY PREDICTED BY IDOCK:   -7.88 KCAL/MOL
REMARK 924 INTRA-LIGAND FREE ENERGY PREDICTED BY IDOCK:   -0.86 KCAL/MOL
REMARK 927      BINDING AFFINITY PREDICTED BY RF-SCORE:    0.00 PKD
ROOT
HETATM    1  C   UNL     1     -13.743  13.170  72.296  1.00  0.00    -0.647 C  
HETATM    2  C   UNL     1     -13.418  14.649  72.472  1.00  0.00    -0.565 C  
ENDROOT
BRANCH   2   3
HETATM    3  C   UNL     1     -13.314  15.344  71.119  1.00  0.00    -0.580 C  
BRANCH   3   4
HETATM    4  C   UNL     1     -11.942  15.181  70.453  1.00  0.00    -0.364 C  
BRANCH   4   5
HETATM    5  C   UNL     1     -12.097  14.277  69.232  1.00  0.00    -0.313 C  
BRANCH   5   6
HETATM    6  O   UNL     1     -11.121  13.230  69.159  1.00  0.00    -0.253 OA 
BRANCH   6   7
HETATM    7  C   UNL     1     -11.666  11.992  69.054  1.00  0.00    -0.325 C  
HETATM    8  O   UNL     1     -12.268  11.596  68.070  1.00  0.00    -0.551 OA 
HETATM    9  N   UNL     1     -11.450  11.308  70.223  1.00  0.00    -0.478 N  
HETATM   10  H   UNL     1     -11.214  11.859  71.048  1.00  0.00     0.000 HD 
BRANCH   9  11
HETATM   11  C   UNL     1     -11.523   9.945  70.377  1.00  0.00    -0.301 C  
HETATM   12  N   UNL     1     -12.524   9.374  70.947  1.00  0.00    -0.469 N  
HETATM   13  C   UNL     1     -12.497   8.008  71.122  1.00  0.00    -0.192 C  
HETATM   14  H   UNL     1     -13.323   9.922  71.264  1.00  0.00     0.000 HD 
HETATM   15  N   UNL     1     -11.236   7.382  71.054  1.00  0.00    -0.258 N  
HETATM   16  O   UNL     1     -13.533   7.396  71.350  1.00  0.00    -0.375 OA 
HETATM   17  F   UNL     1      -9.459   9.864  69.093  1.00  0.00    -0.158 F  
HETATM   18  C   UNL     1     -10.251   7.958  70.260  1.00  0.00    -0.200 C  
HETATM   19  C   UNL     1     -10.367   9.219  69.843  1.00  0.00    -0.220 C  
BRANCH  15  20
HETATM   20  C   UNL     1     -11.085   6.004  71.543  1.00  0.00    -0.276 C  
HETATM   21  C   UNL     1      -9.830   6.037  73.527  1.00  0.00    -0.171 C  
HETATM   22  O   UNL     1     -11.149   5.952  72.982  1.00  0.00    -0.263 OA 
HETATM   23  C   UNL     1      -9.457   7.494  73.774  1.00  0.00    -0.330 C  
HETATM   24  C   UNL     1      -8.937   5.324  72.519  1.00  0.00    -0.130 C  
HETATM   25  O   UNL     1      -8.694   3.957  72.891  1.00  0.00    -0.097 OA 
HETATM   26  C   UNL     1      -9.726   5.349  71.204  1.00  0.00    -0.174 C  
HETATM   27  H   UNL     1      -8.136   3.513  72.263  1.00  0.00     0.000 HD 
HETATM   28  O   UNL     1      -9.933   4.031  70.670  1.00  0.00    -0.187 OA 
HETATM   29  H   UNL     1      -9.098   3.628  70.462  1.00  0.00     0.000 HD 
ENDBRANCH  15  20
ENDBRANCH   9  11
ENDBRANCH   6   7
ENDBRANCH   5   6
ENDBRANCH   4   5
ENDBRANCH   3   4
ENDBRANCH   2   3
TORSDOF 7
ENDMDL
MODEL       44
REMARK 921   NORMALIZED FREE ENERGY PREDICTED BY IDOCK:   -5.41 KCAL/MOL
REMARK 922        TOTAL FREE ENERGY PREDICTED BY IDOCK:   -8.72 KCAL/MOL
REMARK 923 INTER-LIGAND FREE ENERGY PREDICTED BY IDOCK:   -7.56 KCAL/MOL
REMARK 924 INTRA-LIGAND FREE ENERGY PREDICTED BY IDOCK:   -1.16 KCAL/MOL
REMARK 927      BINDING AFFINITY PREDICTED BY RF-SCORE:    0.00 PKD
ROOT
HETATM    1  C   UNL     1      -9.436   5.995  68.677  1.00  0.00    -0.134 C  
HETATM    2  C   UNL     1     -10.781   6.244  69.349  1.00  0.00    -0.364 C  
ENDROOT
BRANCH   2   3
HETATM    3  C   UNL     1     -10.822   5.601  70.731  1.00  0.00    -0.294 C  
BRANCH   3   4
HETATM    4  C   UNL     1     -11.494   6.479  71.794  1.00  0.00    -0.346 C  
BRANCH   4   5
HETATM    5  C   UNL     1     -12.167   7.659  71.096  1.00  0.00    -0.285 C  
BRANCH   5   6
HETATM    6  O   UNL     1     -12.961   8.472  71.970  1.00  0.00    -0.336 OA 
BRANCH   6   7
HETATM    7  C   UNL     1     -12.967   9.785  71.625  1.00  0.00    -0.419 C  
HETATM    8  O   UNL     1     -13.506  10.658  72.285  1.00  0.00    -0.333 OA 
HETATM    9  N   UNL     1     -12.308   9.936  70.432  1.00  0.00    -0.483 N  
HETATM   10  H   UNL     1     -12.187   9.102  69.858  1.00  0.00     0.000 HD 
BRANCH   9  11
HETATM   11  C   UNL     1     -11.797  11.114  69.945  1.00  0.00    -0.363 C  
HETATM   12  N   UNL     1     -12.334  12.253  70.206  1.00  0.00    -0.239 N  
HETATM   13  C   UNL     1     -11.803  13.385  69.629  1.00  0.00    -0.331 C  
HETATM   14  H   UNL     1     -13.139  12.317  70.829  1.00  0.00     0.000 HD 
HETATM   15  N   UNL     1     -10.994  13.200  68.491  1.00  0.00    -0.253 N  
HETATM   16  O   UNL     1     -12.059  14.490  70.092  1.00  0.00    -0.294 OA 
HETATM   17  F   UNL     1      -9.994   9.756  69.040  1.00  0.00    -0.161 F  
HETATM   18  C   UNL     1     -10.286  12.010  68.365  1.00  0.00    -0.214 C  
HETATM   19  C   UNL     1     -10.605  10.950  69.107  1.00  0.00    -0.220 C  
BRANCH  15  20
HETATM   20  C   UNL     1     -10.662  14.354  67.643  1.00  0.00    -0.263 C  
HETATM   21  C   UNL     1     -11.680  14.071  65.546  1.00  0.00    -0.350 C  
HETATM   22  O   UNL     1     -11.779  14.728  66.812  1.00  0.00    -0.366 OA 
HETATM   23  C   UNL     1     -12.395  12.726  65.594  1.00  0.00    -0.444 C  
HETATM   24  C   UNL     1     -10.186  13.977  65.264  1.00  0.00    -0.360 C  
HETATM   25  O   UNL     1      -9.731  15.049  64.422  1.00  0.00    -0.146 OA 
HETATM   26  C   UNL     1      -9.514  14.103  66.637  1.00  0.00    -0.289 C  
HETATM   27  H   UNL     1      -8.799  14.990  64.245  1.00  0.00     0.000 HD 
HETATM   28  O   UNL     1      -8.573  15.187  66.683  1.00  0.00    -0.274 OA 
HETATM   29  H   UNL     1      -7.868  15.033  66.065  1.00  0.00     0.000 HD 
ENDBRANCH  15  20
ENDBRANCH   9  11
ENDBRANCH   6   7
ENDBRANCH   5   6
ENDBRANCH   4   5
ENDBRANCH   3   4
ENDBRANCH   2   3
TORSDOF 7
ENDMDL
MODEL       45
REMARK 921   NORMALIZED FREE ENERGY PREDICTED BY IDOCK:   -5.37 KCAL/MOL
REMARK 922        TOTAL FREE ENERGY PREDICTED BY IDOCK:   -8.67 KCAL/MOL
REMARK 923 INTER-LIGAND FREE ENERGY PREDICTED BY IDOCK:   -7.69 KCAL/MOL
REMARK 924 INTRA-LIGAND FREE ENERGY PREDICTED BY IDOCK:   -0.97 KCAL/MOL
REMARK 927      BINDING AFFINITY PREDICTED BY RF-SCORE:    0.00 PKD
ROOT
HETATM    1  C   UNL     1      -7.115  19.693  67.943  1.00  0.00    -0.301 C  
HETATM    2  C   UNL     1      -8.612  19.460  67.781  1.00  0.00    -0.349 C  
ENDROOT
BRANCH   2   3
HETATM    3  C   UNL     1      -9.083  19.911  66.402  1.00  0.00    -0.450 C  
BRANCH   3   4
HETATM    4  C   UNL     1     -10.442  19.326  66.000  1.00  0.00    -0.573 C  
BRANCH   4   5
HETATM    5  C   UNL     1     -10.495  17.865  66.441  1.00  0.00    -0.317 C  
BRANCH   5   6
HETATM    6  O   UNL     1      -9.988  16.946  65.465  1.00  0.00    -0.572 OA 
BRANCH   6   7
HETATM    7  C   UNL     1      -9.682  15.728  65.979  1.00  0.00    -0.345 C  
HETATM    8  O   UNL     1      -8.827  15.545  66.829  1.00  0.00    -0.221 OA 
HETATM    9  N   UNL     1     -10.462  14.778  65.370  1.00  0.00    -0.351 N  
HETATM   10  H   UNL     1     -10.897  15.031  64.483  1.00  0.00     0.000 HD 
BRANCH   9  11
HETATM   11  C   UNL     1     -10.706  13.516  65.853  1.00  0.00    -0.277 C  
HETATM   12  N   UNL     1     -11.175  13.313  67.033  1.00  0.00    -0.283 N  
HETATM   13  C   UNL     1     -11.334  12.017  67.470  1.00  0.00    -0.319 C  
HETATM   14  H   UNL     1     -11.424  14.097  67.635  1.00  0.00     0.000 HD 
HETATM   15  N   UNL     1     -10.605  11.021  66.789  1.00  0.00    -0.255 N  
HETATM   16  O   UNL     1     -12.062  11.774  68.425  1.00  0.00    -0.490 OA 
HETATM   17  F   UNL     1     -10.082  12.736  63.635  1.00  0.00    -0.405 F  
HETATM   18  C   UNL     1     -10.294  11.225  65.450  1.00  0.00    -0.272 C  
HETATM   19  C   UNL     1     -10.381  12.440  64.911  1.00  0.00    -0.293 C  
BRANCH  15  20
HETATM   20  C   UNL     1     -10.469   9.686  67.388  1.00  0.00    -0.257 C  
HETATM   21  C   UNL     1      -8.247   9.387  68.083  1.00  0.00    -0.118 C  
HETATM   22  O   UNL     1      -9.571   9.709  68.515  1.00  0.00    -0.143 OA 
HETATM   23  C   UNL     1      -7.500  10.656  67.688  1.00  0.00    -0.091 C  
HETATM   24  C   UNL     1      -8.432   8.390  66.945  1.00  0.00    -0.117 C  
HETATM   25  O   UNL     1      -8.306   7.032  67.398  1.00  0.00    -0.121 OA 
HETATM   26  C   UNL     1      -9.865   8.618  66.448  1.00  0.00    -0.270 C  
HETATM   27  H   UNL     1      -8.421   6.410  66.688  1.00  0.00     0.000 HD 
HETATM   28  O   UNL     1     -10.652   7.418  66.492  1.00  0.00    -0.503 OA 
HETATM   29  H   UNL     1     -10.280   6.762  65.914  1.00  0.00     0.000 HD 
ENDBRANCH  15  20
ENDBRANCH   9  11
ENDBRANCH   6   7
ENDBRANCH   5   6
ENDBRANCH   4   5
ENDBRANCH   3   4
ENDBRANCH   2   3
TORSDOF 7
ENDMDL
MODEL       46
REMARK 921   NORMALIZED FREE ENERGY PREDICTED BY IDOCK:   -5.36 KCAL/MOL
REMARK 922        TOTAL FREE ENERGY PREDICTED BY IDOCK:   -8.65 KCAL/MOL
REMARK 923 INTER-LIGAND FREE ENERGY PREDICTED BY IDOCK:   -7.74 KCAL/MOL
REMARK 924 INTRA-LIGAND FREE ENERGY PREDICTED BY IDOCK:   -0.92 KCAL/MOL
REMARK 927      BINDING AFFINITY PREDICTED BY RF-SCORE:    0.00 PKD
ROOT
HETATM    1  C   UNL     1      -9.731  20.621  67.878  1.00  0.00    -0.279 C  
HETATM    2  C   UNL     1      -9.265  19.510  68.813  1.00  0.00    -0.394 C  
ENDROOT
BRANCH   2   3
HETATM    3  C   UNL     1     -10.061  18.232  68.573  1.00  0.00    -0.419 C  
BRANCH   3   4
HETATM    4  C   UNL     1      -9.641  17.481  67.303  1.00  0.00    -0.273 C  
BRANCH   4   5
HETATM    5  C   UNL     1     -10.657  16.373  67.034  1.00  0.00    -0.260 C  
BRANCH   5   6
HETATM    6  O   UNL     1     -10.294  15.105  67.595  1.00  0.00    -0.243 OA 
BRANCH   6   7
HETATM    7  C   UNL     1     -11.177  14.655  68.522  1.00  0.00    -0.271 C  
HETATM    8  O   UNL     1     -12.154  15.285  68.893  1.00  0.00    -0.286 OA 
HETATM    9  N   UNL     1     -10.767  13.424  68.967  1.00  0.00    -0.393 N  
HETATM   10  H   UNL     1      -9.794  13.170  68.803  1.00  0.00     0.000 HD 
BRANCH   9  11
HETATM   11  C   UNL     1     -11.556  12.506  69.616  1.00  0.00    -0.253 C  
HETATM   12  N   UNL     1     -12.093  12.749  70.758  1.00  0.00    -0.491 N  
HETATM   13  C   UNL     1     -12.819  11.755  71.376  1.00  0.00    -0.335 C  
HETATM   14  H   UNL     1     -11.983  13.662  71.200  1.00  0.00     0.000 HD 
HETATM   15  N   UNL     1     -12.590  10.435  70.940  1.00  0.00    -0.355 N  
HETATM   16  O   UNL     1     -13.602  12.033  72.277  1.00  0.00    -0.397 OA 
HETATM   17  F   UNL     1     -11.291  11.133  67.625  1.00  0.00    -0.296 F  
HETATM   18  C   UNL     1     -12.191  10.230  69.624  1.00  0.00     0.046 C  
HETATM   19  C   UNL     1     -11.719  11.240  68.894  1.00  0.00    -0.341 C  
BRANCH  15  20
HETATM   20  C   UNL     1     -13.074   9.310  71.753  1.00  0.00    -0.400 C  
HETATM   21  C   UNL     1     -11.227   8.090  72.535  1.00  0.00    -0.388 C  
HETATM   22  O   UNL     1     -12.208   9.071  72.880  1.00  0.00    -0.043 OA 
HETATM   23  C   UNL     1      -9.990   8.765  71.953  1.00  0.00    -0.401 C  
HETATM   24  C   UNL     1     -11.934   7.143  71.573  1.00  0.00    -0.326 C  
HETATM   25  O   UNL     1     -12.446   5.980  72.245  1.00  0.00    -0.453 OA 
HETATM   26  C   UNL     1     -13.111   7.952  71.014  1.00  0.00     0.034 C  
HETATM   27  H   UNL     1     -12.886   5.389  71.645  1.00  0.00     0.000 HD 
HETATM   28  O   UNL     1     -14.372   7.302  71.237  1.00  0.00    -0.517 OA 
HETATM   29  H   UNL     1     -14.394   6.468  70.783  1.00  0.00     0.000 HD 
ENDBRANCH  15  20
ENDBRANCH   9  11
ENDBRANCH   6   7
ENDBRANCH   5   6
ENDBRANCH   4   5
ENDBRANCH   3   4
ENDBRANCH   2   3
TORSDOF 7
ENDMDL
MODEL       47
REMARK 921   NORMALIZED FREE ENERGY PREDICTED BY IDOCK:   -5.33 KCAL/MOL
REMARK 922        TOTAL FREE ENERGY PREDICTED BY IDOCK:   -8.61 KCAL/MOL
REMARK 923 INTER-LIGAND FREE ENERGY PREDICTED BY IDOCK:   -7.86 KCAL/MOL
REMARK 924 INTRA-LIGAND FREE ENERGY PREDICTED BY IDOCK:   -0.75 KCAL/MOL
REMARK 927      BINDING AFFINITY PREDICTED BY RF-SCORE:    0.00 PKD
ROOT
HETATM    1  C   UNL     1     -12.440   8.375  72.135  1.00  0.00    -0.422 C  
HETATM    2  C   UNL     1     -12.712   9.865  71.963  1.00  0.00    -0.456 C  
ENDROOT
BRANCH   2   3
HETATM    3  C   UNL     1     -11.863  10.443  70.836  1.00  0.00    -0.475 C  
BRANCH   3   4
HETATM    4  C   UNL     1     -10.534   9.704  70.633  1.00  0.00    -0.379 C  
BRANCH   4   5
HETATM    5  C   UNL     1      -9.917  10.165  69.314  1.00  0.00    -0.219 C  
BRANCH   5   6
HETATM    6  O   UNL     1     -10.881  10.469  68.298  1.00  0.00    -0.211 OA 
BRANCH   6   7
HETATM    7  C   UNL     1     -10.941  11.789  67.991  1.00  0.00    -0.225 C  
HETATM    8  O   UNL     1     -11.793  12.282  67.271  1.00  0.00    -0.500 OA 
HETATM    9  N   UNL     1      -9.890  12.434  68.591  1.00  0.00    -0.387 N  
HETATM   10  H   UNL     1      -9.103  11.861  68.895  1.00  0.00     0.000 HD 
BRANCH   9  11
HETATM   11  C   UNL     1      -9.806  13.787  68.816  1.00  0.00    -0.088 C  
HETATM   12  N   UNL     1     -10.747  14.443  69.396  1.00  0.00    -0.378 N  
HETATM   13  C   UNL     1     -10.618  15.808  69.530  1.00  0.00    -0.272 C  
HETATM   14  H   UNL     1     -11.573  13.963  69.751  1.00  0.00     0.000 HD 
HETATM   15  N   UNL     1      -9.694  16.447  68.680  1.00  0.00    -0.230 N  
HETATM   16  O   UNL     1     -11.307  16.414  70.342  1.00  0.00    -0.349 OA 
HETATM   17  F   UNL     1      -7.552  13.620  67.917  1.00  0.00    -0.103 F  
HETATM   18  C   UNL     1      -8.590  15.728  68.239  1.00  0.00    -0.170 C  
HETATM   19  C   UNL     1      -8.564  14.399  68.334  1.00  0.00    -0.174 C  
BRANCH  15  20
HETATM   20  C   UNL     1      -9.733  17.910  68.537  1.00  0.00    -0.351 C  
HETATM   21  C   UNL     1     -10.372  18.441  66.341  1.00  0.00    -0.405 C  
HETATM   22  O   UNL     1     -10.825  18.322  67.691  1.00  0.00    -0.396 OA 
HETATM   23  C   UNL     1     -10.540  17.113  65.611  1.00  0.00    -0.187 C  
HETATM   24  C   UNL     1      -8.928  18.917  66.448  1.00  0.00    -0.310 C  
HETATM   25  O   UNL     1      -8.823  20.344  66.308  1.00  0.00    -0.559 OA 
HETATM   26  C   UNL     1      -8.484  18.523  67.862  1.00  0.00    -0.275 C  
HETATM   27  H   UNL     1      -7.923  20.641  66.374  1.00  0.00     0.000 HD 
HETATM   28  O   UNL     1      -8.018  19.650  68.619  1.00  0.00    -0.343 OA 
HETATM   29  H   UNL     1      -7.251  20.027  68.205  1.00  0.00     0.000 HD 
ENDBRANCH  15  20
ENDBRANCH   9  11
ENDBRANCH   6   7
ENDBRANCH   5   6
ENDBRANCH   4   5
ENDBRANCH   3   4
ENDBRANCH   2   3
TORSDOF 7
ENDMDL
MODEL       48
REMARK 921   NORMALIZED FREE ENERGY PREDICTED BY IDOCK:   -5.33 KCAL/MOL
REMARK 922        TOTAL FREE ENERGY PREDICTED BY IDOCK:   -8.61 KCAL/MOL
REMARK 923 INTER-LIGAND FREE ENERGY PREDICTED BY IDOCK:   -8.82 KCAL/MOL
REMARK 924 INTRA-LIGAND FREE ENERGY PREDICTED BY IDOCK:    0.21 KCAL/MOL
REMARK 927      BINDING AFFINITY PREDICTED BY RF-SCORE:    0.00 PKD
ROOT
HETATM    1  C   UNL     1     -11.463   8.680  72.140  1.00  0.00    -0.443 C  
HETATM    2  C   UNL     1     -12.912   9.152  72.109  1.00  0.00    -0.498 C  
ENDROOT
BRANCH   2   3
HETATM    3  C   UNL     1     -13.012  10.551  71.509  1.00  0.00    -0.565 C  
BRANCH   3   4
HETATM    4  C   UNL     1     -11.893  10.868  70.509  1.00  0.00    -0.457 C  
BRANCH   4   5
HETATM    5  C   UNL     1     -12.200  12.207  69.843  1.00  0.00    -0.170 C  
BRANCH   5   6
HETATM    6  O   UNL     1     -12.756  13.183  70.733  1.00  0.00    -0.273 OA 
BRANCH   6   7
HETATM    7  C   UNL     1     -12.524  14.462  70.341  1.00  0.00    -0.357 C  
HETATM    8  O   UNL     1     -12.980  15.440  70.910  1.00  0.00    -0.437 OA 
HETATM    9  N   UNL     1     -11.738  14.449  69.217  1.00  0.00    -0.297 N  
HETATM   10  H   UNL     1     -11.695  13.577  68.690  1.00  0.00     0.000 HD 
BRANCH   9  11
HETATM   11  C   UNL     1     -11.005  15.509  68.742  1.00  0.00    -0.270 C  
HETATM   12  N   UNL     1     -11.018  16.661  69.313  1.00  0.00    -0.297 N  
HETATM   13  C   UNL     1     -10.308  17.692  68.742  1.00  0.00    -0.348 C  
HETATM   14  H   UNL     1     -11.545  16.808  70.173  1.00  0.00     0.000 HD 
HETATM   15  N   UNL     1      -9.961  17.551  67.383  1.00  0.00    -0.304 N  
HETATM   16  O   UNL     1     -10.026  18.686  69.402  1.00  0.00    -0.194 OA 
HETATM   17  F   UNL     1     -10.111  13.936  67.116  1.00  0.00    -0.240 F  
HETATM   18  C   UNL     1      -9.776  16.271  66.875  1.00  0.00    -0.238 C  
HETATM   19  C   UNL     1     -10.225  15.206  67.538  1.00  0.00    -0.238 C  
BRANCH  15  20
HETATM   20  C   UNL     1      -9.497  18.724  66.629  1.00  0.00    -0.330 C  
HETATM   21  C   UNL     1      -7.174  18.930  66.899  1.00  0.00    -0.214 C  
HETATM   22  O   UNL     1      -8.211  18.480  66.024  1.00  0.00    -0.466 OA 
HETATM   23  C   UNL     1      -6.750  17.803  67.835  1.00  0.00    -0.192 C  
HETATM   24  C   UNL     1      -7.753  20.148  67.608  1.00  0.00    -0.296 C  
HETATM   25  O   UNL     1      -7.358  21.375  66.973  1.00  0.00    -0.810 OA 
HETATM   26  C   UNL     1      -9.274  19.992  67.486  1.00  0.00    -0.364 C  
HETATM   27  H   UNL     1      -7.718  22.135  67.416  1.00  0.00     0.000 HD 
HETATM   28  O   UNL     1      -9.887  21.128  66.856  1.00  0.00    -0.523 OA 
HETATM   29  H   UNL     1      -9.750  21.907  67.382  1.00  0.00     0.000 HD 
ENDBRANCH  15  20
ENDBRANCH   9  11
ENDBRANCH   6   7
ENDBRANCH   5   6
ENDBRANCH   4   5
ENDBRANCH   3   4
ENDBRANCH   2   3
TORSDOF 7
ENDMDL
MODEL       49
REMARK 921   NORMALIZED FREE ENERGY PREDICTED BY IDOCK:   -5.31 KCAL/MOL
REMARK 922        TOTAL FREE ENERGY PREDICTED BY IDOCK:   -8.59 KCAL/MOL
REMARK 923 INTER-LIGAND FREE ENERGY PREDICTED BY IDOCK:   -7.59 KCAL/MOL
REMARK 924 INTRA-LIGAND FREE ENERGY PREDICTED BY IDOCK:   -1.00 KCAL/MOL
REMARK 927      BINDING AFFINITY PREDICTED BY RF-SCORE:    0.00 PKD
ROOT
HETATM    1  C   UNL     1     -12.991  11.969  71.565  1.00  0.00    -0.407 C  
HETATM    2  C   UNL     1     -13.998  12.726  72.423  1.00  0.00    -0.236 C  
ENDROOT
BRANCH   2   3
HETATM    3  C   UNL     1     -13.927  14.223  72.147  1.00  0.00    -0.618 C  
BRANCH   3   4
HETATM    4  C   UNL     1     -12.837  14.942  72.951  1.00  0.00    -0.548 C  
BRANCH   4   5
HETATM    5  C   UNL     1     -12.168  15.977  72.049  1.00  0.00    -0.506 C  
BRANCH   5   6
HETATM    6  O   UNL     1     -11.047  15.468  71.315  1.00  0.00    -0.355 OA 
BRANCH   6   7
HETATM    7  C   UNL     1     -11.334  15.191  70.018  1.00  0.00    -0.277 C  
HETATM    8  O   UNL     1     -11.878  15.976  69.259  1.00  0.00    -0.345 OA 
HETATM    9  N   UNL     1     -10.941  13.907  69.738  1.00  0.00    -0.462 N  
HETATM   10  H   UNL     1     -10.792  13.282  70.531  1.00  0.00     0.000 HD 
BRANCH   9  11
HETATM   11  C   UNL     1     -10.732  13.390  68.483  1.00  0.00    -0.262 C  
HETATM   12  N   UNL     1     -11.698  12.982  67.740  1.00  0.00    -0.346 N  
HETATM   13  C   UNL     1     -11.405  12.418  66.519  1.00  0.00    -0.340 C  
HETATM   14  H   UNL     1     -12.666  13.075  68.050  1.00  0.00     0.000 HD 
HETATM   15  N   UNL     1     -10.089  11.946  66.335  1.00  0.00    -0.209 N  
HETATM   16  O   UNL     1     -12.273  12.321  65.660  1.00  0.00    -0.605 OA 
HETATM   17  F   UNL     1      -8.393  13.965  68.828  1.00  0.00    -0.153 F  
HETATM   18  C   UNL     1      -9.059  12.565  67.034  1.00  0.00    -0.213 C  
HETATM   19  C   UNL     1      -9.322  13.344  68.082  1.00  0.00    -0.217 C  
BRANCH  15  20
HETATM   20  C   UNL     1      -9.791  11.056  65.204  1.00  0.00    -0.268 C  
HETATM   21  C   UNL     1      -9.492   8.873  66.015  1.00  0.00    -0.252 C  
HETATM   22  O   UNL     1     -10.409   9.766  65.379  1.00  0.00    -0.154 OA 
HETATM   23  C   UNL     1      -9.644   8.954  67.530  1.00  0.00    -0.183 C  
HETATM   24  C   UNL     1      -8.117   9.285  65.502  1.00  0.00    -0.113 C  
HETATM   25  O   UNL     1      -7.694   8.473  64.393  1.00  0.00    -0.113 OA 
HETATM   26  C   UNL     1      -8.290  10.731  65.022  1.00  0.00    -0.046 C  
HETATM   27  H   UNL     1      -6.837   8.729  64.073  1.00  0.00     0.000 HD 
HETATM   28  O   UNL     1      -7.913  10.895  63.646  1.00  0.00    -0.360 OA 
HETATM   29  H   UNL     1      -6.991  10.695  63.533  1.00  0.00     0.000 HD 
ENDBRANCH  15  20
ENDBRANCH   9  11
ENDBRANCH   6   7
ENDBRANCH   5   6
ENDBRANCH   4   5
ENDBRANCH   3   4
ENDBRANCH   2   3
TORSDOF 7
ENDMDL
MODEL       50
REMARK 921   NORMALIZED FREE ENERGY PREDICTED BY IDOCK:   -5.31 KCAL/MOL
REMARK 922        TOTAL FREE ENERGY PREDICTED BY IDOCK:   -8.58 KCAL/MOL
REMARK 923 INTER-LIGAND FREE ENERGY PREDICTED BY IDOCK:   -7.57 KCAL/MOL
REMARK 924 INTRA-LIGAND FREE ENERGY PREDICTED BY IDOCK:   -1.02 KCAL/MOL
REMARK 927      BINDING AFFINITY PREDICTED BY RF-SCORE:    0.00 PKD
ROOT
HETATM    1  C   UNL     1     -12.018  14.444  64.899  1.00  0.00    -0.430 C  
HETATM    2  C   UNL     1     -11.850  14.124  66.380  1.00  0.00    -0.440 C  
ENDROOT
BRANCH   2   3
HETATM    3  C   UNL     1     -11.012  15.193  67.072  1.00  0.00    -0.322 C  
BRANCH   3   4
HETATM    4  C   UNL     1     -11.470  15.497  68.504  1.00  0.00    -0.369 C  
BRANCH   4   5
HETATM    5  C   UNL     1     -12.146  14.251  69.074  1.00  0.00    -0.285 C  
BRANCH   5   6
HETATM    6  O   UNL     1     -12.551  14.387  70.442  1.00  0.00    -0.337 OA 
BRANCH   6   7
HETATM    7  C   UNL     1     -12.722  13.198  71.072  1.00  0.00    -0.277 C  
HETATM    8  O   UNL     1     -13.524  13.015  71.973  1.00  0.00    -0.481 OA 
HETATM    9  N   UNL     1     -11.841  12.285  70.550  1.00  0.00    -0.517 N  
HETATM   10  H   UNL     1     -11.040  12.652  70.036  1.00  0.00     0.000 HD 
BRANCH   9  11
HETATM   11  C   UNL     1     -11.945  10.920  70.661  1.00  0.00    -0.368 C  
HETATM   12  N   UNL     1     -12.770  10.360  71.472  1.00  0.00    -0.422 N  
HETATM   13  C   UNL     1     -12.772   8.986  71.574  1.00  0.00    -0.339 C  
HETATM   14  H   UNL     1     -13.412  10.922  72.031  1.00  0.00     0.000 HD 
HETATM   15  N   UNL     1     -11.622   8.312  71.116  1.00  0.00    -0.276 N  
HETATM   16  O   UNL     1     -13.732   8.407  72.066  1.00  0.00    -0.362 OA 
HETATM   17  F   UNL     1     -10.346  10.825  68.831  1.00  0.00    -0.168 F  
HETATM   18  C   UNL     1     -10.876   8.891  70.095  1.00  0.00    -0.231 C  
HETATM   19  C   UNL     1     -11.035  10.177  69.784  1.00  0.00    -0.280 C  
BRANCH  15  20
HETATM   20  C   UNL     1     -11.415   6.904  71.480  1.00  0.00    -0.277 C  
HETATM   21  C   UNL     1      -9.714   6.779  73.093  1.00  0.00    -0.168 C  
HETATM   22  O   UNL     1     -11.128   6.766  72.886  1.00  0.00    -0.264 OA 
HETATM   23  C   UNL     1      -9.228   8.207  73.315  1.00  0.00    -0.316 C  
HETATM   24  C   UNL     1      -9.126   6.103  71.860  1.00  0.00    -0.140 C  
HETATM   25  O   UNL     1      -8.859   4.709  72.090  1.00  0.00    -0.120 OA 
HETATM   26  C   UNL     1     -10.211   6.230  70.783  1.00  0.00    -0.193 C  
HETATM   27  H   UNL     1      -8.491   4.288  71.321  1.00  0.00     0.000 HD 
HETATM   28  O   UNL     1     -10.599   4.954  70.250  1.00  0.00    -0.184 OA 
HETATM   29  H   UNL     1      -9.858   4.540  69.822  1.00  0.00     0.000 HD 
ENDBRANCH  15  20
ENDBRANCH   9  11
ENDBRANCH   6   7
ENDBRANCH   5   6
ENDBRANCH   4   5
ENDBRANCH   3   4
ENDBRANCH   2   3
TORSDOF 7
ENDMDL
MODEL       51
REMARK 921   NORMALIZED FREE ENERGY PREDICTED BY IDOCK:   -5.27 KCAL/MOL
REMARK 922        TOTAL FREE ENERGY PREDICTED BY IDOCK:   -8.53 KCAL/MOL
REMARK 923 INTER-LIGAND FREE ENERGY PREDICTED BY IDOCK:   -7.52 KCAL/MOL
REMARK 924 INTRA-LIGAND FREE ENERGY PREDICTED BY IDOCK:   -1.01 KCAL/MOL
REMARK 927      BINDING AFFINITY PREDICTED BY RF-SCORE:    0.00 PKD
ROOT
HETATM    1  C   UNL     1      -5.735  20.609  64.508  1.00  0.00    -0.276 C  
HETATM    2  C   UNL     1      -6.552  19.759  65.475  1.00  0.00    -0.299 C  
ENDROOT
BRANCH   2   3
HETATM    3  C   UNL     1      -6.460  20.314  66.892  1.00  0.00    -0.254 C  
BRANCH   3   4
HETATM    4  C   UNL     1      -7.825  20.632  67.514  1.00  0.00    -0.298 C  
BRANCH   4   5
HETATM    5  C   UNL     1      -8.184  19.520  68.498  1.00  0.00    -0.338 C  
BRANCH   5   6
HETATM    6  O   UNL     1      -9.574  19.478  68.843  1.00  0.00    -0.397 OA 
BRANCH   6   7
HETATM    7  C   UNL     1     -10.265  18.518  68.177  1.00  0.00    -0.378 C  
HETATM    8  O   UNL     1     -11.017  18.744  67.244  1.00  0.00    -0.412 OA 
HETATM    9  N   UNL     1      -9.993  17.299  68.744  1.00  0.00    -0.310 N  
HETATM   10  H   UNL     1      -9.602  17.300  69.686  1.00  0.00     0.000 HD 
BRANCH   9  11
HETATM   11  C   UNL     1     -10.201  16.077  68.151  1.00  0.00    -0.243 C  
HETATM   12  N   UNL     1     -11.275  15.808  67.497  1.00  0.00    -0.271 N  
HETATM   13  C   UNL     1     -11.440  14.540  66.986  1.00  0.00    -0.370 C  
HETATM   14  H   UNL     1     -11.992  16.520  67.360  1.00  0.00     0.000 HD 
HETATM   15  N   UNL     1     -10.647  13.519  67.546  1.00  0.00    -0.243 N  
HETATM   16  O   UNL     1     -12.263  14.335  66.101  1.00  0.00    -0.431 OA 
HETATM   17  F   UNL     1      -7.938  15.541  68.864  1.00  0.00    -0.136 F  
HETATM   18  C   UNL     1      -9.404  13.855  68.069  1.00  0.00    -0.204 C  
HETATM   19  C   UNL     1      -9.102  15.125  68.339  1.00  0.00    -0.185 C  
BRANCH  15  20
HETATM   20  C   UNL     1     -10.988  12.113  67.287  1.00  0.00    -0.260 C  
HETATM   21  C   UNL     1     -11.937  11.192  69.227  1.00  0.00    -0.351 C  
HETATM   22  O   UNL     1     -12.220  11.747  67.940  1.00  0.00    -0.538 OA 
HETATM   23  C   UNL     1     -11.914  12.294  70.280  1.00  0.00    -0.373 C  
HETATM   24  C   UNL     1     -10.613  10.457  69.061  1.00  0.00    -0.221 C  
HETATM   25  O   UNL     1     -10.806   9.054  68.815  1.00  0.00    -0.394 OA 
HETATM   26  C   UNL     1      -9.959  11.092  67.827  1.00  0.00    -0.175 C  
HETATM   27  H   UNL     1      -9.980   8.595  68.712  1.00  0.00     0.000 HD 
HETATM   28  O   UNL     1      -9.651  10.121  66.815  1.00  0.00    -0.166 OA 
HETATM   29  H   UNL     1      -9.019   9.493  67.147  1.00  0.00     0.000 HD 
ENDBRANCH  15  20
ENDBRANCH   9  11
ENDBRANCH   6   7
ENDBRANCH   5   6
ENDBRANCH   4   5
ENDBRANCH   3   4
ENDBRANCH   2   3
TORSDOF 7
ENDMDL
MODEL       52
REMARK 921   NORMALIZED FREE ENERGY PREDICTED BY IDOCK:   -5.23 KCAL/MOL
REMARK 922        TOTAL FREE ENERGY PREDICTED BY IDOCK:   -8.48 KCAL/MOL
REMARK 923 INTER-LIGAND FREE ENERGY PREDICTED BY IDOCK:   -7.49 KCAL/MOL
REMARK 924 INTRA-LIGAND FREE ENERGY PREDICTED BY IDOCK:   -0.99 KCAL/MOL
REMARK 927      BINDING AFFINITY PREDICTED BY RF-SCORE:    0.00 PKD
ROOT
HETATM    1  C   UNL     1     -10.307  19.810  67.331  1.00  0.00    -0.582 C  
HETATM    2  C   UNL     1     -10.332  18.519  66.521  1.00  0.00    -0.447 C  
ENDROOT
BRANCH   2   3
HETATM    3  C   UNL     1      -9.078  17.691  66.785  1.00  0.00    -0.273 C  
BRANCH   3   4
HETATM    4  C   UNL     1      -9.087  16.329  66.082  1.00  0.00    -0.377 C  
BRANCH   4   5
HETATM    5  C   UNL     1     -10.495  16.061  65.554  1.00  0.00    -0.405 C  
BRANCH   5   6
HETATM    6  O   UNL     1     -10.814  14.669  65.433  1.00  0.00    -0.314 OA 
BRANCH   6   7
HETATM    7  C   UNL     1     -11.413  14.157  66.538  1.00  0.00    -0.358 C  
HETATM    8  O   UNL     1     -12.464  14.572  66.996  1.00  0.00    -0.198 OA 
HETATM    9  N   UNL     1     -10.632  13.147  67.040  1.00  0.00    -0.257 N  
HETATM   10  H   UNL     1      -9.657  13.121  66.744  1.00  0.00     0.000 HD 
BRANCH   9  11
HETATM   11  C   UNL     1     -11.052  12.168  67.907  1.00  0.00    -0.245 C  
HETATM   12  N   UNL     1     -11.488  12.439  69.086  1.00  0.00    -0.284 N  
HETATM   13  C   UNL     1     -11.831  11.399  69.921  1.00  0.00    -0.359 C  
HETATM   14  H   UNL     1     -11.579  13.406  69.397  1.00  0.00     0.000 HD 
HETATM   15  N   UNL     1     -11.305  10.130  69.608  1.00  0.00    -0.248 N  
HETATM   16  O   UNL     1     -12.542  11.603  70.898  1.00  0.00    -0.358 OA 
HETATM   17  F   UNL     1     -10.670  10.621  66.069  1.00  0.00    -0.291 F  
HETATM   18  C   UNL     1     -11.032   9.835  68.277  1.00  0.00    -0.164 C  
HETATM   19  C   UNL     1     -10.950  10.808  67.370  1.00  0.00    -0.300 C  
BRANCH  15  20
HETATM   20  C   UNL     1     -11.357   9.057  70.611  1.00  0.00    -0.265 C  
HETATM   21  C   UNL     1      -9.174   8.596  71.341  1.00  0.00    -0.235 C  
HETATM   22  O   UNL     1     -10.391   9.276  71.658  1.00  0.00    -0.340 OA 
HETATM   23  C   UNL     1      -8.253   9.511  70.544  1.00  0.00    -0.203 C  
HETATM   24  C   UNL     1      -9.604   7.338  70.597  1.00  0.00    -0.172 C  
HETATM   25  O   UNL     1      -9.679   6.198  71.469  1.00  0.00    -0.162 OA 
HETATM   26  C   UNL     1     -11.009   7.652  70.067  1.00  0.00    -0.228 C  
HETATM   27  H   UNL     1      -9.947   5.413  71.005  1.00  0.00     0.000 HD 
HETATM   28  O   UNL     1     -11.983   6.695  70.511  1.00  0.00    -0.422 OA 
HETATM   29  H   UNL     1     -11.769   5.832  70.177  1.00  0.00     0.000 HD 
ENDBRANCH  15  20
ENDBRANCH   9  11
ENDBRANCH   6   7
ENDBRANCH   5   6
ENDBRANCH   4   5
ENDBRANCH   3   4
ENDBRANCH   2   3
TORSDOF 7
ENDMDL
MODEL       53
REMARK 921   NORMALIZED FREE ENERGY PREDICTED BY IDOCK:   -5.22 KCAL/MOL
REMARK 922        TOTAL FREE ENERGY PREDICTED BY IDOCK:   -8.46 KCAL/MOL
REMARK 923 INTER-LIGAND FREE ENERGY PREDICTED BY IDOCK:   -7.66 KCAL/MOL
REMARK 924 INTRA-LIGAND FREE ENERGY PREDICTED BY IDOCK:   -0.80 KCAL/MOL
REMARK 927      BINDING AFFINITY PREDICTED BY RF-SCORE:    0.00 PKD
ROOT
HETATM    1  C   UNL     1     -10.760   7.469  69.739  1.00  0.00    -0.249 C  
HETATM    2  C   UNL     1      -9.864   8.629  70.158  1.00  0.00    -0.191 C  
ENDROOT
BRANCH   2   3
HETATM    3  C   UNL     1      -9.772   9.669  69.046  1.00  0.00    -0.169 C  
BRANCH   3   4
HETATM    4  C   UNL     1     -10.543   9.279  67.780  1.00  0.00    -0.307 C  
BRANCH   4   5
HETATM    5  C   UNL     1     -10.604  10.492  66.853  1.00  0.00    -0.243 C  
BRANCH   5   6
HETATM    6  O   UNL     1     -11.822  11.241  66.959  1.00  0.00    -0.484 OA 
BRANCH   6   7
HETATM    7  C   UNL     1     -11.621  12.570  67.147  1.00  0.00    -0.368 C  
HETATM    8  O   UNL     1     -11.912  13.163  68.172  1.00  0.00    -0.344 OA 
HETATM    9  N   UNL     1     -11.080  13.105  66.006  1.00  0.00    -0.278 N  
HETATM   10  H   UNL     1     -11.181  12.566  65.146  1.00  0.00     0.000 HD 
BRANCH   9  11
HETATM   11  C   UNL     1     -10.416  14.304  65.922  1.00  0.00    -0.307 C  
HETATM   12  N   UNL     1      -9.266  14.488  66.467  1.00  0.00    -0.349 N  
HETATM   13  C   UNL     1      -8.690  15.737  66.396  1.00  0.00    -0.337 C  
HETATM   14  H   UNL     1      -8.789  13.724  66.945  1.00  0.00     0.000 HD 
HETATM   15  N   UNL     1      -9.547  16.818  66.108  1.00  0.00    -0.285 N  
HETATM   16  O   UNL     1      -7.490  15.875  66.601  1.00  0.00    -0.197 OA 
HETATM   17  F   UNL     1     -12.234  15.012  64.470  1.00  0.00    -0.433 F  
HETATM   18  C   UNL     1     -10.685  16.579  65.346  1.00  0.00    -0.259 C  
HETATM   19  C   UNL     1     -11.135  15.337  65.170  1.00  0.00    -0.404 C  
BRANCH  15  20
HETATM   20  C   UNL     1      -9.078  18.193  66.331  1.00  0.00    -0.241 C  
HETATM   21  C   UNL     1      -9.606  18.828  68.529  1.00  0.00    -0.369 C  
HETATM   22  O   UNL     1      -8.566  18.359  67.668  1.00  0.00    -0.255 OA 
HETATM   23  C   UNL     1     -10.347  17.650  69.149  1.00  0.00    -0.202 C  
HETATM   24  C   UNL     1     -10.475  19.722  67.651  1.00  0.00    -0.424 C  
HETATM   25  O   UNL     1     -10.126  21.109  67.788  1.00  0.00    -0.035 OA 
HETATM   26  C   UNL     1     -10.178  19.274  66.214  1.00  0.00    -0.464 C  
HETATM   27  H   UNL     1     -10.668  21.666  67.241  1.00  0.00     0.000 HD 
HETATM   28  O   UNL     1      -9.719  20.358  65.392  1.00  0.00    -0.459 OA 
HETATM   29  H   UNL     1     -10.395  21.023  65.320  1.00  0.00     0.000 HD 
ENDBRANCH  15  20
ENDBRANCH   9  11
ENDBRANCH   6   7
ENDBRANCH   5   6
ENDBRANCH   4   5
ENDBRANCH   3   4
ENDBRANCH   2   3
TORSDOF 7
ENDMDL
MODEL       54
REMARK 921   NORMALIZED FREE ENERGY PREDICTED BY IDOCK:   -5.19 KCAL/MOL
REMARK 922        TOTAL FREE ENERGY PREDICTED BY IDOCK:   -8.41 KCAL/MOL
REMARK 923 INTER-LIGAND FREE ENERGY PREDICTED BY IDOCK:   -8.64 KCAL/MOL
REMARK 924 INTRA-LIGAND FREE ENERGY PREDICTED BY IDOCK:    0.22 KCAL/MOL
REMARK 927      BINDING AFFINITY PREDICTED BY RF-SCORE:    0.00 PKD
ROOT
HETATM    1  C   UNL     1     -14.284   8.627  72.007  1.00  0.00    -0.524 C  
HETATM    2  C   UNL     1     -12.868   9.189  72.072  1.00  0.00    -0.483 C  
ENDROOT
BRANCH   2   3
HETATM    3  C   UNL     1     -12.655  10.241  70.989  1.00  0.00    -0.487 C  
BRANCH   3   4
HETATM    4  C   UNL     1     -11.217  10.288  70.459  1.00  0.00    -0.408 C  
BRANCH   4   5
HETATM    5  C   UNL     1     -11.262  10.502  68.947  1.00  0.00    -0.266 C  
BRANCH   5   6
HETATM    6  O   UNL     1     -12.259  11.440  68.524  1.00  0.00    -0.557 OA 
BRANCH   6   7
HETATM    7  C   UNL     1     -11.763  12.445  67.760  1.00  0.00    -0.350 C  
HETATM    8  O   UNL     1     -12.146  12.693  66.629  1.00  0.00    -0.519 OA 
HETATM    9  N   UNL     1     -10.770  13.086  68.456  1.00  0.00    -0.250 N  
HETATM   10  H   UNL     1     -10.356  12.587  69.243  1.00  0.00     0.000 HD 
BRANCH   9  11
HETATM   11  C   UNL     1     -10.286  14.343  68.185  1.00  0.00    -0.231 C  
HETATM   12  N   UNL     1      -9.731  14.635  67.063  1.00  0.00    -0.237 N  
HETATM   13  C   UNL     1      -9.213  15.899  66.888  1.00  0.00    -0.226 C  
HETATM   14  H   UNL     1      -9.675  13.944  66.315  1.00  0.00     0.000 HD 
HETATM   15  N   UNL     1      -8.949  16.646  68.053  1.00  0.00    -0.207 N  
HETATM   16  O   UNL     1      -8.981  16.319  65.760  1.00  0.00    -0.425 OA 
HETATM   17  F   UNL     1     -11.215  14.976  70.343  1.00  0.00    -0.257 F  
HETATM   18  C   UNL     1      -9.721  16.408  69.184  1.00  0.00    -0.260 C  
HETATM   19  C   UNL     1     -10.456  15.300  69.283  1.00  0.00    -0.258 C  
BRANCH  15  20
HETATM   20  C   UNL     1      -8.110  17.850  67.967  1.00  0.00    -0.252 C  
HETATM   21  C   UNL     1      -9.468  19.681  67.408  1.00  0.00    -0.329 C  
HETATM   22  O   UNL     1      -8.804  19.006  68.478  1.00  0.00    -0.339 OA 
HETATM   23  C   UNL     1     -10.879  19.132  67.235  1.00  0.00    -0.529 C  
HETATM   24  C   UNL     1      -8.567  19.486  66.194  1.00  0.00    -0.308 C  
HETATM   25  O   UNL     1      -7.699  20.612  65.985  1.00  0.00    -0.508 OA 
HETATM   26  C   UNL     1      -7.715  18.255  66.528  1.00  0.00    -0.251 C  
HETATM   27  H   UNL     1      -7.137  20.490  65.228  1.00  0.00     0.000 HD 
HETATM   28  O   UNL     1      -6.308  18.536  66.462  1.00  0.00    -0.174 OA 
HETATM   29  H   UNL     1      -6.065  18.785  65.578  1.00  0.00     0.000 HD 
ENDBRANCH  15  20
ENDBRANCH   9  11
ENDBRANCH   6   7
ENDBRANCH   5   6
ENDBRANCH   4   5
ENDBRANCH   3   4
ENDBRANCH   2   3
TORSDOF 7
ENDMDL
MODEL       55
REMARK 921   NORMALIZED FREE ENERGY PREDICTED BY IDOCK:   -5.18 KCAL/MOL
REMARK 922        TOTAL FREE ENERGY PREDICTED BY IDOCK:   -8.40 KCAL/MOL
REMARK 923 INTER-LIGAND FREE ENERGY PREDICTED BY IDOCK:   -7.25 KCAL/MOL
REMARK 924 INTRA-LIGAND FREE ENERGY PREDICTED BY IDOCK:   -1.16 KCAL/MOL
REMARK 927      BINDING AFFINITY PREDICTED BY RF-SCORE:    0.00 PKD
ROOT
HETATM    1  C   UNL     1      -6.226  10.366  70.331  1.00  0.00    -0.126 C  
HETATM    2  C   UNL     1      -6.021   9.246  71.344  1.00  0.00    -0.075 C  
ENDROOT
BRANCH   2   3
HETATM    3  C   UNL     1      -6.843   8.019  70.967  1.00  0.00    -0.042 C  
BRANCH   3   4
HETATM    4  C   UNL     1      -7.032   7.851  69.455  1.00  0.00    -0.059 C  
BRANCH   4   5
HETATM    5  C   UNL     1      -8.510   8.042  69.123  1.00  0.00    -0.136 C  
BRANCH   5   6
HETATM    6  O   UNL     1      -9.319   8.381  70.257  1.00  0.00    -0.160 OA 
BRANCH   6   7
HETATM    7  C   UNL     1     -10.073   9.493  70.067  1.00  0.00    -0.242 C  
HETATM    8  O   UNL     1     -11.035   9.788  70.756  1.00  0.00    -0.291 OA 
HETATM    9  N   UNL     1      -9.590  10.179  68.982  1.00  0.00    -0.186 N  
HETATM   10  H   UNL     1      -8.994   9.666  68.334  1.00  0.00     0.000 HD 
BRANCH   9  11
HETATM   11  C   UNL     1      -9.841  11.499  68.695  1.00  0.00    -0.177 C  
HETATM   12  N   UNL     1     -10.754  12.170  69.302  1.00  0.00    -0.437 N  
HETATM   13  C   UNL     1     -10.990  13.471  68.915  1.00  0.00    -0.252 C  
HETATM   14  H   UNL     1     -11.294  11.748  70.056  1.00  0.00     0.000 HD 
HETATM   15  N   UNL     1     -10.528  13.849  67.639  1.00  0.00    -0.244 N  
HETATM   16  O   UNL     1     -11.597  14.233  69.657  1.00  0.00    -0.266 OA 
HETATM   17  F   UNL     1      -7.930  11.355  67.196  1.00  0.00    -0.127 F  
HETATM   18  C   UNL     1      -9.410  13.206  67.120  1.00  0.00    -0.235 C  
HETATM   19  C   UNL     1      -8.985  12.057  67.643  1.00  0.00    -0.172 C  
BRANCH  15  20
HETATM   20  C   UNL     1     -11.015  15.096  67.033  1.00  0.00    -0.322 C  
HETATM   21  C   UNL     1     -12.386  14.566  65.202  1.00  0.00    -0.323 C  
HETATM   22  O   UNL     1     -12.375  14.958  66.577  1.00  0.00    -0.048 OA 
HETATM   23  C   UNL     1     -12.380  13.046  65.089  1.00  0.00    -0.536 C  
HETATM   24  C   UNL     1     -11.167  15.244  64.587  1.00  0.00    -0.356 C  
HETATM   25  O   UNL     1     -11.512  16.481  63.941  1.00  0.00    -1.608 OA 
HETATM   26  C   UNL     1     -10.240  15.543  65.771  1.00  0.00    -0.366 C  
HETATM   27  H   UNL     1     -10.753  16.903  63.557  1.00  0.00     0.000 HD 
HETATM   28  O   UNL     1      -9.910  16.938  65.863  1.00  0.00    -0.462 OA 
HETATM   29  H   UNL     1      -9.434  17.213  65.088  1.00  0.00     0.000 HD 
ENDBRANCH  15  20
ENDBRANCH   9  11
ENDBRANCH   6   7
ENDBRANCH   5   6
ENDBRANCH   4   5
ENDBRANCH   3   4
ENDBRANCH   2   3
TORSDOF 7
ENDMDL
MODEL       56
REMARK 921   NORMALIZED FREE ENERGY PREDICTED BY IDOCK:   -5.18 KCAL/MOL
REMARK 922        TOTAL FREE ENERGY PREDICTED BY IDOCK:   -8.40 KCAL/MOL
REMARK 923 INTER-LIGAND FREE ENERGY PREDICTED BY IDOCK:   -7.36 KCAL/MOL
REMARK 924 INTRA-LIGAND FREE ENERGY PREDICTED BY IDOCK:   -1.05 KCAL/MOL
REMARK 927      BINDING AFFINITY PREDICTED BY RF-SCORE:    0.00 PKD
ROOT
HETATM    1  C   UNL     1      -8.974   7.208  68.252  1.00  0.00    -0.125 C  
HETATM    2  C   UNL     1      -9.667   7.169  66.895  1.00  0.00    -0.242 C  
ENDROOT
BRANCH   2   3
HETATM    3  C   UNL     1      -8.719   6.650  65.819  1.00  0.00    -0.126 C  
BRANCH   3   4
HETATM    4  C   UNL     1      -7.991   7.764  65.057  1.00  0.00    -0.134 C  
BRANCH   4   5
HETATM    5  C   UNL     1      -8.896   8.993  65.009  1.00  0.00    -0.170 C  
BRANCH   5   6
HETATM    6  O   UNL     1      -8.645   9.855  63.891  1.00  0.00    -0.162 OA 
BRANCH   6   7
HETATM    7  C   UNL     1      -9.282  11.050  63.979  1.00  0.00    -0.162 C  
HETATM    8  O   UNL     1      -9.809  11.610  63.033  1.00  0.00    -0.393 OA 
HETATM    9  N   UNL     1      -9.201  11.505  65.271  1.00  0.00    -0.384 N  
HETATM   10  H   UNL     1      -8.481  11.093  65.865  1.00  0.00     0.000 HD 
BRANCH   9  11
HETATM   11  C   UNL     1     -10.005  12.467  65.831  1.00  0.00    -0.255 C  
HETATM   12  N   UNL     1      -9.987  13.690  65.435  1.00  0.00    -0.499 N  
HETATM   13  C   UNL     1     -10.776  14.610  66.089  1.00  0.00    -0.314 C  
HETATM   14  H   UNL     1      -9.400  13.973  64.652  1.00  0.00     0.000 HD 
HETATM   15  N   UNL     1     -11.223  14.263  67.379  1.00  0.00    -0.303 N  
HETATM   16  O   UNL     1     -11.040  15.682  65.558  1.00  0.00    -0.303 OA 
HETATM   17  F   UNL     1     -10.969  10.652  67.134  1.00  0.00    -0.304 F  
HETATM   18  C   UNL     1     -11.404  12.918  67.681  1.00  0.00    -0.303 C  
HETATM   19  C   UNL     1     -10.866  11.973  66.911  1.00  0.00    -0.259 C  
BRANCH  15  20
HETATM   20  C   UNL     1     -11.786  15.302  68.254  1.00  0.00    -0.301 C  
HETATM   21  C   UNL     1     -10.058  16.218  69.553  1.00  0.00    -0.221 C  
HETATM   22  O   UNL     1     -10.876  16.412  68.397  1.00  0.00    -0.310 OA 
HETATM   23  C   UNL     1      -8.791  15.458  69.178  1.00  0.00    -0.249 C  
HETATM   24  C   UNL     1     -10.949  15.494  70.555  1.00  0.00    -0.344 C  
HETATM   25  O   UNL     1     -11.555  16.404  71.488  1.00  0.00    -0.564 OA 
HETATM   26  C   UNL     1     -12.051  14.844  69.707  1.00  0.00    -0.314 C  
HETATM   27  H   UNL     1     -12.110  15.952  72.113  1.00  0.00     0.000 HD 
HETATM   28  O   UNL     1     -13.364  15.251  70.121  1.00  0.00    -0.615 OA 
HETATM   29  H   UNL     1     -13.527  14.970  71.014  1.00  0.00     0.000 HD 
ENDBRANCH  15  20
ENDBRANCH   9  11
ENDBRANCH   6   7
ENDBRANCH   5   6
ENDBRANCH   4   5
ENDBRANCH   3   4
ENDBRANCH   2   3
TORSDOF 7
ENDMDL
MODEL       57
REMARK 921   NORMALIZED FREE ENERGY PREDICTED BY IDOCK:   -5.18 KCAL/MOL
REMARK 922        TOTAL FREE ENERGY PREDICTED BY IDOCK:   -8.40 KCAL/MOL
REMARK 923 INTER-LIGAND FREE ENERGY PREDICTED BY IDOCK:   -7.46 KCAL/MOL
REMARK 924 INTRA-LIGAND FREE ENERGY PREDICTED BY IDOCK:   -0.94 KCAL/MOL
REMARK 927      BINDING AFFINITY PREDICTED BY RF-SCORE:    0.00 PKD
ROOT
HETATM    1  C   UNL     1     -12.359  12.126  63.545  1.00  0.00    -0.682 C  
HETATM    2  C   UNL     1     -10.983  12.683  63.891  1.00  0.00    -0.468 C  
ENDROOT
BRANCH   2   3
HETATM    3  C   UNL     1     -11.105  13.891  64.812  1.00  0.00    -0.386 C  
BRANCH   3   4
HETATM    4  C   UNL     1     -12.325  13.832  65.739  1.00  0.00    -0.523 C  
BRANCH   4   5
HETATM    5  C   UNL     1     -11.874  13.317  67.105  1.00  0.00    -0.374 C  
BRANCH   5   6
HETATM    6  O   UNL     1     -11.842  11.887  67.203  1.00  0.00    -0.588 OA 
BRANCH   6   7
HETATM    7  C   UNL     1     -11.762  11.438  68.481  1.00  0.00    -0.318 C  
HETATM    8  O   UNL     1     -12.000  12.125  69.460  1.00  0.00    -0.302 OA 
HETATM    9  N   UNL     1     -11.353  10.129  68.468  1.00  0.00    -0.491 N  
HETATM   10  H   UNL     1     -10.903   9.789  67.619  1.00  0.00     0.000 HD 
BRANCH   9  11
HETATM   11  C   UNL     1     -11.498   9.236  69.502  1.00  0.00     0.216 C  
HETATM   12  N   UNL     1     -12.123   9.538  70.585  1.00  0.00    -0.440 N  
HETATM   13  C   UNL     1     -12.172   8.612  71.603  1.00  0.00    -0.333 C  
HETATM   14  H   UNL     1     -12.575  10.446  70.688  1.00  0.00     0.000 HD 
HETATM   15  N   UNL     1     -11.210   7.582  71.574  1.00  0.00    -0.240 N  
HETATM   16  O   UNL     1     -13.009   8.718  72.492  1.00  0.00    -0.397 OA 
HETATM   17  F   UNL     1     -10.413   7.628  68.035  1.00  0.00    -0.219 F  
HETATM   18  C   UNL     1     -10.713   7.173  70.343  1.00  0.00    -0.235 C  
HETATM   19  C   UNL     1     -10.876   7.931  69.259  1.00  0.00    -0.064 C  
BRANCH  15  20
HETATM   20  C   UNL     1     -10.994   6.760  72.774  1.00  0.00    -0.270 C  
HETATM   21  C   UNL     1      -8.843   7.190  73.610  1.00  0.00    -0.169 C  
HETATM   22  O   UNL     1     -10.234   7.478  73.767  1.00  0.00    -0.322 OA 
HETATM   23  C   UNL     1      -8.203   8.192  72.654  1.00  0.00    -0.227 C  
HETATM   24  C   UNL     1      -8.787   5.745  73.130  1.00  0.00    -0.122 C  
HETATM   25  O   UNL     1      -8.561   4.829  74.215  1.00  0.00    -0.107 OA 
HETATM   26  C   UNL     1     -10.172   5.473  72.530  1.00  0.00    -0.189 C  
HETATM   27  H   UNL     1      -8.526   3.928  73.916  1.00  0.00     0.000 HD 
HETATM   28  O   UNL     1     -10.820   4.350  73.147  1.00  0.00    -0.210 OA 
HETATM   29  H   UNL     1     -10.316   3.559  72.998  1.00  0.00     0.000 HD 
ENDBRANCH  15  20
ENDBRANCH   9  11
ENDBRANCH   6   7
ENDBRANCH   5   6
ENDBRANCH   4   5
ENDBRANCH   3   4
ENDBRANCH   2   3
TORSDOF 7
ENDMDL
MODEL       58
REMARK 921   NORMALIZED FREE ENERGY PREDICTED BY IDOCK:   -5.16 KCAL/MOL
REMARK 922        TOTAL FREE ENERGY PREDICTED BY IDOCK:   -8.38 KCAL/MOL
REMARK 923 INTER-LIGAND FREE ENERGY PREDICTED BY IDOCK:   -7.32 KCAL/MOL
REMARK 924 INTRA-LIGAND FREE ENERGY PREDICTED BY IDOCK:   -1.06 KCAL/MOL
REMARK 927      BINDING AFFINITY PREDICTED BY RF-SCORE:    0.00 PKD
ROOT
HETATM    1  C   UNL     1     -12.149  14.306  64.758  1.00  0.00    -0.457 C  
HETATM    2  C   UNL     1     -12.445  12.813  64.678  1.00  0.00    -0.525 C  
ENDROOT
BRANCH   2   3
HETATM    3  C   UNL     1     -11.702  12.176  63.510  1.00  0.00    -0.579 C  
BRANCH   3   4
HETATM    4  C   UNL     1     -10.230  11.872  63.815  1.00  0.00    -0.442 C  
BRANCH   4   5
HETATM    5  C   UNL     1     -10.143  11.212  65.190  1.00  0.00    -0.281 C  
BRANCH   5   6
HETATM    6  O   UNL     1      -9.471  12.008  66.174  1.00  0.00    -0.232 OA 
BRANCH   6   7
HETATM    7  C   UNL     1      -9.990  11.874  67.420  1.00  0.00    -0.190 C  
HETATM    8  O   UNL     1     -10.523  12.781  68.036  1.00  0.00    -0.214 OA 
HETATM    9  N   UNL     1      -9.784  10.588  67.853  1.00  0.00    -0.152 N  
HETATM   10  H   UNL     1      -9.069  10.044  67.372  1.00  0.00     0.000 HD 
BRANCH   9  11
HETATM   11  C   UNL     1     -10.460   9.972  68.878  1.00  0.00    -0.210 C  
HETATM   12  N   UNL     1     -10.972  10.633  69.855  1.00  0.00    -0.339 N  
HETATM   13  C   UNL     1     -11.580   9.940  70.878  1.00  0.00    -0.373 C  
HETATM   14  H   UNL     1     -10.929  11.651  69.872  1.00  0.00     0.000 HD 
HETATM   15  N   UNL     1     -11.249   8.577  71.008  1.00  0.00    -0.260 N  
HETATM   16  O   UNL     1     -12.349  10.515  71.639  1.00  0.00    -0.362 OA 
HETATM   17  F   UNL     1     -10.148   7.917  67.615  1.00  0.00    -0.189 F  
HETATM   18  C   UNL     1     -10.884   7.870  69.868  1.00  0.00    -0.221 C  
HETATM   19  C   UNL     1     -10.535   8.513  68.755  1.00  0.00    -0.184 C  
BRANCH  15  20
HETATM   20  C   UNL     1     -11.595   7.862  72.246  1.00  0.00    -0.350 C  
HETATM   21  C   UNL     1      -9.616   7.200  73.320  1.00  0.00    -0.195 C  
HETATM   22  O   UNL     1     -10.666   8.170  73.303  1.00  0.00    -0.167 OA 
HETATM   23  C   UNL     1      -8.469   7.651  72.422  1.00  0.00    -0.151 C  
HETATM   24  C   UNL     1     -10.274   5.895  72.887  1.00  0.00    -0.191 C  
HETATM   25  O   UNL     1     -10.651   5.087  74.014  1.00  0.00    -0.263 OA 
HETATM   26  C   UNL     1     -11.540   6.321  72.134  1.00  0.00    -0.319 C  
HETATM   27  H   UNL     1     -11.061   4.273  73.745  1.00  0.00     0.000 HD 
HETATM   28  O   UNL     1     -12.728   5.743  72.699  1.00  0.00    -0.473 OA 
HETATM   29  H   UNL     1     -12.694   4.796  72.631  1.00  0.00     0.000 HD 
ENDBRANCH  15  20
ENDBRANCH   9  11
ENDBRANCH   6   7
ENDBRANCH   5   6
ENDBRANCH   4   5
ENDBRANCH   3   4
ENDBRANCH   2   3
TORSDOF 7
ENDMDL
MODEL       59
REMARK 921   NORMALIZED FREE ENERGY PREDICTED BY IDOCK:   -5.16 KCAL/MOL
REMARK 922        TOTAL FREE ENERGY PREDICTED BY IDOCK:   -8.37 KCAL/MOL
REMARK 923 INTER-LIGAND FREE ENERGY PREDICTED BY IDOCK:   -7.56 KCAL/MOL
REMARK 924 INTRA-LIGAND FREE ENERGY PREDICTED BY IDOCK:   -0.80 KCAL/MOL
REMARK 927      BINDING AFFINITY PREDICTED BY RF-SCORE:    0.00 PKD
ROOT
HETATM    1  C   UNL     1     -11.249   5.443  72.885  1.00  0.00    -0.372 C  
HETATM    2  C   UNL     1     -10.469   6.346  73.834  1.00  0.00    -0.307 C  
ENDROOT
BRANCH   2   3
HETATM    3  C   UNL     1     -10.301   7.739  73.238  1.00  0.00    -0.364 C  
BRANCH   3   4
HETATM    4  C   UNL     1     -11.463   8.159  72.330  1.00  0.00    -0.435 C  
BRANCH   4   5
HETATM    5  C   UNL     1     -10.977   9.264  71.395  1.00  0.00    -0.359 C  
BRANCH   5   6
HETATM    6  O   UNL     1     -11.968   9.712  70.462  1.00  0.00    -0.250 OA 
BRANCH   6   7
HETATM    7  C   UNL     1     -11.805  11.005  70.082  1.00  0.00    -0.357 C  
HETATM    8  O   UNL     1     -12.262  11.956  70.693  1.00  0.00    -0.371 OA 
HETATM    9  N   UNL     1     -11.084  11.038  68.916  1.00  0.00    -0.218 N  
HETATM   10  H   UNL     1     -11.039  10.178  68.370  1.00  0.00     0.000 HD 
BRANCH   9  11
HETATM   11  C   UNL     1     -10.417  12.132  68.420  1.00  0.00    -0.231 C  
HETATM   12  N   UNL     1      -9.241  12.459  68.824  1.00  0.00    -0.399 N  
HETATM   13  C   UNL     1      -8.663  13.605  68.327  1.00  0.00    -0.171 C  
HETATM   14  H   UNL     1      -8.746  11.880  69.502  1.00  0.00     0.000 HD 
HETATM   15  N   UNL     1      -9.527  14.553  67.743  1.00  0.00    -0.207 N  
HETATM   16  O   UNL     1      -7.453  13.776  68.424  1.00  0.00    -0.103 OA 
HETATM   17  F   UNL     1     -12.299  12.371  66.897  1.00  0.00    -0.317 F  
HETATM   18  C   UNL     1     -10.701  14.104  67.150  1.00  0.00    -0.280 C  
HETATM   19  C   UNL     1     -11.166  12.882  67.406  1.00  0.00    -0.291 C  
BRANCH  15  20
HETATM   20  C   UNL     1      -9.040  15.916  67.488  1.00  0.00    -0.199 C  
HETATM   21  C   UNL     1     -10.079  17.387  68.994  1.00  0.00    -0.295 C  
HETATM   22  O   UNL     1      -8.884  16.652  68.717  1.00  0.00    -0.249 OA 
HETATM   23  C   UNL     1     -11.034  16.542  69.828  1.00  0.00    -0.292 C  
HETATM   24  C   UNL     1     -10.625  17.785  67.628  1.00  0.00    -0.379 C  
HETATM   25  O   UNL     1     -10.231  19.118  67.261  1.00  0.00    -0.348 OA 
HETATM   26  C   UNL     1      -9.995  16.792  66.644  1.00  0.00    -0.293 C  
HETATM   27  H   UNL     1     -10.572  19.367  66.410  1.00  0.00     0.000 HD 
HETATM   28  O   UNL     1      -9.265  17.452  65.599  1.00  0.00    -0.477 OA 
HETATM   29  H   UNL     1      -9.851  17.991  65.081  1.00  0.00     0.000 HD 
ENDBRANCH  15  20
ENDBRANCH   9  11
ENDBRANCH   6   7
ENDBRANCH   5   6
ENDBRANCH   4   5
ENDBRANCH   3   4
ENDBRANCH   2   3
TORSDOF 7
ENDMDL
MODEL       60
REMARK 921   NORMALIZED FREE ENERGY PREDICTED BY IDOCK:   -5.15 KCAL/MOL
REMARK 922        TOTAL FREE ENERGY PREDICTED BY IDOCK:   -8.37 KCAL/MOL
REMARK 923 INTER-LIGAND FREE ENERGY PREDICTED BY IDOCK:   -7.36 KCAL/MOL
REMARK 924 INTRA-LIGAND FREE ENERGY PREDICTED BY IDOCK:   -1.01 KCAL/MOL
REMARK 927      BINDING AFFINITY PREDICTED BY RF-SCORE:    0.00 PKD
ROOT
HETATM    1  C   UNL     1      -7.846   7.307  72.111  1.00  0.00    -0.092 C  
HETATM    2  C   UNL     1      -8.980   7.090  71.115  1.00  0.00    -0.146 C  
ENDROOT
BRANCH   2   3
HETATM    3  C   UNL     1      -8.932   5.679  70.541  1.00  0.00    -0.150 C  
BRANCH   3   4
HETATM    4  C   UNL     1     -10.201   5.287  69.775  1.00  0.00    -0.364 C  
BRANCH   4   5
HETATM    5  C   UNL     1      -9.808   4.870  68.359  1.00  0.00    -0.136 C  
BRANCH   5   6
HETATM    6  O   UNL     1      -9.132   5.895  67.621  1.00  0.00    -0.109 OA 
BRANCH   6   7
HETATM    7  C   UNL     1      -9.945   6.917  67.250  1.00  0.00    -0.172 C  
HETATM    8  O   UNL     1     -11.100   6.769  66.888  1.00  0.00    -0.397 OA 
HETATM    9  N   UNL     1      -9.245   8.094  67.326  1.00  0.00    -0.136 N  
HETATM   10  H   UNL     1      -8.227   8.031  67.342  1.00  0.00     0.000 HD 
BRANCH   9  11
HETATM   11  C   UNL     1      -9.798   9.350  67.384  1.00  0.00    -0.172 C  
HETATM   12  N   UNL     1     -10.953   9.566  67.905  1.00  0.00    -0.503 N  
HETATM   13  C   UNL     1     -11.470  10.842  67.868  1.00  0.00    -0.266 C  
HETATM   14  H   UNL     1     -11.478   8.807  68.337  1.00  0.00     0.000 HD 
HETATM   15  N   UNL     1     -10.915  11.727  66.922  1.00  0.00    -0.270 N  
HETATM   16  O   UNL     1     -12.385  11.158  68.619  1.00  0.00    -0.549 OA 
HETATM   17  F   UNL     1      -7.691  10.130  66.451  1.00  0.00    -0.100 F  
HETATM   18  C   UNL     1      -9.589  11.547  66.542  1.00  0.00    -0.205 C  
HETATM   19  C   UNL     1      -8.960  10.401  66.797  1.00  0.00    -0.140 C  
BRANCH  15  20
HETATM   20  C   UNL     1     -11.616  12.979  66.603  1.00  0.00    -0.359 C  
HETATM   21  C   UNL     1     -12.193  12.968  64.328  1.00  0.00    -0.396 C  
HETATM   22  O   UNL     1     -12.678  12.755  65.656  1.00  0.00    -0.549 OA 
HETATM   23  C   UNL     1     -11.646  11.666  63.753  1.00  0.00    -0.430 C  
HETATM   24  C   UNL     1     -11.158  14.079  64.456  1.00  0.00    -0.351 C  
HETATM   25  O   UNL     1     -11.716  15.368  64.153  1.00  0.00    -0.759 OA 
HETATM   26  C   UNL     1     -10.733  14.056  65.930  1.00  0.00    -0.293 C  
HETATM   27  H   UNL     1     -11.070  16.061  64.232  1.00  0.00     0.000 HD 
HETATM   28  O   UNL     1     -10.928  15.326  66.571  1.00  0.00    -0.315 OA 
HETATM   29  H   UNL     1     -10.386  15.987  66.158  1.00  0.00     0.000 HD 
ENDBRANCH  15  20
ENDBRANCH   9  11
ENDBRANCH   6   7
ENDBRANCH   5   6
ENDBRANCH   4   5
ENDBRANCH   3   4
ENDBRANCH   2   3
TORSDOF 7
ENDMDL
MODEL       61
REMARK 921   NORMALIZED FREE ENERGY PREDICTED BY IDOCK:   -5.05 KCAL/MOL
REMARK 922        TOTAL FREE ENERGY PREDICTED BY IDOCK:   -8.22 KCAL/MOL
REMARK 923 INTER-LIGAND FREE ENERGY PREDICTED BY IDOCK:   -7.85 KCAL/MOL
REMARK 924 INTRA-LIGAND FREE ENERGY PREDICTED BY IDOCK:   -0.37 KCAL/MOL
REMARK 927      BINDING AFFINITY PREDICTED BY RF-SCORE:    0.00 PKD
ROOT
HETATM    1  C   UNL     1      -9.950   3.736  72.379  1.00  0.00    -0.232 C  
HETATM    2  C   UNL     1     -11.129   4.372  73.105  1.00  0.00    -0.326 C  
ENDROOT
BRANCH   2   3
HETATM    3  C   UNL     1     -10.779   5.781  73.572  1.00  0.00    -0.300 C  
BRANCH   3   4
HETATM    4  C   UNL     1      -9.939   6.569  72.560  1.00  0.00    -0.184 C  
BRANCH   4   5
HETATM    5  C   UNL     1     -10.645   7.889  72.262  1.00  0.00    -0.271 C  
BRANCH   5   6
HETATM    6  O   UNL     1     -11.406   7.878  71.047  1.00  0.00    -0.266 OA 
BRANCH   6   7
HETATM    7  C   UNL     1     -11.916   9.093  70.721  1.00  0.00    -0.191 C  
HETATM    8  O   UNL     1     -12.830   9.630  71.323  1.00  0.00    -0.327 OA 
HETATM    9  N   UNL     1     -11.259   9.570  69.615  1.00  0.00    -0.403 N  
HETATM   10  H   UNL     1     -10.748   8.894  69.049  1.00  0.00     0.000 HD 
BRANCH   9  11
HETATM   11  C   UNL     1     -11.231  10.881  69.206  1.00  0.00    -0.265 C  
HETATM   12  N   UNL     1     -12.000  11.775  69.720  1.00  0.00    -0.324 N  
HETATM   13  C   UNL     1     -11.959  13.055  69.214  1.00  0.00    -0.278 C  
HETATM   14  H   UNL     1     -12.628  11.541  70.488  1.00  0.00     0.000 HD 
HETATM   15  N   UNL     1     -11.408  13.214  67.927  1.00  0.00    -0.269 N  
HETATM   16  O   UNL     1     -12.412  13.989  69.865  1.00  0.00    -0.333 OA 
HETATM   17  F   UNL     1      -9.365  10.219  67.794  1.00  0.00    -0.141 F  
HETATM   18  C   UNL     1     -10.436  12.314  67.505  1.00  0.00    -0.213 C  
HETATM   19  C   UNL     1     -10.262  11.156  68.141  1.00  0.00    -0.181 C  
BRANCH  15  20
HETATM   20  C   UNL     1     -11.621  14.473  67.198  1.00  0.00    -0.388 C  
HETATM   21  C   UNL     1     -12.165  13.976  64.969  1.00  0.00    -0.433 C  
HETATM   22  O   UNL     1     -12.694  14.347  66.244  1.00  0.00    -0.286 OA 
HETATM   23  C   UNL     1     -12.112  12.458  64.843  1.00  0.00    -0.470 C  
HETATM   24  C   UNL     1     -10.804  14.658  64.891  1.00  0.00    -0.419 C  
HETATM   25  O   UNL     1     -10.870  15.906  64.181  1.00  0.00    -0.799 OA 
HETATM   26  C   UNL     1     -10.415  14.935  66.348  1.00  0.00    -0.299 C  
HETATM   27  H   UNL     1     -10.021  16.331  64.131  1.00  0.00     0.000 HD 
HETATM   28  O   UNL     1     -10.149  16.326  66.584  1.00  0.00    -0.257 OA 
HETATM   29  H   UNL     1      -9.408  16.611  66.062  1.00  0.00     0.000 HD 
ENDBRANCH  15  20
ENDBRANCH   9  11
ENDBRANCH   6   7
ENDBRANCH   5   6
ENDBRANCH   4   5
ENDBRANCH   3   4
ENDBRANCH   2   3
TORSDOF 7
ENDMDL
MODEL       62
REMARK 921   NORMALIZED FREE ENERGY PREDICTED BY IDOCK:   -5.03 KCAL/MOL
REMARK 922        TOTAL FREE ENERGY PREDICTED BY IDOCK:   -8.19 KCAL/MOL
REMARK 923 INTER-LIGAND FREE ENERGY PREDICTED BY IDOCK:   -8.41 KCAL/MOL
REMARK 924 INTRA-LIGAND FREE ENERGY PREDICTED BY IDOCK:    0.21 KCAL/MOL
REMARK 927      BINDING AFFINITY PREDICTED BY RF-SCORE:    0.00 PKD
ROOT
HETATM    1  C   UNL     1      -9.919   4.877  69.533  1.00  0.00    -0.295 C  
HETATM    2  C   UNL     1     -10.967   5.816  70.118  1.00  0.00    -0.368 C  
ENDROOT
BRANCH   2   3
HETATM    3  C   UNL     1     -11.084   5.623  71.626  1.00  0.00    -0.249 C  
BRANCH   3   4
HETATM    4  C   UNL     1     -11.032   6.937  72.416  1.00  0.00    -0.280 C  
BRANCH   4   5
HETATM    5  C   UNL     1     -11.674   8.037  71.574  1.00  0.00    -0.284 C  
BRANCH   5   6
HETATM    6  O   UNL     1     -10.976   9.288  71.626  1.00  0.00    -0.355 OA 
BRANCH   6   7
HETATM    7  C   UNL     1     -11.488  10.224  70.787  1.00  0.00    -0.351 C  
HETATM    8  O   UNL     1     -12.390  10.988  71.089  1.00  0.00    -0.361 OA 
HETATM    9  N   UNL     1     -10.848  10.137  69.577  1.00  0.00    -0.239 N  
HETATM   10  H   UNL     1     -10.348   9.271  69.376  1.00  0.00     0.000 HD 
BRANCH   9  11
HETATM   11  C   UNL     1     -10.822  11.116  68.614  1.00  0.00    -0.209 C  
HETATM   12  N   UNL     1     -11.851  11.835  68.341  1.00  0.00    -0.311 N  
HETATM   13  C   UNL     1     -11.767  12.754  67.318  1.00  0.00    -0.378 C  
HETATM   14  H   UNL     1     -12.715  11.728  68.873  1.00  0.00     0.000 HD 
HETATM   15  N   UNL     1     -10.733  12.568  66.380  1.00  0.00    -0.245 N  
HETATM   16  O   UNL     1     -12.583  13.665  67.240  1.00  0.00    -0.106 OA 
HETATM   17  F   UNL     1      -8.453  10.603  68.405  1.00  0.00    -0.112 F  
HETATM   18  C   UNL     1      -9.562  11.946  66.796  1.00  0.00    -0.204 C  
HETATM   19  C   UNL     1      -9.530  11.253  67.934  1.00  0.00    -0.178 C  
BRANCH  15  20
HETATM   20  C   UNL     1     -10.773  13.299  65.105  1.00  0.00    -0.322 C  
HETATM   21  C   UNL     1      -9.809  15.417  65.414  1.00  0.00    -0.279 C  
HETATM   22  O   UNL     1      -9.585  14.093  64.922  1.00  0.00     0.080 OA 
HETATM   23  C   UNL     1      -9.425  15.503  66.886  1.00  0.00    -0.244 C  
HETATM   24  C   UNL     1     -11.280  15.701  65.132  1.00  0.00    -0.282 C  
HETATM   25  O   UNL     1     -11.459  16.433  63.908  1.00  0.00    -1.569 OA 
HETATM   26  C   UNL     1     -11.929  14.319  64.985  1.00  0.00    -0.410 C  
HETATM   27  H   UNL     1     -12.376  16.611  63.733  1.00  0.00     0.000 HD 
HETATM   28  O   UNL     1     -12.596  14.164  63.723  1.00  0.00    -0.856 OA 
HETATM   29  H   UNL     1     -13.305  14.792  63.649  1.00  0.00     0.000 HD 
ENDBRANCH  15  20
ENDBRANCH   9  11
ENDBRANCH   6   7
ENDBRANCH   5   6
ENDBRANCH   4   5
ENDBRANCH   3   4
ENDBRANCH   2   3
TORSDOF 7
ENDMDL
MODEL       63
REMARK 921   NORMALIZED FREE ENERGY PREDICTED BY IDOCK:   -5.03 KCAL/MOL
REMARK 922        TOTAL FREE ENERGY PREDICTED BY IDOCK:   -8.19 KCAL/MOL
REMARK 923 INTER-LIGAND FREE ENERGY PREDICTED BY IDOCK:   -6.99 KCAL/MOL
REMARK 924 INTRA-LIGAND FREE ENERGY PREDICTED BY IDOCK:   -1.20 KCAL/MOL
REMARK 927      BINDING AFFINITY PREDICTED BY RF-SCORE:    0.00 PKD
ROOT
HETATM    1  C   UNL     1     -10.560  18.671  65.754  1.00  0.00    -0.290 C  
HETATM    2  C   UNL     1     -10.904  19.180  67.150  1.00  0.00    -0.507 C  
ENDROOT
BRANCH   2   3
HETATM    3  C   UNL     1      -9.958  20.301  67.564  1.00  0.00    -0.557 C  
BRANCH   3   4
HETATM    4  C   UNL     1      -8.840  20.563  66.549  1.00  0.00    -0.122 C  
BRANCH   4   5
HETATM    5  C   UNL     1      -7.496  20.467  67.268  1.00  0.00    -0.321 C  
BRANCH   5   6
HETATM    6  O   UNL     1      -6.567  19.571  66.644  1.00  0.00    -0.187 OA 
BRANCH   6   7
HETATM    7  C   UNL     1      -7.087  18.341  66.401  1.00  0.00    -0.236 C  
HETATM    8  O   UNL     1      -7.203  17.860  65.287  1.00  0.00    -0.329 OA 
HETATM    9  N   UNL     1      -7.468  17.775  67.591  1.00  0.00    -0.199 N  
HETATM   10  H   UNL     1      -7.595  18.402  68.385  1.00  0.00     0.000 HD 
BRANCH   9  11
HETATM   11  C   UNL     1      -7.693  16.437  67.804  1.00  0.00    -0.149 C  
HETATM   12  N   UNL     1      -6.977  15.526  67.248  1.00  0.00    -0.199 N  
HETATM   13  C   UNL     1      -7.303  14.205  67.459  1.00  0.00    -0.175 C  
HETATM   14  H   UNL     1      -6.181  15.776  66.662  1.00  0.00     0.000 HD 
HETATM   15  N   UNL     1      -8.610  13.936  67.911  1.00  0.00    -0.168 N  
HETATM   16  O   UNL     1      -6.482  13.324  67.233  1.00  0.00    -0.256 OA 
HETATM   17  F   UNL     1      -9.387  17.154  69.396  1.00  0.00    -0.156 F  
HETATM   18  C   UNL     1      -9.260  14.899  68.675  1.00  0.00    -0.193 C  
HETATM   19  C   UNL     1      -8.814  16.154  68.706  1.00  0.00    -0.233 C  
BRANCH  15  20
HETATM   20  C   UNL     1      -9.130  12.562  67.850  1.00  0.00    -0.199 C  
HETATM   21  C   UNL     1     -11.046  12.535  66.494  1.00  0.00    -0.287 C  
HETATM   22  O   UNL     1      -9.644  12.258  66.538  1.00  0.00    -0.226 OA 
HETATM   23  C   UNL     1     -11.283  13.976  66.058  1.00  0.00    -0.310 C  
HETATM   24  C   UNL     1     -11.559  12.211  67.892  1.00  0.00    -0.347 C  
HETATM   25  O   UNL     1     -12.114  10.888  67.966  1.00  0.00    -0.780 OA 
HETATM   26  C   UNL     1     -10.321  12.283  68.795  1.00  0.00    -0.135 C  
HETATM   27  H   UNL     1     -12.435  10.686  68.838  1.00  0.00     0.000 HD 
HETATM   28  O   UNL     1     -10.104  11.060  69.516  1.00  0.00    -0.428 OA 
HETATM   29  H   UNL     1     -10.836  10.888  70.096  1.00  0.00     0.000 HD 
ENDBRANCH  15  20
ENDBRANCH   9  11
ENDBRANCH   6   7
ENDBRANCH   5   6
ENDBRANCH   4   5
ENDBRANCH   3   4
ENDBRANCH   2   3
TORSDOF 7
ENDMDL
MODEL       64
REMARK 921   NORMALIZED FREE ENERGY PREDICTED BY IDOCK:   -5.02 KCAL/MOL
REMARK 922        TOTAL FREE ENERGY PREDICTED BY IDOCK:   -8.17 KCAL/MOL
REMARK 923 INTER-LIGAND FREE ENERGY PREDICTED BY IDOCK:   -8.51 KCAL/MOL
REMARK 924 INTRA-LIGAND FREE ENERGY PREDICTED BY IDOCK:    0.34 KCAL/MOL
REMARK 927      BINDING AFFINITY PREDICTED BY RF-SCORE:    0.00 PKD
ROOT
HETATM    1  C   UNL     1     -14.227  15.419  72.344  1.00  0.00    -0.584 C  
HETATM    2  C   UNL     1     -12.773  15.003  72.536  1.00  0.00    -0.440 C  
ENDROOT
BRANCH   2   3
HETATM    3  C   UNL     1     -11.829  16.098  72.052  1.00  0.00    -0.615 C  
BRANCH   3   4
HETATM    4  C   UNL     1     -11.359  15.903  70.605  1.00  0.00    -0.421 C  
BRANCH   4   5
HETATM    5  C   UNL     1     -12.191  14.792  69.967  1.00  0.00    -0.333 C  
BRANCH   5   6
HETATM    6  O   UNL     1     -11.567  14.180  68.832  1.00  0.00    -0.268 OA 
BRANCH   6   7
HETATM    7  C   UNL     1     -11.775  12.841  68.760  1.00  0.00    -0.323 C  
HETATM    8  O   UNL     1     -11.980  12.239  67.719  1.00  0.00    -0.474 OA 
HETATM    9  N   UNL     1     -11.744  12.316  70.027  1.00  0.00    -0.503 N  
HETATM   10  H   UNL     1     -11.872  12.965  70.803  1.00  0.00     0.000 HD 
BRANCH   9  11
HETATM   11  C   UNL     1     -11.554  10.992  70.339  1.00  0.00    -0.293 C  
HETATM   12  N   UNL     1     -10.622  10.288  69.801  1.00  0.00    -0.258 N  
HETATM   13  C   UNL     1     -10.535   8.951  70.117  1.00  0.00    -0.214 C  
HETATM   14  H   UNL     1      -9.960  10.713  69.152  1.00  0.00     0.000 HD 
HETATM   15  N   UNL     1     -11.685   8.349  70.663  1.00  0.00    -0.209 N  
HETATM   16  O   UNL     1      -9.499   8.333  69.898  1.00  0.00    -0.165 OA 
HETATM   17  F   UNL     1     -13.321  11.307  71.982  1.00  0.00    -0.553 F  
HETATM   18  C   UNL     1     -12.561   9.137  71.401  1.00  0.00    -0.323 C  
HETATM   19  C   UNL     1     -12.505  10.466  71.324  1.00  0.00    -0.415 C  
BRANCH  15  20
HETATM   20  C   UNL     1     -11.777   6.883  70.723  1.00  0.00    -0.369 C  
HETATM   21  C   UNL     1     -10.990   6.158  72.812  1.00  0.00    -0.260 C  
HETATM   22  O   UNL     1     -12.159   6.437  72.039  1.00  0.00    -0.335 OA 
HETATM   23  C   UNL     1     -10.542   7.408  73.559  1.00  0.00    -0.388 C  
HETATM   24  C   UNL     1      -9.970   5.627  71.812  1.00  0.00    -0.176 C  
HETATM   25  O   UNL     1      -9.946   4.190  71.782  1.00  0.00    -0.177 OA 
HETATM   26  C   UNL     1     -10.446   6.145  70.449  1.00  0.00    -0.230 C  
HETATM   27  H   UNL     1      -9.309   3.859  71.159  1.00  0.00     0.000 HD 
HETATM   28  O   UNL     1     -10.656   5.081  69.507  1.00  0.00    -0.182 OA 
HETATM   29  H   UNL     1      -9.838   4.627  69.339  1.00  0.00     0.000 HD 
ENDBRANCH  15  20
ENDBRANCH   9  11
ENDBRANCH   6   7
ENDBRANCH   5   6
ENDBRANCH   4   5
ENDBRANCH   3   4
ENDBRANCH   2   3
TORSDOF 7
ENDMDL
MODEL       65
REMARK 921   NORMALIZED FREE ENERGY PREDICTED BY IDOCK:   -5.00 KCAL/MOL
REMARK 922        TOTAL FREE ENERGY PREDICTED BY IDOCK:   -8.14 KCAL/MOL
REMARK 923 INTER-LIGAND FREE ENERGY PREDICTED BY IDOCK:   -7.19 KCAL/MOL
REMARK 924 INTRA-LIGAND FREE ENERGY PREDICTED BY IDOCK:   -0.95 KCAL/MOL
REMARK 927      BINDING AFFINITY PREDICTED BY RF-SCORE:    0.00 PKD
ROOT
HETATM    1  C   UNL     1     -12.072  15.969  72.770  1.00  0.00    -0.635 C  
HETATM    2  C   UNL     1     -13.050  15.522  71.689  1.00  0.00    -0.561 C  
ENDROOT
BRANCH   2   3
HETATM    3  C   UNL     1     -12.856  14.046  71.361  1.00  0.00    -0.434 C  
BRANCH   3   4
HETATM    4  C   UNL     1     -13.741  13.113  72.197  1.00  0.00    -0.588 C  
BRANCH   4   5
HETATM    5  C   UNL     1     -13.260  11.677  72.000  1.00  0.00    -0.338 C  
BRANCH   5   6
HETATM    6  O   UNL     1     -12.496  11.482  70.803  1.00  0.00    -0.362 OA 
BRANCH   6   7
HETATM    7  C   UNL     1     -11.722  10.367  70.835  1.00  0.00    -0.360 C  
HETATM    8  O   UNL     1     -10.679  10.246  70.215  1.00  0.00    -0.288 OA 
HETATM    9  N   UNL     1     -12.322   9.431  71.638  1.00  0.00    -0.360 N  
HETATM   10  H   UNL     1     -13.315   9.552  71.834  1.00  0.00     0.000 HD 
BRANCH   9  11
HETATM   11  C   UNL     1     -11.698   8.345  72.202  1.00  0.00    -0.375 C  
HETATM   12  N   UNL     1     -10.569   8.442  72.808  1.00  0.00    -0.247 N  
HETATM   13  C   UNL     1      -9.975   7.297  73.292  1.00  0.00    -0.273 C  
HETATM   14  H   UNL     1     -10.120   9.349  72.929  1.00  0.00     0.000 HD 
HETATM   15  N   UNL     1     -10.411   6.074  72.747  1.00  0.00    -0.206 N  
HETATM   16  O   UNL     1      -9.093   7.372  74.140  1.00  0.00    -0.231 OA 
HETATM   17  F   UNL     1     -13.688   7.096  71.571  1.00  0.00    -0.413 F  
HETATM   18  C   UNL     1     -11.717   5.984  72.279  1.00  0.00    -0.284 C  
HETATM   19  C   UNL     1     -12.430   7.084  72.042  1.00  0.00    -0.244 C  
BRANCH  15  20
HETATM   20  C   UNL     1      -9.616   4.857  72.969  1.00  0.00    -0.135 C  
HETATM   21  C   UNL     1      -8.764   4.122  70.909  1.00  0.00    -0.081 C  
HETATM   22  O   UNL     1      -8.457   4.829  72.112  1.00  0.00    -0.116 OA 
HETATM   23  C   UNL     1      -9.298   5.085  69.855  1.00  0.00    -0.198 C  
HETATM   24  C   UNL     1      -9.751   3.038  71.325  1.00  0.00    -0.138 C  
HETATM   25  O   UNL     1      -9.098   1.780  71.560  1.00  0.00    -0.071 OA 
HETATM   26  C   UNL     1     -10.355   3.539  72.643  1.00  0.00    -0.145 C  
HETATM   27  H   UNL     1      -9.714   1.104  71.819  1.00  0.00     0.000 HD 
HETATM   28  O   UNL     1     -10.179   2.597  73.713  1.00  0.00    -0.103 OA 
HETATM   29  H   UNL     1     -10.633   1.787  73.513  1.00  0.00     0.000 HD 
ENDBRANCH  15  20
ENDBRANCH   9  11
ENDBRANCH   6   7
ENDBRANCH   5   6
ENDBRANCH   4   5
ENDBRANCH   3   4
ENDBRANCH   2   3
TORSDOF 7
ENDMDL
MODEL       66
REMARK 921   NORMALIZED FREE ENERGY PREDICTED BY IDOCK:   -4.99 KCAL/MOL
REMARK 922        TOTAL FREE ENERGY PREDICTED BY IDOCK:   -8.13 KCAL/MOL
REMARK 923 INTER-LIGAND FREE ENERGY PREDICTED BY IDOCK:   -8.15 KCAL/MOL
REMARK 924 INTRA-LIGAND FREE ENERGY PREDICTED BY IDOCK:    0.02 KCAL/MOL
REMARK 927      BINDING AFFINITY PREDICTED BY RF-SCORE:    0.00 PKD
ROOT
HETATM    1  C   UNL     1      -5.487  20.904  67.453  1.00  0.00    -0.271 C  
HETATM    2  C   UNL     1      -6.524  20.422  66.446  1.00  0.00    -0.262 C  
ENDROOT
BRANCH   2   3
HETATM    3  C   UNL     1      -7.611  19.606  67.137  1.00  0.00    -0.282 C  
BRANCH   3   4
HETATM    4  C   UNL     1      -8.908  20.390  67.370  1.00  0.00    -0.430 C  
BRANCH   4   5
HETATM    5  C   UNL     1     -10.092  19.449  67.152  1.00  0.00    -0.384 C  
BRANCH   5   6
HETATM    6  O   UNL     1     -10.242  19.012  65.795  1.00  0.00    -0.517 OA 
BRANCH   6   7
HETATM    7  C   UNL     1     -10.649  17.722  65.688  1.00  0.00    -0.123 C  
HETATM    8  O   UNL     1     -11.070  17.226  64.656  1.00  0.00    -1.052 OA 
HETATM    9  N   UNL     1     -10.530  17.113  66.911  1.00  0.00    -0.305 N  
HETATM   10  H   UNL     1     -10.463  17.720  67.728  1.00  0.00     0.000 HD 
BRANCH   9  11
HETATM   11  C   UNL     1     -10.495  15.758  67.129  1.00  0.00    -0.309 C  
HETATM   12  N   UNL     1     -11.500  14.997  66.876  1.00  0.00    -0.308 N  
HETATM   13  C   UNL     1     -11.411  13.657  67.180  1.00  0.00    -0.319 C  
HETATM   14  H   UNL     1     -12.347  15.378  66.457  1.00  0.00     0.000 HD 
HETATM   15  N   UNL     1     -10.421  13.279  68.110  1.00  0.00    -0.238 N  
HETATM   16  O   UNL     1     -12.186  12.857  66.670  1.00  0.00    -0.434 OA 
HETATM   17  F   UNL     1      -8.161  16.092  67.730  1.00  0.00    -0.146 F  
HETATM   18  C   UNL     1      -9.266  14.047  68.198  1.00  0.00    -0.196 C  
HETATM   19  C   UNL     1      -9.224  15.272  67.676  1.00  0.00    -0.187 C  
BRANCH  15  20
HETATM   20  C   UNL     1     -10.474  11.944  68.721  1.00  0.00    -0.184 C  
HETATM   21  C   UNL     1      -9.336  10.429  67.335  1.00  0.00    -0.145 C  
HETATM   22  O   UNL     1      -9.240  11.228  68.517  1.00  0.00    -0.175 OA 
HETATM   23  C   UNL     1      -8.869  11.225  66.123  1.00  0.00    -0.194 C  
HETATM   24  C   UNL     1     -10.794   9.989  67.270  1.00  0.00    -0.217 C  
HETATM   25  O   UNL     1     -10.983   8.678  67.828  1.00  0.00    -0.497 OA 
HETATM   26  C   UNL     1     -11.554  11.008  68.129  1.00  0.00    -0.272 C  
HETATM   27  H   UNL     1     -11.892   8.403  67.787  1.00  0.00     0.000 HD 
HETATM   28  O   UNL     1     -12.298  10.381  69.185  1.00  0.00    -0.702 OA 
HETATM   29  H   UNL     1     -12.961   9.806  68.821  1.00  0.00     0.000 HD 
ENDBRANCH  15  20
ENDBRANCH   9  11
ENDBRANCH   6   7
ENDBRANCH   5   6
ENDBRANCH   4   5
ENDBRANCH   3   4
ENDBRANCH   2   3
TORSDOF 7
ENDMDL
MODEL       67
REMARK 921   NORMALIZED FREE ENERGY PREDICTED BY IDOCK:   -4.98 KCAL/MOL
REMARK 922        TOTAL FREE ENERGY PREDICTED BY IDOCK:   -8.12 KCAL/MOL
REMARK 923 INTER-LIGAND FREE ENERGY PREDICTED BY IDOCK:   -7.37 KCAL/MOL
REMARK 924 INTRA-LIGAND FREE ENERGY PREDICTED BY IDOCK:   -0.75 KCAL/MOL
REMARK 927      BINDING AFFINITY PREDICTED BY RF-SCORE:    0.00 PKD
ROOT
HETATM    1  C   UNL     1      -6.626  20.228  68.712  1.00  0.00    -0.312 C  
HETATM    2  C   UNL     1      -7.510  19.338  67.847  1.00  0.00    -0.293 C  
ENDROOT
BRANCH   2   3
HETATM    3  C   UNL     1      -8.827  20.035  67.524  1.00  0.00    -0.426 C  
BRANCH   3   4
HETATM    4  C   UNL     1      -9.501  19.509  66.251  1.00  0.00    -0.451 C  
BRANCH   4   5
HETATM    5  C   UNL     1     -10.365  18.305  66.619  1.00  0.00    -0.381 C  
BRANCH   5   6
HETATM    6  O   UNL     1     -10.777  18.285  67.992  1.00  0.00    -0.368 OA 
BRANCH   6   7
HETATM    7  C   UNL     1     -10.742  17.046  68.546  1.00  0.00    -0.352 C  
HETATM    8  O   UNL     1     -10.963  16.822  69.724  1.00  0.00    -0.293 OA 
HETATM    9  N   UNL     1     -10.396  16.136  67.581  1.00  0.00    -0.281 N  
HETATM   10  H   UNL     1      -9.948  16.496  66.739  1.00  0.00     0.000 HD 
BRANCH   9  11
HETATM   11  C   UNL     1     -10.602  14.779  67.651  1.00  0.00    -0.262 C  
HETATM   12  N   UNL     1     -11.535  14.193  66.988  1.00  0.00    -0.335 N  
HETATM   13  C   UNL     1     -11.721  12.839  67.160  1.00  0.00    -0.380 C  
HETATM   14  H   UNL     1     -12.127  14.721  66.347  1.00  0.00     0.000 HD 
HETATM   15  N   UNL     1     -11.178  12.265  68.326  1.00  0.00    -0.245 N  
HETATM   16  O   UNL     1     -12.354  12.195  66.332  1.00  0.00    -0.489 OA 
HETATM   17  F   UNL     1      -8.612  14.726  69.048  1.00  0.00    -0.166 F  
HETATM   18  C   UNL     1     -10.046  12.844  68.886  1.00  0.00     0.060 C  
HETATM   19  C   UNL     1      -9.675  14.078  68.545  1.00  0.00    -0.215 C  
BRANCH  15  20
HETATM   20  C   UNL     1     -11.603  10.919  68.735  1.00  0.00    -0.309 C  
HETATM   21  C   UNL     1     -12.742  11.073  70.782  1.00  0.00    -0.323 C  
HETATM   22  O   UNL     1     -12.899  10.951  69.367  1.00  0.00    -0.201 OA 
HETATM   23  C   UNL     1     -12.707  12.543  71.183  1.00  0.00    -0.340 C  
HETATM   24  C   UNL     1     -11.467  10.304  71.109  1.00  0.00    -0.237 C  
HETATM   25  O   UNL     1     -11.746   8.963  71.542  1.00  0.00    -0.281 OA 
HETATM   26  C   UNL     1     -10.689  10.248  69.787  1.00  0.00    -0.285 C  
HETATM   27  H   UNL     1     -10.951   8.484  71.746  1.00  0.00     0.000 HD 
HETATM   28  O   UNL     1     -10.387   8.901  69.392  1.00  0.00    -0.204 OA 
HETATM   29  H   UNL     1      -9.826   8.489  70.039  1.00  0.00     0.000 HD 
ENDBRANCH  15  20
ENDBRANCH   9  11
ENDBRANCH   6   7
ENDBRANCH   5   6
ENDBRANCH   4   5
ENDBRANCH   3   4
ENDBRANCH   2   3
TORSDOF 7
ENDMDL
MODEL       68
REMARK 921   NORMALIZED FREE ENERGY PREDICTED BY IDOCK:   -4.98 KCAL/MOL
REMARK 922        TOTAL FREE ENERGY PREDICTED BY IDOCK:   -8.11 KCAL/MOL
REMARK 923 INTER-LIGAND FREE ENERGY PREDICTED BY IDOCK:   -8.38 KCAL/MOL
REMARK 924 INTRA-LIGAND FREE ENERGY PREDICTED BY IDOCK:    0.26 KCAL/MOL
REMARK 927      BINDING AFFINITY PREDICTED BY RF-SCORE:    0.00 PKD
ROOT
HETATM    1  C   UNL     1     -11.210   5.050  73.084  1.00  0.00    -0.408 C  
HETATM    2  C   UNL     1     -11.072   6.076  71.965  1.00  0.00    -0.325 C  
ENDROOT
BRANCH   2   3
HETATM    3  C   UNL     1     -11.465   7.466  72.454  1.00  0.00    -0.343 C  
BRANCH   3   4
HETATM    4  C   UNL     1     -10.376   8.522  72.230  1.00  0.00    -0.402 C  
BRANCH   4   5
HETATM    5  C   UNL     1      -9.968   8.499  70.759  1.00  0.00    -0.191 C  
BRANCH   5   6
HETATM    6  O   UNL     1      -8.595   8.839  70.532  1.00  0.00    -0.138 OA 
BRANCH   6   7
HETATM    7  C   UNL     1      -8.433   9.900  69.702  1.00  0.00    -0.187 C  
HETATM    8  O   UNL     1      -7.433  10.092  69.031  1.00  0.00    -0.076 OA 
HETATM    9  N   UNL     1      -9.545  10.699  69.777  1.00  0.00    -0.407 N  
HETATM   10  H   UNL     1     -10.149  10.581  70.591  1.00  0.00     0.000 HD 
BRANCH   9  11
HETATM   11  C   UNL     1      -9.915  11.643  68.851  1.00  0.00    -0.066 C  
HETATM   12  N   UNL     1      -9.137  12.607  68.508  1.00  0.00    -0.370 N  
HETATM   13  C   UNL     1      -9.603  13.551  67.620  1.00  0.00    -0.222 C  
HETATM   14  H   UNL     1      -8.193  12.672  68.886  1.00  0.00     0.000 HD 
HETATM   15  N   UNL     1     -11.000  13.646  67.466  1.00  0.00    -0.264 N  
HETATM   16  O   UNL     1      -8.816  14.278  67.025  1.00  0.00    -0.214 OA 
HETATM   17  F   UNL     1     -11.936  10.318  68.566  1.00  0.00    -0.198 F  
HETATM   18  C   UNL     1     -11.770  12.507  67.669  1.00  0.00    -0.361 C  
HETATM   19  C   UNL     1     -11.263  11.451  68.306  1.00  0.00    -0.263 C  
BRANCH  15  20
HETATM   20  C   UNL     1     -11.577  14.822  66.798  1.00  0.00    -0.324 C  
HETATM   21  C   UNL     1     -12.265  14.207  64.639  1.00  0.00    -0.445 C  
HETATM   22  O   UNL     1     -12.703  14.455  65.977  1.00  0.00    -0.360 OA 
HETATM   23  C   UNL     1     -11.891  12.739  64.472  1.00  0.00    -0.436 C  
HETATM   24  C   UNL     1     -11.110  15.176  64.413  1.00  0.00    -0.107 C  
HETATM   25  O   UNL     1     -11.540  16.375  63.746  1.00  0.00    -1.605 OA 
HETATM   26  C   UNL     1     -10.618  15.540  65.820  1.00  0.00    -0.356 C  
HETATM   27  H   UNL     1     -10.821  16.979  63.605  1.00  0.00     0.000 HD 
HETATM   28  O   UNL     1     -10.642  16.956  66.054  1.00  0.00    -0.304 OA 
HETATM   29  H   UNL     1     -10.053  17.397  65.453  1.00  0.00     0.000 HD 
ENDBRANCH  15  20
ENDBRANCH   9  11
ENDBRANCH   6   7
ENDBRANCH   5   6
ENDBRANCH   4   5
ENDBRANCH   3   4
ENDBRANCH   2   3
TORSDOF 7
ENDMDL
MODEL       69
REMARK 921   NORMALIZED FREE ENERGY PREDICTED BY IDOCK:   -4.97 KCAL/MOL
REMARK 922        TOTAL FREE ENERGY PREDICTED BY IDOCK:   -8.11 KCAL/MOL
REMARK 923 INTER-LIGAND FREE ENERGY PREDICTED BY IDOCK:   -7.15 KCAL/MOL
REMARK 924 INTRA-LIGAND FREE ENERGY PREDICTED BY IDOCK:   -0.95 KCAL/MOL
REMARK 927      BINDING AFFINITY PREDICTED BY RF-SCORE:    0.00 PKD
ROOT
HETATM    1  C   UNL     1     -12.381  15.359  73.956  1.00  0.00    -0.792 C  
HETATM    2  C   UNL     1     -12.707  15.950  72.590  1.00  0.00    -0.554 C  
ENDROOT
BRANCH   2   3
HETATM    3  C   UNL     1     -13.164  14.862  71.625  1.00  0.00    -0.444 C  
BRANCH   3   4
HETATM    4  C   UNL     1     -13.800  13.654  72.324  1.00  0.00    -0.689 C  
BRANCH   4   5
HETATM    5  C   UNL     1     -13.250  12.378  71.690  1.00  0.00    -0.269 C  
BRANCH   5   6
HETATM    6  O   UNL     1     -12.646  12.583  70.407  1.00  0.00    -0.157 OA 
BRANCH   6   7
HETATM    7  C   UNL     1     -12.149  11.445  69.858  1.00  0.00    -0.330 C  
HETATM    8  O   UNL     1     -12.343  11.107  68.702  1.00  0.00    -0.549 OA 
HETATM    9  N   UNL     1     -11.443  10.761  70.814  1.00  0.00    -0.387 N  
HETATM   10  H   UNL     1     -11.624  11.001  71.788  1.00  0.00     0.000 HD 
BRANCH   9  11
HETATM   11  C   UNL     1     -10.512   9.780  70.570  1.00  0.00    -0.301 C  
HETATM   12  N   UNL     1      -9.441  10.005  69.897  1.00  0.00    -0.343 N  
HETATM   13  C   UNL     1      -8.586   8.956  69.640  1.00  0.00    -0.131 C  
HETATM   14  H   UNL     1      -9.227  10.943  69.559  1.00  0.00     0.000 HD 
HETATM   15  N   UNL     1      -9.119   7.657  69.757  1.00  0.00    -0.147 N  
HETATM   16  O   UNL     1      -7.428   9.174  69.302  1.00  0.00    -0.072 OA 
HETATM   17  F   UNL     1     -11.891   8.364  71.988  1.00  0.00    -0.314 F  
HETATM   18  C   UNL     1     -10.161   7.446  70.652  1.00  0.00    -0.199 C  
HETATM   19  C   UNL     1     -10.857   8.473  71.138  1.00  0.00    -0.243 C  
BRANCH  15  20
HETATM   20  C   UNL     1      -8.379   6.518  69.195  1.00  0.00    -0.119 C  
HETATM   21  C   UNL     1      -9.626   5.601  67.430  1.00  0.00    -0.118 C  
HETATM   22  O   UNL     1      -8.529   6.455  67.763  1.00  0.00    -0.117 OA 
HETATM   23  C   UNL     1     -10.916   6.408  67.351  1.00  0.00    -0.463 C  
HETATM   24  C   UNL     1      -9.629   4.520  68.505  1.00  0.00    -0.149 C  
HETATM   25  O   UNL     1      -8.944   3.333  68.072  1.00  0.00    -0.116 OA 
HETATM   26  C   UNL     1      -8.864   5.133  69.685  1.00  0.00    -0.102 C  
HETATM   27  H   UNL     1      -8.946   2.659  68.742  1.00  0.00     0.000 HD 
HETATM   28  O   UNL     1      -7.742   4.329  70.081  1.00  0.00    -0.052 OA 
HETATM   29  H   UNL     1      -8.040   3.478  70.381  1.00  0.00     0.000 HD 
ENDBRANCH  15  20
ENDBRANCH   9  11
ENDBRANCH   6   7
ENDBRANCH   5   6
ENDBRANCH   4   5
ENDBRANCH   3   4
ENDBRANCH   2   3
TORSDOF 7
ENDMDL
MODEL       70
REMARK 921   NORMALIZED FREE ENERGY PREDICTED BY IDOCK:   -4.97 KCAL/MOL
REMARK 922        TOTAL FREE ENERGY PREDICTED BY IDOCK:   -8.10 KCAL/MOL
REMARK 923 INTER-LIGAND FREE ENERGY PREDICTED BY IDOCK:   -7.33 KCAL/MOL
REMARK 924 INTRA-LIGAND FREE ENERGY PREDICTED BY IDOCK:   -0.77 KCAL/MOL
REMARK 927      BINDING AFFINITY PREDICTED BY RF-SCORE:    0.00 PKD
ROOT
HETATM    1  C   UNL     1     -11.767   6.075  72.532  1.00  0.00    -0.280 C  
HETATM    2  C   UNL     1     -12.465   6.743  71.353  1.00  0.00    -0.379 C  
ENDROOT
BRANCH   2   3
HETATM    3  C   UNL     1     -13.178   8.015  71.797  1.00  0.00    -0.367 C  
BRANCH   3   4
HETATM    4  C   UNL     1     -12.226   9.183  72.078  1.00  0.00    -0.443 C  
BRANCH   4   5
HETATM    5  C   UNL     1     -11.636   9.661  70.753  1.00  0.00    -0.321 C  
BRANCH   5   6
HETATM    6  O   UNL     1     -10.394   9.033  70.411  1.00  0.00    -0.191 OA 
BRANCH   6   7
HETATM    7  C   UNL     1      -9.552   9.845  69.724  1.00  0.00    -0.231 C  
HETATM    8  O   UNL     1      -8.406   9.546  69.433  1.00  0.00    -0.119 OA 
HETATM    9  N   UNL     1     -10.193  11.027  69.454  1.00  0.00    -0.418 N  
HETATM   10  H   UNL     1     -11.016  11.249  70.014  1.00  0.00     0.000 HD 
BRANCH   9  11
HETATM   11  C   UNL     1      -9.822  11.937  68.494  1.00  0.00    -0.183 C  
HETATM   12  N   UNL     1      -8.662  12.492  68.488  1.00  0.00    -0.349 N  
HETATM   13  C   UNL     1      -8.386  13.442  67.531  1.00  0.00    -0.190 C  
HETATM   14  H   UNL     1      -7.960  12.234  69.181  1.00  0.00     0.000 HD 
HETATM   15  N   UNL     1      -9.489  14.043  66.892  1.00  0.00    -0.255 N  
HETATM   16  O   UNL     1      -7.225  13.748  67.284  1.00  0.00    -0.136 OA 
HETATM   17  F   UNL     1     -11.968  11.454  67.456  1.00  0.00    -0.305 F  
HETATM   18  C   UNL     1     -10.662  13.308  66.763  1.00  0.00    -0.276 C  
HETATM   19  C   UNL     1     -10.861  12.214  67.497  1.00  0.00    -0.243 C  
BRANCH  15  20
HETATM   20  C   UNL     1      -9.292  15.271  66.109  1.00  0.00    -0.325 C  
HETATM   21  C   UNL     1      -9.471  17.121  67.542  1.00  0.00    -0.247 C  
HETATM   22  O   UNL     1      -8.558  16.257  66.862  1.00  0.00    -0.181 OA 
HETATM   23  C   UNL     1      -9.792  16.564  68.924  1.00  0.00    -0.260 C  
HETATM   24  C   UNL     1     -10.676  17.234  66.617  1.00  0.00    -0.080 C  
HETATM   25  O   UNL     1     -10.615  18.414  65.798  1.00  0.00    -0.570 OA 
HETATM   26  C   UNL     1     -10.598  15.997  65.713  1.00  0.00    -0.353 C  
HETATM   27  H   UNL     1     -11.367  18.484  65.221  1.00  0.00     0.000 HD 
HETATM   28  O   UNL     1     -10.568  16.344  64.320  1.00  0.00    -0.627 OA 
HETATM   29  H   UNL     1     -11.371  16.790  64.077  1.00  0.00     0.000 HD 
ENDBRANCH  15  20
ENDBRANCH   9  11
ENDBRANCH   6   7
ENDBRANCH   5   6
ENDBRANCH   4   5
ENDBRANCH   3   4
ENDBRANCH   2   3
TORSDOF 7
ENDMDL
MODEL       71
REMARK 921   NORMALIZED FREE ENERGY PREDICTED BY IDOCK:   -4.96 KCAL/MOL
REMARK 922        TOTAL FREE ENERGY PREDICTED BY IDOCK:   -8.09 KCAL/MOL
REMARK 923 INTER-LIGAND FREE ENERGY PREDICTED BY IDOCK:   -7.14 KCAL/MOL
REMARK 924 INTRA-LIGAND FREE ENERGY PREDICTED BY IDOCK:   -0.95 KCAL/MOL
REMARK 927      BINDING AFFINITY PREDICTED BY RF-SCORE:    0.00 PKD
ROOT
HETATM    1  C   UNL     1     -10.018  10.878  63.566  1.00  0.00    -0.419 C  
HETATM    2  C   UNL     1     -11.112  11.937  63.490  1.00  0.00    -0.506 C  
ENDROOT
BRANCH   2   3
HETATM    3  C   UNL     1     -10.686  13.207  64.217  1.00  0.00    -0.431 C  
BRANCH   3   4
HETATM    4  C   UNL     1     -11.859  13.985  64.826  1.00  0.00    -0.415 C  
BRANCH   4   5
HETATM    5  C   UNL     1     -11.959  13.635  66.309  1.00  0.00    -0.423 C  
BRANCH   5   6
HETATM    6  O   UNL     1     -10.716  13.224  66.892  1.00  0.00    -0.269 OA 
BRANCH   6   7
HETATM    7  C   UNL     1     -10.853  12.231  67.807  1.00  0.00    -0.221 C  
HETATM    8  O   UNL     1     -11.636  12.272  68.742  1.00  0.00    -0.281 OA 
HETATM    9  N   UNL     1      -9.964  11.229  67.515  1.00  0.00    -0.180 N  
HETATM   10  H   UNL     1      -9.180  11.464  66.907  1.00  0.00     0.000 HD 
BRANCH   9  11
HETATM   11  C   UNL     1     -10.040   9.935  67.970  1.00  0.00    -0.171 C  
HETATM   12  N   UNL     1     -10.726   9.034  67.361  1.00  0.00    -0.411 N  
HETATM   13  C   UNL     1     -10.806   7.775  67.913  1.00  0.00    -0.010 C  
HETATM   14  H   UNL     1     -11.201   9.247  66.485  1.00  0.00     0.000 HD 
HETATM   15  N   UNL     1     -10.497   7.659  69.283  1.00  0.00    -0.218 N  
HETATM   16  O   UNL     1     -11.157   6.823  67.227  1.00  0.00    -0.358 OA 
HETATM   17  F   UNL     1      -8.440  10.623  69.668  1.00  0.00    -0.151 F  
HETATM   18  C   UNL     1      -9.594   8.559  69.838  1.00  0.00    -0.171 C  
HETATM   19  C   UNL     1      -9.283   9.687  69.201  1.00  0.00    -0.168 C  
BRANCH  15  20
HETATM   20  C   UNL     1     -10.866   6.435  70.008  1.00  0.00    -0.307 C  
HETATM   21  C   UNL     1     -12.458   6.974  71.647  1.00  0.00    -0.374 C  
HETATM   22  O   UNL     1     -12.269   6.429  70.340  1.00  0.00    -0.224 OA 
HETATM   23  C   UNL     1     -12.666   8.482  71.563  1.00  0.00    -0.340 C  
HETATM   24  C   UNL     1     -11.221   6.557  72.434  1.00  0.00    -0.275 C  
HETATM   25  O   UNL     1     -11.455   5.368  73.208  1.00  0.00    -0.480 OA 
HETATM   26  C   UNL     1     -10.157   6.257  71.371  1.00  0.00    -0.191 C  
HETATM   27  H   UNL     1     -10.684   5.108  73.699  1.00  0.00     0.000 HD 
HETATM   28  O   UNL     1      -9.636   4.924  71.485  1.00  0.00    -0.148 OA 
HETATM   29  H   UNL     1      -9.200   4.814  72.323  1.00  0.00     0.000 HD 
ENDBRANCH  15  20
ENDBRANCH   9  11
ENDBRANCH   6   7
ENDBRANCH   5   6
ENDBRANCH   4   5
ENDBRANCH   3   4
ENDBRANCH   2   3
TORSDOF 7
ENDMDL
MODEL       72
REMARK 921   NORMALIZED FREE ENERGY PREDICTED BY IDOCK:   -4.96 KCAL/MOL
REMARK 922        TOTAL FREE ENERGY PREDICTED BY IDOCK:   -8.09 KCAL/MOL
REMARK 923 INTER-LIGAND FREE ENERGY PREDICTED BY IDOCK:   -7.26 KCAL/MOL
REMARK 924 INTRA-LIGAND FREE ENERGY PREDICTED BY IDOCK:   -0.83 KCAL/MOL
REMARK 927      BINDING AFFINITY PREDICTED BY RF-SCORE:    0.00 PKD
ROOT
HETATM    1  C   UNL     1      -6.360  19.901  66.904  1.00  0.00    -0.204 C  
HETATM    2  C   UNL     1      -7.763  20.490  66.809  1.00  0.00    -0.279 C  
ENDROOT
BRANCH   2   3
HETATM    3  C   UNL     1      -8.752  19.451  66.293  1.00  0.00    -0.364 C  
BRANCH   3   4
HETATM    4  C   UNL     1     -10.056  19.398  67.097  1.00  0.00    -0.490 C  
BRANCH   4   5
HETATM    5  C   UNL     1      -9.926  18.317  68.168  1.00  0.00    -0.360 C  
BRANCH   5   6
HETATM    6  O   UNL     1     -11.021  17.394  68.196  1.00  0.00    -0.334 OA 
BRANCH   6   7
HETATM    7  C   UNL     1     -10.647  16.108  67.974  1.00  0.00    -0.304 C  
HETATM    8  O   UNL     1      -9.504  15.767  67.720  1.00  0.00    -0.210 OA 
HETATM    9  N   UNL     1     -11.753  15.301  68.056  1.00  0.00    -0.405 N  
HETATM   10  H   UNL     1     -12.665  15.750  67.967  1.00  0.00     0.000 HD 
BRANCH   9  11
HETATM   11  C   UNL     1     -11.738  13.941  68.248  1.00  0.00    -0.361 C  
HETATM   12  N   UNL     1     -11.748  13.415  69.421  1.00  0.00    -0.307 N  
HETATM   13  C   UNL     1     -11.666  12.045  69.535  1.00  0.00    -0.342 C  
HETATM   14  H   UNL     1     -11.815  14.002  70.253  1.00  0.00     0.000 HD 
HETATM   15  N   UNL     1     -11.167  11.342  68.421  1.00  0.00    -0.238 N  
HETATM   16  O   UNL     1     -11.997  11.494  70.578  1.00  0.00    -0.359 OA 
HETATM   17  F   UNL     1     -11.890  13.773  65.826  1.00  0.00    -0.324 F  
HETATM   18  C   UNL     1     -11.360  11.882  67.154  1.00  0.00    -0.331 C  
HETATM   19  C   UNL     1     -11.702  13.161  67.007  1.00  0.00    -0.377 C  
BRANCH  15  20
HETATM   20  C   UNL     1     -10.751   9.941  68.576  1.00  0.00    -0.226 C  
HETATM   21  C   UNL     1      -8.406   9.839  68.564  1.00  0.00    -0.110 C  
HETATM   22  O   UNL     1      -9.570   9.835  69.394  1.00  0.00    -0.182 OA 
HETATM   23  C   UNL     1      -7.916  11.267  68.353  1.00  0.00    -0.140 C  
HETATM   24  C   UNL     1      -8.828   9.126  67.285  1.00  0.00    -0.124 C  
HETATM   25  O   UNL     1      -8.463   7.737  67.301  1.00  0.00    -0.116 OA 
HETATM   26  C   UNL     1     -10.358   9.238  67.256  1.00  0.00    -0.265 C  
HETATM   27  H   UNL     1      -8.725   7.292  66.503  1.00  0.00     0.000 HD 
HETATM   28  O   UNL     1     -10.994   7.954  67.172  1.00  0.00    -0.503 OA 
HETATM   29  H   UNL     1     -10.752   7.521  66.361  1.00  0.00     0.000 HD 
ENDBRANCH  15  20
ENDBRANCH   9  11
ENDBRANCH   6   7
ENDBRANCH   5   6
ENDBRANCH   4   5
ENDBRANCH   3   4
ENDBRANCH   2   3
TORSDOF 7
ENDMDL
MODEL       73
REMARK 921   NORMALIZED FREE ENERGY PREDICTED BY IDOCK:   -4.95 KCAL/MOL
REMARK 922        TOTAL FREE ENERGY PREDICTED BY IDOCK:   -8.07 KCAL/MOL
REMARK 923 INTER-LIGAND FREE ENERGY PREDICTED BY IDOCK:   -6.67 KCAL/MOL
REMARK 924 INTRA-LIGAND FREE ENERGY PREDICTED BY IDOCK:   -1.41 KCAL/MOL
REMARK 927      BINDING AFFINITY PREDICTED BY RF-SCORE:    0.00 PKD
ROOT
HETATM    1  C   UNL     1     -11.306  12.788  68.747  1.00  0.00    -0.332 C  
HETATM    2  C   UNL     1     -11.765  13.408  67.432  1.00  0.00    -0.415 C  
ENDROOT
BRANCH   2   3
HETATM    3  C   UNL     1     -10.585  14.007  66.676  1.00  0.00    -0.274 C  
BRANCH   3   4
HETATM    4  C   UNL     1     -10.687  13.844  65.155  1.00  0.00    -0.371 C  
BRANCH   4   5
HETATM    5  C   UNL     1     -10.932  12.370  64.838  1.00  0.00    -0.302 C  
BRANCH   5   6
HETATM    6  O   UNL     1      -9.741  11.642  64.509  1.00  0.00    -0.236 OA 
BRANCH   6   7
HETATM    7  C   UNL     1      -9.742  10.369  64.977  1.00  0.00    -0.300 C  
HETATM    8  O   UNL     1      -9.254   9.424  64.380  1.00  0.00    -0.202 OA 
HETATM    9  N   UNL     1     -10.393  10.338  66.184  1.00  0.00    -0.215 N  
HETATM   10  H   UNL     1     -11.005  11.124  66.403  1.00  0.00     0.000 HD 
BRANCH   9  11
HETATM   11  C   UNL     1     -10.292   9.339  67.121  1.00  0.00    -0.260 C  
HETATM   12  N   UNL     1     -10.931   8.229  67.011  1.00  0.00    -0.328 N  
HETATM   13  C   UNL     1     -10.829   7.301  68.023  1.00  0.00    -0.095 C  
HETATM   14  H   UNL     1     -11.502   8.038  66.188  1.00  0.00     0.000 HD 
HETATM   15  N   UNL     1     -10.388   7.771  69.276  1.00  0.00    -0.216 N  
HETATM   16  O   UNL     1     -11.138   6.133  67.821  1.00  0.00    -0.326 OA 
HETATM   17  F   UNL     1      -8.627  10.753  68.193  1.00  0.00    -0.116 F  
HETATM   18  C   UNL     1      -9.538   8.871  69.311  1.00  0.00    -0.162 C  
HETATM   19  C   UNL     1      -9.406   9.659  68.245  1.00  0.00    -0.133 C  
BRANCH  15  20
HETATM   20  C   UNL     1     -10.559   6.927  70.467  1.00  0.00    -0.220 C  
HETATM   21  C   UNL     1     -12.248   7.849  71.812  1.00  0.00    -0.310 C  
HETATM   22  O   UNL     1     -11.947   6.839  70.847  1.00  0.00    -0.363 OA 
HETATM   23  C   UNL     1     -12.705   9.124  71.114  1.00  0.00    -0.271 C  
HETATM   24  C   UNL     1     -10.973   8.007  72.633  1.00  0.00    -0.382 C  
HETATM   25  O   UNL     1     -11.018   7.237  73.846  1.00  0.00    -0.533 OA 
HETATM   26  C   UNL     1      -9.855   7.458  71.737  1.00  0.00    -0.167 C  
HETATM   27  H   UNL     1     -10.224   7.336  74.358  1.00  0.00     0.000 HD 
HETATM   28  O   UNL     1      -9.120   6.401  72.373  1.00  0.00    -0.139 OA 
HETATM   29  H   UNL     1      -8.688   6.727  73.154  1.00  0.00     0.000 HD 
ENDBRANCH  15  20
ENDBRANCH   9  11
ENDBRANCH   6   7
ENDBRANCH   5   6
ENDBRANCH   4   5
ENDBRANCH   3   4
ENDBRANCH   2   3
TORSDOF 7
ENDMDL
MODEL       74
REMARK 921   NORMALIZED FREE ENERGY PREDICTED BY IDOCK:   -4.94 KCAL/MOL
REMARK 922        TOTAL FREE ENERGY PREDICTED BY IDOCK:   -8.07 KCAL/MOL
REMARK 923 INTER-LIGAND FREE ENERGY PREDICTED BY IDOCK:   -7.33 KCAL/MOL
REMARK 924 INTRA-LIGAND FREE ENERGY PREDICTED BY IDOCK:   -0.74 KCAL/MOL
REMARK 927      BINDING AFFINITY PREDICTED BY RF-SCORE:    0.00 PKD
ROOT
HETATM    1  C   UNL     1      -6.886  20.888  67.379  1.00  0.00    -0.434 C  
HETATM    2  C   UNL     1      -7.081  20.128  66.072  1.00  0.00    -0.312 C  
ENDROOT
BRANCH   2   3
HETATM    3  C   UNL     1      -8.055  18.970  66.262  1.00  0.00    -0.298 C  
BRANCH   3   4
HETATM    4  C   UNL     1      -9.511  19.419  66.432  1.00  0.00    -0.432 C  
BRANCH   4   5
HETATM    5  C   UNL     1     -10.391  18.178  66.567  1.00  0.00    -0.386 C  
BRANCH   5   6
HETATM    6  O   UNL     1     -10.534  17.434  65.351  1.00  0.00    -0.648 OA 
BRANCH   6   7
HETATM    7  C   UNL     1     -10.678  16.099  65.550  1.00  0.00    -0.342 C  
HETATM    8  O   UNL     1     -11.005  15.312  64.677  1.00  0.00    -0.382 OA 
HETATM    9  N   UNL     1     -10.425  15.815  66.868  1.00  0.00    -0.311 N  
HETATM   10  H   UNL     1     -10.469  16.591  67.528  1.00  0.00     0.000 HD 
BRANCH   9  11
HETATM   11  C   UNL     1     -10.118  14.576  67.374  1.00  0.00    -0.235 C  
HETATM   12  N   UNL     1      -8.905  14.169  67.500  1.00  0.00    -0.190 N  
HETATM   13  C   UNL     1      -8.678  12.889  67.955  1.00  0.00    -0.191 C  
HETATM   14  H   UNL     1      -8.125  14.782  67.266  1.00  0.00     0.000 HD 
HETATM   15  N   UNL     1      -9.751  11.980  67.860  1.00  0.00    -0.189 N  
HETATM   16  O   UNL     1      -7.578  12.578  68.395  1.00  0.00    -0.118 OA 
HETATM   17  F   UNL     1     -12.507  14.337  67.766  1.00  0.00    -0.331 F  
HETATM   18  C   UNL     1     -11.048  12.475  67.923  1.00  0.00    -0.245 C  
HETATM   19  C   UNL     1     -11.288  13.773  67.745  1.00  0.00    -0.303 C  
BRANCH  15  20
HETATM   20  C   UNL     1      -9.496  10.541  68.019  1.00  0.00    -0.148 C  
HETATM   21  C   UNL     1      -8.927   9.636  65.930  1.00  0.00    -0.167 C  
HETATM   22  O   UNL     1      -8.411  10.108  67.176  1.00  0.00    -0.124 OA 
HETATM   23  C   UNL     1      -9.013  10.782  64.928  1.00  0.00    -0.201 C  
HETATM   24  C   UNL     1     -10.270   9.001  66.271  1.00  0.00    -0.167 C  
HETATM   25  O   UNL     1     -10.163   7.578  66.439  1.00  0.00    -0.473 OA 
HETATM   26  C   UNL     1     -10.677   9.631  67.609  1.00  0.00    -0.262 C  
HETATM   27  H   UNL     1     -11.000   7.182  66.651  1.00  0.00     0.000 HD 
HETATM   28  O   UNL     1     -10.914   8.642  68.624  1.00  0.00    -0.440 OA 
HETATM   29  H   UNL     1     -11.639   8.083  68.372  1.00  0.00     0.000 HD 
ENDBRANCH  15  20
ENDBRANCH   9  11
ENDBRANCH   6   7
ENDBRANCH   5   6
ENDBRANCH   4   5
ENDBRANCH   3   4
ENDBRANCH   2   3
TORSDOF 7
ENDMDL
MODEL       75
REMARK 921   NORMALIZED FREE ENERGY PREDICTED BY IDOCK:   -4.91 KCAL/MOL
REMARK 922        TOTAL FREE ENERGY PREDICTED BY IDOCK:   -8.03 KCAL/MOL
REMARK 923 INTER-LIGAND FREE ENERGY PREDICTED BY IDOCK:   -7.07 KCAL/MOL
REMARK 924 INTRA-LIGAND FREE ENERGY PREDICTED BY IDOCK:   -0.96 KCAL/MOL
REMARK 927      BINDING AFFINITY PREDICTED BY RF-SCORE:    0.00 PKD
ROOT
HETATM    1  C   UNL     1      -9.527   2.650  68.415  1.00  0.00    -0.212 C  
HETATM    2  C   UNL     1      -8.985   4.069  68.553  1.00  0.00    -0.162 C  
ENDROOT
BRANCH   2   3
HETATM    3  C   UNL     1      -9.095   4.820  67.231  1.00  0.00    -0.127 C  
BRANCH   3   4
HETATM    4  C   UNL     1     -10.529   5.241  66.885  1.00  0.00    -0.313 C  
BRANCH   4   5
HETATM    5  C   UNL     1     -10.643   6.756  67.037  1.00  0.00    -0.335 C  
BRANCH   5   6
HETATM    6  O   UNL     1      -9.386   7.441  66.971  1.00  0.00    -0.137 OA 
BRANCH   6   7
HETATM    7  C   UNL     1      -9.510   8.792  66.940  1.00  0.00    -0.177 C  
HETATM    8  O   UNL     1      -8.883   9.515  66.184  1.00  0.00    -0.142 OA 
HETATM    9  N   UNL     1     -10.413   9.179  67.897  1.00  0.00    -0.263 N  
HETATM   10  H   UNL     1     -10.616   8.513  68.642  1.00  0.00     0.000 HD 
BRANCH   9  11
HETATM   11  C   UNL     1     -11.066  10.386  67.938  1.00  0.00    -0.299 C  
HETATM   12  N   UNL     1     -11.225  11.115  66.890  1.00  0.00    -0.253 N  
HETATM   13  C   UNL     1     -11.835  12.342  67.022  1.00  0.00    -0.297 C  
HETATM   14  H   UNL     1     -10.905  10.789  65.978  1.00  0.00     0.000 HD 
HETATM   15  N   UNL     1     -11.870  12.901  68.315  1.00  0.00    -0.342 N  
HETATM   16  O   UNL     1     -12.294  12.910  66.038  1.00  0.00    -0.504 OA 
HETATM   17  F   UNL     1     -11.519   9.865  70.270  1.00  0.00    -0.264 F  
HETATM   18  C   UNL     1     -11.889  12.042  69.408  1.00  0.00    -0.324 C  
HETATM   19  C   UNL     1     -11.552  10.761  69.270  1.00  0.00    -0.305 C  
BRANCH  15  20
HETATM   20  C   UNL     1     -12.206  14.322  68.481  1.00  0.00    -0.159 C  
HETATM   21  C   UNL     1     -10.216  15.554  68.670  1.00  0.00    -0.216 C  
HETATM   22  O   UNL     1     -11.267  15.164  67.783  1.00  0.00    -0.304 OA 
HETATM   23  C   UNL     1      -9.078  14.541  68.614  1.00  0.00    -0.187 C  
HETATM   24  C   UNL     1     -10.877  15.678  70.038  1.00  0.00    -0.330 C  
HETATM   25  O   UNL     1     -11.244  17.036  70.334  1.00  0.00    -0.342 OA 
HETATM   26  C   UNL     1     -12.151  14.829  69.941  1.00  0.00    -0.332 C  
HETATM   27  H   UNL     1     -11.655  17.114  71.187  1.00  0.00     0.000 HD 
HETATM   28  O   UNL     1     -13.332  15.586  70.245  1.00  0.00    -0.740 OA 
HETATM   29  H   UNL     1     -13.298  15.898  71.142  1.00  0.00     0.000 HD 
ENDBRANCH  15  20
ENDBRANCH   9  11
ENDBRANCH   6   7
ENDBRANCH   5   6
ENDBRANCH   4   5
ENDBRANCH   3   4
ENDBRANCH   2   3
TORSDOF 7
ENDMDL
MODEL       76
REMARK 921   NORMALIZED FREE ENERGY PREDICTED BY IDOCK:   -4.91 KCAL/MOL
REMARK 922        TOTAL FREE ENERGY PREDICTED BY IDOCK:   -8.02 KCAL/MOL
REMARK 923 INTER-LIGAND FREE ENERGY PREDICTED BY IDOCK:   -7.02 KCAL/MOL
REMARK 924 INTRA-LIGAND FREE ENERGY PREDICTED BY IDOCK:   -1.00 KCAL/MOL
REMARK 927      BINDING AFFINITY PREDICTED BY RF-SCORE:    0.00 PKD
ROOT
HETATM    1  C   UNL     1      -9.542  18.502  68.113  1.00  0.00    -0.353 C  
HETATM    2  C   UNL     1      -9.670  18.218  66.621  1.00  0.00    -0.339 C  
ENDROOT
BRANCH   2   3
HETATM    3  C   UNL     1     -10.093  16.773  66.380  1.00  0.00    -0.327 C  
BRANCH   3   4
HETATM    4  C   UNL     1     -10.903  16.581  65.092  1.00  0.00    -0.247 C  
BRANCH   4   5
HETATM    5  C   UNL     1     -10.981  15.087  64.783  1.00  0.00    -0.373 C  
BRANCH   5   6
HETATM    6  O   UNL     1     -12.289  14.528  64.954  1.00  0.00    -0.419 OA 
BRANCH   6   7
HETATM    7  C   UNL     1     -12.273  13.255  65.424  1.00  0.00    -0.456 C  
HETATM    8  O   UNL     1     -12.940  12.348  64.954  1.00  0.00    -0.762 OA 
HETATM    9  N   UNL     1     -11.425  13.187  66.500  1.00  0.00    -0.322 N  
HETATM   10  H   UNL     1     -11.185  14.065  66.960  1.00  0.00     0.000 HD 
BRANCH   9  11
HETATM   11  C   UNL     1     -10.871  12.039  67.010  1.00  0.00    -0.253 C  
HETATM   12  N   UNL     1     -11.179  10.873  66.564  1.00  0.00    -0.051 N  
HETATM   13  C   UNL     1     -10.631   9.764  67.169  1.00  0.00    -0.229 C  
HETATM   14  H   UNL     1     -11.819  10.771  65.776  1.00  0.00     0.000 HD 
HETATM   15  N   UNL     1     -10.112   9.938  68.467  1.00  0.00    -0.162 N  
HETATM   16  O   UNL     1     -10.630   8.684  66.590  1.00  0.00    -0.240 OA 
HETATM   17  F   UNL     1      -9.501  13.514  68.376  1.00  0.00    -0.200 F  
HETATM   18  C   UNL     1      -9.616  11.188  68.822  1.00  0.00    -0.172 C  
HETATM   19  C   UNL     1      -9.915  12.266  68.099  1.00  0.00    -0.210 C  
BRANCH  15  20
HETATM   20  C   UNL     1      -9.811   8.759  69.291  1.00  0.00    -0.180 C  
HETATM   21  C   UNL     1     -11.243   8.746  71.150  1.00  0.00    -0.277 C  
HETATM   22  O   UNL     1     -11.012   8.195  69.852  1.00  0.00    -0.240 OA 
HETATM   23  C   UNL     1     -12.096  10.005  71.043  1.00  0.00    -0.469 C  
HETATM   24  C   UNL     1      -9.855   8.979  71.736  1.00  0.00    -0.260 C  
HETATM   25  O   UNL     1      -9.442   7.894  72.583  1.00  0.00    -0.177 OA 
HETATM   26  C   UNL     1      -8.920   9.045  70.522  1.00  0.00    -0.213 C  
HETATM   27  H   UNL     1      -8.577   8.039  72.948  1.00  0.00     0.000 HD 
HETATM   28  O   UNL     1      -7.860   8.079  70.600  1.00  0.00    -0.086 OA 
HETATM   29  H   UNL     1      -7.313   8.255  71.356  1.00  0.00     0.000 HD 
ENDBRANCH  15  20
ENDBRANCH   9  11
ENDBRANCH   6   7
ENDBRANCH   5   6
ENDBRANCH   4   5
ENDBRANCH   3   4
ENDBRANCH   2   3
TORSDOF 7
ENDMDL
MODEL       77
REMARK 921   NORMALIZED FREE ENERGY PREDICTED BY IDOCK:   -4.89 KCAL/MOL
REMARK 922        TOTAL FREE ENERGY PREDICTED BY IDOCK:   -7.99 KCAL/MOL
REMARK 923 INTER-LIGAND FREE ENERGY PREDICTED BY IDOCK:   -7.15 KCAL/MOL
REMARK 924 INTRA-LIGAND FREE ENERGY PREDICTED BY IDOCK:   -0.84 KCAL/MOL
REMARK 927      BINDING AFFINITY PREDICTED BY RF-SCORE:    0.00 PKD
ROOT
HETATM    1  C   UNL     1     -10.215  17.084  66.146  1.00  0.00    -0.346 C  
HETATM    2  C   UNL     1     -10.345  16.514  67.554  1.00  0.00    -0.294 C  
ENDROOT
BRANCH   2   3
HETATM    3  C   UNL     1     -10.072  15.014  67.556  1.00  0.00    -0.228 C  
BRANCH   3   4
HETATM    4  C   UNL     1     -11.329  14.164  67.336  1.00  0.00    -0.346 C  
BRANCH   4   5
HETATM    5  C   UNL     1     -11.301  12.989  68.311  1.00  0.00    -0.288 C  
BRANCH   5   6
HETATM    6  O   UNL     1     -11.965  11.816  67.824  1.00  0.00    -0.586 OA 
BRANCH   6   7
HETATM    7  C   UNL     1     -11.486  10.665  68.360  1.00  0.00    -0.259 C  
HETATM    8  O   UNL     1     -10.777   9.877  67.757  1.00  0.00    -0.248 OA 
HETATM    9  N   UNL     1     -11.953  10.543  69.644  1.00  0.00    -0.459 N  
HETATM   10  H   UNL     1     -12.765  11.104  69.900  1.00  0.00     0.000 HD 
BRANCH   9  11
HETATM   11  C   UNL     1     -11.420   9.730  70.615  1.00  0.00    -0.324 C  
HETATM   12  N   UNL     1     -10.155   9.662  70.832  1.00  0.00    -0.310 N  
HETATM   13  C   UNL     1      -9.691   8.777  71.779  1.00  0.00    -0.310 C  
HETATM   14  H   UNL     1      -9.506  10.253  70.313  1.00  0.00     0.000 HD 
HETATM   15  N   UNL     1     -10.555   7.726  72.147  1.00  0.00    -0.225 N  
HETATM   16  O   UNL     1      -8.565   8.907  72.244  1.00  0.00    -0.397 OA 
HETATM   17  F   UNL     1     -13.724   9.225  71.210  1.00  0.00    -0.401 F  
HETATM   18  C   UNL     1     -11.927   7.936  72.066  1.00  0.00    -0.319 C  
HETATM   19  C   UNL     1     -12.417   8.956  71.362  1.00  0.00    -0.304 C  
BRANCH  15  20
HETATM   20  C   UNL     1     -10.022   6.578  72.893  1.00  0.00    -0.174 C  
HETATM   21  C   UNL     1      -9.394   4.907  71.368  1.00  0.00    -0.150 C  
HETATM   22  O   UNL     1      -8.917   5.970  72.195  1.00  0.00    -0.142 OA 
HETATM   23  C   UNL     1      -9.747   5.436  69.983  1.00  0.00    -0.248 C  
HETATM   24  C   UNL     1     -10.573   4.310  72.129  1.00  0.00     0.009 C  
HETATM   25  O   UNL     1     -10.186   3.158  72.896  1.00  0.00    -0.144 OA 
HETATM   26  C   UNL     1     -11.025   5.418  73.089  1.00  0.00    -0.302 C  
HETATM   27  H   UNL     1     -10.921   2.785  73.370  1.00  0.00     0.000 HD 
HETATM   28  O   UNL     1     -11.018   4.985  74.458  1.00  0.00    -0.350 OA 
HETATM   29  H   UNL     1     -11.634   4.272  74.579  1.00  0.00     0.000 HD 
ENDBRANCH  15  20
ENDBRANCH   9  11
ENDBRANCH   6   7
ENDBRANCH   5   6
ENDBRANCH   4   5
ENDBRANCH   3   4
ENDBRANCH   2   3
TORSDOF 7
ENDMDL
MODEL       78
REMARK 921   NORMALIZED FREE ENERGY PREDICTED BY IDOCK:   -4.87 KCAL/MOL
REMARK 922        TOTAL FREE ENERGY PREDICTED BY IDOCK:   -7.96 KCAL/MOL
REMARK 923 INTER-LIGAND FREE ENERGY PREDICTED BY IDOCK:   -7.00 KCAL/MOL
REMARK 924 INTRA-LIGAND FREE ENERGY PREDICTED BY IDOCK:   -0.96 KCAL/MOL
REMARK 927      BINDING AFFINITY PREDICTED BY RF-SCORE:    0.00 PKD
ROOT
HETATM    1  C   UNL     1     -12.358  13.979  65.134  1.00  0.00    -0.468 C  
HETATM    2  C   UNL     1     -12.325  12.470  64.922  1.00  0.00    -0.539 C  
ENDROOT
BRANCH   2   3
HETATM    3  C   UNL     1     -11.845  12.132  63.515  1.00  0.00    -0.597 C  
BRANCH   3   4
HETATM    4  C   UNL     1     -10.536  11.333  63.492  1.00  0.00    -0.457 C  
BRANCH   4   5
HETATM    5  C   UNL     1     -10.251  10.822  64.903  1.00  0.00    -0.320 C  
BRANCH   5   6
HETATM    6  O   UNL     1      -9.577   9.557  64.937  1.00  0.00    -0.246 OA 
BRANCH   6   7
HETATM    7  C   UNL     1      -9.364   9.095  66.194  1.00  0.00    -0.228 C  
HETATM    8  O   UNL     1      -8.330   9.272  66.817  1.00  0.00    -0.120 OA 
HETATM    9  N   UNL     1     -10.469   8.395  66.606  1.00  0.00    -0.349 N  
HETATM   10  H   UNL     1     -11.113   8.073  65.883  1.00  0.00     0.000 HD 
BRANCH   9  11
HETATM   11  C   UNL     1     -10.784   8.091  67.908  1.00  0.00    -0.071 C  
HETATM   12  N   UNL     1     -10.878   8.994  68.818  1.00  0.00    -0.423 N  
HETATM   13  C   UNL     1     -11.134   8.605  70.114  1.00  0.00    -0.192 C  
HETATM   14  H   UNL     1     -10.764   9.980  68.585  1.00  0.00     0.000 HD 
HETATM   15  N   UNL     1     -10.868   7.260  70.440  1.00  0.00    -0.240 N  
HETATM   16  O   UNL     1     -11.549   9.419  70.931  1.00  0.00    -0.277 OA 
HETATM   17  F   UNL     1     -11.068   5.806  67.122  1.00  0.00    -0.327 F  
HETATM   18  C   UNL     1     -10.971   6.302  69.439  1.00  0.00    -0.375 C  
HETATM   19  C   UNL     1     -10.992   6.661  68.156  1.00  0.00    -0.243 C  
BRANCH  15  20
HETATM   20  C   UNL     1     -10.807   6.856  71.852  1.00  0.00    -0.229 C  
HETATM   21  C   UNL     1      -8.609   6.208  72.361  1.00  0.00    -0.119 C  
HETATM   22  O   UNL     1      -9.565   7.266  72.458  1.00  0.00    -0.147 OA 
HETATM   23  C   UNL     1      -7.814   6.334  71.067  1.00  0.00    -0.111 C  
HETATM   24  C   UNL     1      -9.424   4.924  72.472  1.00  0.00    -0.139 C  
HETATM   25  O   UNL     1      -9.432   4.409  73.814  1.00  0.00    -0.115 OA 
HETATM   26  C   UNL     1     -10.852   5.328  72.085  1.00  0.00    -0.188 C  
HETATM   27  H   UNL     1      -9.940   3.609  73.882  1.00  0.00     0.000 HD 
HETATM   28  O   UNL     1     -11.803   5.013  73.115  1.00  0.00    -0.481 OA 
HETATM   29  H   UNL     1     -11.830   4.074  73.258  1.00  0.00     0.000 HD 
ENDBRANCH  15  20
ENDBRANCH   9  11
ENDBRANCH   6   7
ENDBRANCH   5   6
ENDBRANCH   4   5
ENDBRANCH   3   4
ENDBRANCH   2   3
TORSDOF 7
ENDMDL
MODEL       79
REMARK 921   NORMALIZED FREE ENERGY PREDICTED BY IDOCK:   -4.85 KCAL/MOL
REMARK 922        TOTAL FREE ENERGY PREDICTED BY IDOCK:   -7.94 KCAL/MOL
REMARK 923 INTER-LIGAND FREE ENERGY PREDICTED BY IDOCK:   -6.90 KCAL/MOL
REMARK 924 INTRA-LIGAND FREE ENERGY PREDICTED BY IDOCK:   -1.04 KCAL/MOL
REMARK 927      BINDING AFFINITY PREDICTED BY RF-SCORE:    0.00 PKD
ROOT
HETATM    1  C   UNL     1     -12.517  15.435  73.944  1.00  0.00    -0.763 C  
HETATM    2  C   UNL     1     -12.855  15.787  72.499  1.00  0.00    -0.545 C  
ENDROOT
BRANCH   2   3
HETATM    3  C   UNL     1     -12.922  14.531  71.639  1.00  0.00    -0.408 C  
BRANCH   3   4
HETATM    4  C   UNL     1     -13.537  13.327  72.363  1.00  0.00    -0.694 C  
BRANCH   4   5
HETATM    5  C   UNL     1     -13.132  12.054  71.624  1.00  0.00    -0.318 C  
BRANCH   5   6
HETATM    6  O   UNL     1     -13.281  10.859  72.402  1.00  0.00    -0.265 OA 
BRANCH   6   7
HETATM    7  C   UNL     1     -12.924   9.734  71.733  1.00  0.00    -0.438 C  
HETATM    8  O   UNL     1     -13.536   8.681  71.801  1.00  0.00    -0.367 OA 
HETATM    9  N   UNL     1     -11.779   9.982  71.021  1.00  0.00    -0.364 N  
HETATM   10  H   UNL     1     -11.223  10.789  71.300  1.00  0.00     0.000 HD 
BRANCH   9  11
HETATM   11  C   UNL     1     -11.318   9.235  69.964  1.00  0.00    -0.113 C  
HETATM   12  N   UNL     1     -11.246   7.952  70.012  1.00  0.00    -0.429 N  
HETATM   13  C   UNL     1     -10.713   7.277  68.936  1.00  0.00    -0.150 C  
HETATM   14  H   UNL     1     -11.577   7.444  70.831  1.00  0.00     0.000 HD 
HETATM   15  N   UNL     1      -9.913   8.024  68.048  1.00  0.00    -0.172 N  
HETATM   16  O   UNL     1     -10.921   6.078  68.797  1.00  0.00    -0.317 OA 
HETATM   17  F   UNL     1     -11.202  11.342  68.753  1.00  0.00    -0.207 F  
HETATM   18  C   UNL     1     -10.173   9.382  67.903  1.00  0.00    -0.211 C  
HETATM   19  C   UNL     1     -10.917  10.030  68.799  1.00  0.00    -0.202 C  
BRANCH  15  20
HETATM   20  C   UNL     1      -9.060   7.323  67.078  1.00  0.00    -0.135 C  
HETATM   21  C   UNL     1      -6.827   7.467  67.787  1.00  0.00    -0.071 C  
HETATM   22  O   UNL     1      -7.983   6.628  67.737  1.00  0.00    -0.110 OA 
HETATM   23  C   UNL     1      -6.836   8.299  69.065  1.00  0.00    -0.056 C  
HETATM   24  C   UNL     1      -6.877   8.290  66.505  1.00  0.00    -0.067 C  
HETATM   25  O   UNL     1      -6.063   7.716  65.469  1.00  0.00    -0.038 OA 
HETATM   26  C   UNL     1      -8.346   8.248  66.065  1.00  0.00    -0.128 C  
HETATM   27  H   UNL     1      -6.094   8.229  64.669  1.00  0.00     0.000 HD 
HETATM   28  O   UNL     1      -8.499   7.733  64.733  1.00  0.00    -0.336 OA 
HETATM   29  H   UNL     1      -8.059   8.301  64.111  1.00  0.00     0.000 HD 
ENDBRANCH  15  20
ENDBRANCH   9  11
ENDBRANCH   6   7
ENDBRANCH   5   6
ENDBRANCH   4   5
ENDBRANCH   3   4
ENDBRANCH   2   3
TORSDOF 7
ENDMDL
MODEL       80
REMARK 921   NORMALIZED FREE ENERGY PREDICTED BY IDOCK:   -4.85 KCAL/MOL
REMARK 922        TOTAL FREE ENERGY PREDICTED BY IDOCK:   -7.93 KCAL/MOL
REMARK 923 INTER-LIGAND FREE ENERGY PREDICTED BY IDOCK:   -6.74 KCAL/MOL
REMARK 924 INTRA-LIGAND FREE ENERGY PREDICTED BY IDOCK:   -1.19 KCAL/MOL
REMARK 927      BINDING AFFINITY PREDICTED BY RF-SCORE:    0.00 PKD
ROOT
HETATM    1  C   UNL     1      -7.393  14.341  67.693  1.00  0.00    -0.192 C  
HETATM    2  C   UNL     1      -7.394  15.852  67.889  1.00  0.00    -0.148 C  
ENDROOT
BRANCH   2   3
HETATM    3  C   UNL     1      -8.820  16.387  67.960  1.00  0.00    -0.184 C  
BRANCH   3   4
HETATM    4  C   UNL     1      -9.675  16.009  66.744  1.00  0.00    -0.253 C  
BRANCH   4   5
HETATM    5  C   UNL     1     -10.944  15.317  67.237  1.00  0.00    -0.327 C  
BRANCH   5   6
HETATM    6  O   UNL     1     -11.396  15.777  68.516  1.00  0.00    -0.337 OA 
BRANCH   6   7
HETATM    7  C   UNL     1     -11.794  14.774  69.339  1.00  0.00    -0.323 C  
HETATM    8  O   UNL     1     -12.680  14.888  70.170  1.00  0.00    -0.301 OA 
HETATM    9  N   UNL     1     -11.026  13.665  69.094  1.00  0.00    -0.363 N  
HETATM   10  H   UNL     1     -10.142  13.809  68.606  1.00  0.00     0.000 HD 
BRANCH   9  11
HETATM   11  C   UNL     1     -11.345  12.377  69.450  1.00  0.00    -0.220 C  
HETATM   12  N   UNL     1     -11.857  12.090  70.594  1.00  0.00    -0.468 N  
HETATM   13  C   UNL     1     -12.090  10.768  70.903  1.00  0.00    -0.370 C  
HETATM   14  H   UNL     1     -12.085  12.827  71.260  1.00  0.00     0.000 HD 
HETATM   15  N   UNL     1     -11.391   9.805  70.149  1.00  0.00    -0.254 N  
HETATM   16  O   UNL     1     -12.858  10.475  71.812  1.00  0.00    -0.429 OA 
HETATM   17  F   UNL     1     -10.695  11.776  67.184  1.00  0.00    -0.232 F  
HETATM   18  C   UNL     1     -11.032  10.116  68.843  1.00  0.00    -0.223 C  
HETATM   19  C   UNL     1     -11.045  11.379  68.419  1.00  0.00    -0.242 C  
BRANCH  15  20
HETATM   20  C   UNL     1     -11.338   8.414  70.623  1.00  0.00    -0.244 C  
HETATM   21  C   UNL     1      -9.134   7.912  71.256  1.00  0.00    -0.139 C  
HETATM   22  O   UNL     1     -10.430   8.276  71.734  1.00  0.00    -0.224 OA 
HETATM   23  C   UNL     1      -8.310   9.161  70.967  1.00  0.00    -0.205 C  
HETATM   24  C   UNL     1      -9.393   7.036  70.035  1.00  0.00    -0.158 C  
HETATM   25  O   UNL     1      -9.352   5.637  70.361  1.00  0.00    -0.154 OA 
HETATM   26  C   UNL     1     -10.812   7.400  69.581  1.00  0.00    -0.210 C  
HETATM   27  H   UNL     1      -9.513   5.091  69.600  1.00  0.00     0.000 HD 
HETATM   28  O   UNL     1     -11.675   6.254  69.528  1.00  0.00    -0.544 OA 
HETATM   29  H   UNL     1     -11.352   5.631  68.887  1.00  0.00     0.000 HD 
ENDBRANCH  15  20
ENDBRANCH   9  11
ENDBRANCH   6   7
ENDBRANCH   5   6
ENDBRANCH   4   5
ENDBRANCH   3   4
ENDBRANCH   2   3
TORSDOF 7
ENDMDL
MODEL       81
REMARK 921   NORMALIZED FREE ENERGY PREDICTED BY IDOCK:   -4.84 KCAL/MOL
REMARK 922        TOTAL FREE ENERGY PREDICTED BY IDOCK:   -7.93 KCAL/MOL
REMARK 923 INTER-LIGAND FREE ENERGY PREDICTED BY IDOCK:   -7.48 KCAL/MOL
REMARK 924 INTRA-LIGAND FREE ENERGY PREDICTED BY IDOCK:   -0.44 KCAL/MOL
REMARK 927      BINDING AFFINITY PREDICTED BY RF-SCORE:    0.00 PKD
ROOT
HETATM    1  C   UNL     1     -10.539   7.898  73.108  1.00  0.00    -0.342 C  
HETATM    2  C   UNL     1     -10.988   8.724  71.908  1.00  0.00    -0.435 C  
ENDROOT
BRANCH   2   3
HETATM    3  C   UNL     1     -12.507   8.713  71.782  1.00  0.00    -0.397 C  
BRANCH   3   4
HETATM    4  C   UNL     1     -13.173   9.985  72.321  1.00  0.00    -0.401 C  
BRANCH   4   5
HETATM    5  C   UNL     1     -12.770  11.160  71.432  1.00  0.00    -0.418 C  
BRANCH   5   6
HETATM    6  O   UNL     1     -12.885  12.437  72.073  1.00  0.00    -0.275 OA 
BRANCH   6   7
HETATM    7  C   UNL     1     -12.983  13.471  71.200  1.00  0.00    -0.262 C  
HETATM    8  O   UNL     1     -13.847  14.330  71.257  1.00  0.00    -0.329 OA 
HETATM    9  N   UNL     1     -11.989  13.358  70.261  1.00  0.00    -0.456 N  
HETATM   10  H   UNL     1     -11.548  12.444  70.158  1.00  0.00     0.000 HD 
BRANCH   9  11
HETATM   11  C   UNL     1     -11.538  14.369  69.449  1.00  0.00    -0.304 C  
HETATM   12  N   UNL     1     -11.609  14.301  68.167  1.00  0.00    -0.313 N  
HETATM   13  C   UNL     1     -11.078  15.326  67.417  1.00  0.00    -0.326 C  
HETATM   14  H   UNL     1     -12.050  13.501  67.713  1.00  0.00     0.000 HD 
HETATM   15  N   UNL     1     -10.142  16.164  68.056  1.00  0.00    -0.238 N  
HETATM   16  O   UNL     1     -11.404  15.465  66.244  1.00  0.00    -0.232 OA 
HETATM   17  F   UNL     1     -11.111  15.595  71.506  1.00  0.00    -0.389 F  
HETATM   18  C   UNL     1     -10.242  16.344  69.431  1.00  0.00    -0.273 C  
HETATM   19  C   UNL     1     -10.973  15.512  70.172  1.00  0.00    -0.321 C  
BRANCH  15  20
HETATM   20  C   UNL     1      -9.303  17.061  67.249  1.00  0.00    -0.237 C  
HETATM   21  C   UNL     1      -7.152  16.139  67.076  1.00  0.00    -0.213 C  
HETATM   22  O   UNL     1      -8.402  16.315  66.407  1.00  0.00    -0.281 OA 
HETATM   23  C   UNL     1      -7.170  14.852  67.894  1.00  0.00    -0.166 C  
HETATM   24  C   UNL     1      -6.962  17.404  67.905  1.00  0.00    -0.175 C  
HETATM   25  O   UNL     1      -6.139  18.369  67.229  1.00  0.00    -0.159 OA 
HETATM   26  C   UNL     1      -8.373  17.983  68.070  1.00  0.00    -0.260 C  
HETATM   27  H   UNL     1      -6.020  19.157  67.746  1.00  0.00     0.000 HD 
HETATM   28  O   UNL     1      -8.465  19.333  67.589  1.00  0.00    -0.282 OA 
HETATM   29  H   UNL     1      -7.893  19.900  68.094  1.00  0.00     0.000 HD 
ENDBRANCH  15  20
ENDBRANCH   9  11
ENDBRANCH   6   7
ENDBRANCH   5   6
ENDBRANCH   4   5
ENDBRANCH   3   4
ENDBRANCH   2   3
TORSDOF 7
ENDMDL
MODEL       82
REMARK 921   NORMALIZED FREE ENERGY PREDICTED BY IDOCK:   -4.83 KCAL/MOL
REMARK 922        TOTAL FREE ENERGY PREDICTED BY IDOCK:   -7.91 KCAL/MOL
REMARK 923 INTER-LIGAND FREE ENERGY PREDICTED BY IDOCK:   -7.09 KCAL/MOL
REMARK 924 INTRA-LIGAND FREE ENERGY PREDICTED BY IDOCK:   -0.82 KCAL/MOL
REMARK 927      BINDING AFFINITY PREDICTED BY RF-SCORE:    0.00 PKD
ROOT
HETATM    1  C   UNL     1      -6.581  21.095  67.333  1.00  0.00    -0.437 C  
HETATM    2  C   UNL     1      -6.944  20.093  66.242  1.00  0.00    -0.281 C  
ENDROOT
BRANCH   2   3
HETATM    3  C   UNL     1      -8.386  19.624  66.398  1.00  0.00    -0.376 C  
BRANCH   3   4
HETATM    4  C   UNL     1      -9.197  20.463  67.394  1.00  0.00    -0.513 C  
BRANCH   4   5
HETATM    5  C   UNL     1     -10.220  19.556  68.075  1.00  0.00    -0.437 C  
BRANCH   5   6
HETATM    6  O   UNL     1     -10.683  18.481  67.247  1.00  0.00    -0.419 OA 
BRANCH   6   7
HETATM    7  C   UNL     1     -10.605  17.267  67.848  1.00  0.00    -0.384 C  
HETATM    8  O   UNL     1     -10.754  17.091  69.046  1.00  0.00    -0.322 OA 
HETATM    9  N   UNL     1     -10.309  16.319  66.902  1.00  0.00    -0.296 N  
HETATM   10  H   UNL     1      -9.915  16.648  66.021  1.00  0.00     0.000 HD 
BRANCH   9  11
HETATM   11  C   UNL     1     -10.499  14.966  67.041  1.00  0.00    -0.272 C  
HETATM   12  N   UNL     1     -10.737  14.421  68.180  1.00  0.00    -0.232 N  
HETATM   13  C   UNL     1     -10.852  13.050  68.249  1.00  0.00    -0.246 C  
HETATM   14  H   UNL     1     -10.838  14.993  69.019  1.00  0.00     0.000 HD 
HETATM   15  N   UNL     1     -10.304  12.311  67.183  1.00  0.00    -0.217 N  
HETATM   16  O   UNL     1     -11.391  12.526  69.217  1.00  0.00    -0.257 OA 
HETATM   17  F   UNL     1     -10.343  14.873  64.615  1.00  0.00    -0.411 F  
HETATM   18  C   UNL     1     -10.252  12.899  65.925  1.00  0.00    -0.290 C  
HETATM   19  C   UNL     1     -10.400  14.216  65.785  1.00  0.00    -0.325 C  
BRANCH  15  20
HETATM   20  C   UNL     1     -10.102  10.863  67.335  1.00  0.00    -0.191 C  
HETATM   21  C   UNL     1      -7.925  10.480  68.126  1.00  0.00    -0.111 C  
HETATM   22  O   UNL     1      -9.302  10.567  68.498  1.00  0.00    -0.154 OA 
HETATM   23  C   UNL     1      -7.262  11.848  68.238  1.00  0.00    -0.089 C  
HETATM   24  C   UNL     1      -7.929   9.899  66.717  1.00  0.00    -0.116 C  
HETATM   25  O   UNL     1      -7.723   8.477  66.723  1.00  0.00    -0.089 OA 
HETATM   26  C   UNL     1      -9.332  10.196  66.171  1.00  0.00    -0.172 C  
HETATM   27  H   UNL     1      -7.725   8.115  65.844  1.00  0.00     0.000 HD 
HETATM   28  O   UNL     1     -10.012   9.005  65.748  1.00  0.00    -0.451 OA 
HETATM   29  H   UNL     1      -9.539   8.595  65.033  1.00  0.00     0.000 HD 
ENDBRANCH  15  20
ENDBRANCH   9  11
ENDBRANCH   6   7
ENDBRANCH   5   6
ENDBRANCH   4   5
ENDBRANCH   3   4
ENDBRANCH   2   3
TORSDOF 7
ENDMDL
MODEL       83
REMARK 921   NORMALIZED FREE ENERGY PREDICTED BY IDOCK:   -4.83 KCAL/MOL
REMARK 922        TOTAL FREE ENERGY PREDICTED BY IDOCK:   -7.90 KCAL/MOL
REMARK 923 INTER-LIGAND FREE ENERGY PREDICTED BY IDOCK:   -7.07 KCAL/MOL
REMARK 924 INTRA-LIGAND FREE ENERGY PREDICTED BY IDOCK:   -0.83 KCAL/MOL
REMARK 927      BINDING AFFINITY PREDICTED BY RF-SCORE:    0.00 PKD
ROOT
HETATM    1  C   UNL     1     -13.984  15.421  71.618  1.00  0.00    -0.617 C  
HETATM    2  C   UNL     1     -12.484  15.687  71.555  1.00  0.00    -0.499 C  
ENDROOT
BRANCH   2   3
HETATM    3  C   UNL     1     -11.870  15.034  70.323  1.00  0.00    -0.355 C  
BRANCH   3   4
HETATM    4  C   UNL     1     -12.117  15.818  69.028  1.00  0.00    -0.190 C  
BRANCH   4   5
HETATM    5  C   UNL     1     -11.296  15.182  67.909  1.00  0.00    -0.338 C  
BRANCH   5   6
HETATM    6  O   UNL     1     -11.965  14.106  67.239  1.00  0.00    -0.397 OA 
BRANCH   6   7
HETATM    7  C   UNL     1     -11.237  12.961  67.200  1.00  0.00    -0.289 C  
HETATM    8  O   UNL     1     -10.177  12.850  66.609  1.00  0.00    -0.240 OA 
HETATM    9  N   UNL     1     -11.903  11.985  67.897  1.00  0.00    -0.306 N  
HETATM   10  H   UNL     1     -12.898  12.131  68.067  1.00  0.00     0.000 HD 
BRANCH   9  11
HETATM   11  C   UNL     1     -11.345  10.829  68.384  1.00  0.00    -0.302 C  
HETATM   12  N   UNL     1     -11.023   9.848  67.617  1.00  0.00    -0.412 N  
HETATM   13  C   UNL     1     -10.527   8.696  68.186  1.00  0.00    -0.187 C  
HETATM   14  H   UNL     1     -11.132   9.921  66.606  1.00  0.00     0.000 HD 
HETATM   15  N   UNL     1     -10.786   8.500  69.557  1.00  0.00    -0.209 N  
HETATM   16  O   UNL     1      -9.914   7.886  67.502  1.00  0.00    -0.163 OA 
HETATM   17  F   UNL     1     -11.340  11.948  70.544  1.00  0.00    -0.210 F  
HETATM   18  C   UNL     1     -10.937   9.618  70.371  1.00  0.00    -0.299 C  
HETATM   19  C   UNL     1     -11.161  10.818  69.839  1.00  0.00    -0.300 C  
BRANCH  15  20
HETATM   20  C   UNL     1     -10.577   7.172  70.151  1.00  0.00    -0.230 C  
HETATM   21  C   UNL     1     -12.545   6.514  71.249  1.00  0.00    -0.031 C  
HETATM   22  O   UNL     1     -11.769   6.366  70.058  1.00  0.00    -0.429 OA 
HETATM   23  C   UNL     1     -13.528   7.669  71.096  1.00  0.00    -0.186 C  
HETATM   24  C   UNL     1     -11.526   6.703  72.367  1.00  0.00    -0.262 C  
HETATM   25  O   UNL     1     -11.242   5.469  73.046  1.00  0.00    -0.285 OA 
HETATM   26  C   UNL     1     -10.252   7.188  71.663  1.00  0.00    -0.193 C  
HETATM   27  H   UNL     1     -10.607   5.587  73.744  1.00  0.00     0.000 HD 
HETATM   28  O   UNL     1      -9.126   6.341  71.935  1.00  0.00    -0.143 OA 
HETATM   29  H   UNL     1      -8.926   6.350  72.864  1.00  0.00     0.000 HD 
ENDBRANCH  15  20
ENDBRANCH   9  11
ENDBRANCH   6   7
ENDBRANCH   5   6
ENDBRANCH   4   5
ENDBRANCH   3   4
ENDBRANCH   2   3
TORSDOF 7
ENDMDL
MODEL       84
REMARK 921   NORMALIZED FREE ENERGY PREDICTED BY IDOCK:   -4.81 KCAL/MOL
REMARK 922        TOTAL FREE ENERGY PREDICTED BY IDOCK:   -7.89 KCAL/MOL
REMARK 923 INTER-LIGAND FREE ENERGY PREDICTED BY IDOCK:   -6.78 KCAL/MOL
REMARK 924 INTRA-LIGAND FREE ENERGY PREDICTED BY IDOCK:   -1.11 KCAL/MOL
REMARK 927      BINDING AFFINITY PREDICTED BY RF-SCORE:    0.00 PKD
ROOT
HETATM    1  C   UNL     1     -12.010  14.763  64.569  1.00  0.00    -0.451 C  
HETATM    2  C   UNL     1     -12.528  13.553  65.337  1.00  0.00    -0.540 C  
ENDROOT
BRANCH   2   3
HETATM    3  C   UNL     1     -12.864  12.411  64.384  1.00  0.00    -0.344 C  
BRANCH   3   4
HETATM    4  C   UNL     1     -11.732  12.080  63.405  1.00  0.00    -0.519 C  
BRANCH   4   5
HETATM    5  C   UNL     1     -10.553  11.516  64.195  1.00  0.00    -0.363 C  
BRANCH   5   6
HETATM    6  O   UNL     1      -9.973  10.343  63.611  1.00  0.00    -0.294 OA 
BRANCH   6   7
HETATM    7  C   UNL     1      -9.266   9.595  64.496  1.00  0.00    -0.218 C  
HETATM    8  O   UNL     1      -8.139   9.179  64.286  1.00  0.00    -0.131 OA 
HETATM    9  N   UNL     1     -10.034   9.378  65.611  1.00  0.00    -0.410 N  
HETATM   10  H   UNL     1     -11.040   9.517  65.517  1.00  0.00     0.000 HD 
BRANCH   9  11
HETATM   11  C   UNL     1      -9.565   8.990  66.842  1.00  0.00    -0.185 C  
HETATM   12  N   UNL     1      -8.921   7.891  67.013  1.00  0.00    -0.125 N  
HETATM   13  C   UNL     1      -8.537   7.538  68.288  1.00  0.00    -0.124 C  
HETATM   14  H   UNL     1      -8.698   7.290  66.220  1.00  0.00     0.000 HD 
HETATM   15  N   UNL     1      -9.214   8.165  69.353  1.00  0.00    -0.155 N  
HETATM   16  O   UNL     1      -7.662   6.698  68.458  1.00  0.00    -0.101 OA 
HETATM   17  F   UNL     1     -10.373  11.143  67.634  1.00  0.00    -0.193 F  
HETATM   18  C   UNL     1      -9.725   9.443  69.155  1.00  0.00    -0.165 C  
HETATM   19  C   UNL     1      -9.870   9.931  67.924  1.00  0.00    -0.143 C  
BRANCH  15  20
HETATM   20  C   UNL     1      -9.093   7.617  70.711  1.00  0.00    -0.153 C  
HETATM   21  C   UNL     1     -11.096   6.529  71.272  1.00  0.00    -0.273 C  
HETATM   22  O   UNL     1      -9.754   6.340  70.819  1.00  0.00    -0.177 OA 
HETATM   23  C   UNL     1     -12.032   6.714  70.083  1.00  0.00    -0.250 C  
HETATM   24  C   UNL     1     -11.034   7.728  72.211  1.00  0.00    -0.290 C  
HETATM   25  O   UNL     1     -10.929   7.326  73.587  1.00  0.00    -0.540 OA 
HETATM   26  C   UNL     1      -9.755   8.476  71.813  1.00  0.00    -0.267 C  
HETATM   27  H   UNL     1     -10.890   8.073  74.173  1.00  0.00     0.000 HD 
HETATM   28  O   UNL     1      -8.855   8.640  72.920  1.00  0.00    -0.367 OA 
HETATM   29  H   UNL     1      -9.262   9.168  73.597  1.00  0.00     0.000 HD 
ENDBRANCH  15  20
ENDBRANCH   9  11
ENDBRANCH   6   7
ENDBRANCH   5   6
ENDBRANCH   4   5
ENDBRANCH   3   4
ENDBRANCH   2   3
TORSDOF 7
ENDMDL
MODEL       85
REMARK 921   NORMALIZED FREE ENERGY PREDICTED BY IDOCK:   -4.80 KCAL/MOL
REMARK 922        TOTAL FREE ENERGY PREDICTED BY IDOCK:   -7.87 KCAL/MOL
REMARK 923 INTER-LIGAND FREE ENERGY PREDICTED BY IDOCK:   -7.04 KCAL/MOL
REMARK 924 INTRA-LIGAND FREE ENERGY PREDICTED BY IDOCK:   -0.83 KCAL/MOL
REMARK 927      BINDING AFFINITY PREDICTED BY RF-SCORE:    0.00 PKD
ROOT
HETATM    1  C   UNL     1      -7.422  19.741  66.586  1.00  0.00    -0.276 C  
HETATM    2  C   UNL     1      -8.729  20.244  67.187  1.00  0.00    -0.429 C  
ENDROOT
BRANCH   2   3
HETATM    3  C   UNL     1      -9.837  19.211  67.013  1.00  0.00    -0.407 C  
BRANCH   3   4
HETATM    4  C   UNL     1     -10.277  18.558  68.329  1.00  0.00    -0.412 C  
BRANCH   4   5
HETATM    5  C   UNL     1      -9.725  17.135  68.375  1.00  0.00    -0.284 C  
BRANCH   5   6
HETATM    6  O   UNL     1     -10.694  16.150  68.759  1.00  0.00    -0.259 OA 
BRANCH   6   7
HETATM    7  C   UNL     1     -10.241  14.877  68.642  1.00  0.00    -0.236 C  
HETATM    8  O   UNL     1      -9.073  14.554  68.787  1.00  0.00    -0.190 OA 
HETATM    9  N   UNL     1     -11.292  14.057  68.317  1.00  0.00    -0.271 N  
HETATM   10  H   UNL     1     -12.126  14.500  67.933  1.00  0.00     0.000 HD 
BRANCH   9  11
HETATM   11  C   UNL     1     -11.316  12.692  68.465  1.00  0.00    -0.296 C  
HETATM   12  N   UNL     1     -11.126  12.123  69.602  1.00  0.00    -0.474 N  
HETATM   13  C   UNL     1     -11.101  10.747  69.659  1.00  0.00    -0.279 C  
HETATM   14  H   UNL     1     -10.994  12.680  70.446  1.00  0.00     0.000 HD 
HETATM   15  N   UNL     1     -10.872  10.063  68.449  1.00  0.00    -0.237 N  
HETATM   16  O   UNL     1     -11.251  10.173  70.731  1.00  0.00    -0.321 OA 
HETATM   17  F   UNL     1     -11.951  12.625  66.117  1.00  0.00    -0.418 F  
HETATM   18  C   UNL     1     -11.279  10.660  67.261  1.00  0.00    -0.161 C  
HETATM   19  C   UNL     1     -11.571  11.959  67.220  1.00  0.00    -0.293 C  
BRANCH  15  20
HETATM   20  C   UNL     1     -10.515   8.637  68.480  1.00  0.00    -0.172 C  
HETATM   21  C   UNL     1      -8.342   8.381  67.630  1.00  0.00    -0.130 C  
HETATM   22  O   UNL     1      -9.127   8.455  68.822  1.00  0.00    -0.143 OA 
HETATM   23  C   UNL     1      -7.874   9.773  67.221  1.00  0.00    -0.098 C  
HETATM   24  C   UNL     1      -9.238   7.696  66.605  1.00  0.00    -0.170 C  
HETATM   25  O   UNL     1      -8.977   6.285  66.524  1.00  0.00    -0.134 OA 
HETATM   26  C   UNL     1     -10.666   7.908  67.125  1.00  0.00    -0.236 C  
HETATM   27  H   UNL     1      -9.536   5.858  65.885  1.00  0.00     0.000 HD 
HETATM   28  O   UNL     1     -11.367   6.668  67.307  1.00  0.00    -0.716 OA 
HETATM   29  H   UNL     1     -11.460   6.220  66.474  1.00  0.00     0.000 HD 
ENDBRANCH  15  20
ENDBRANCH   9  11
ENDBRANCH   6   7
ENDBRANCH   5   6
ENDBRANCH   4   5
ENDBRANCH   3   4
ENDBRANCH   2   3
TORSDOF 7
ENDMDL
MODEL       86
REMARK 921   NORMALIZED FREE ENERGY PREDICTED BY IDOCK:   -4.80 KCAL/MOL
REMARK 922        TOTAL FREE ENERGY PREDICTED BY IDOCK:   -7.86 KCAL/MOL
REMARK 923 INTER-LIGAND FREE ENERGY PREDICTED BY IDOCK:   -6.90 KCAL/MOL
REMARK 924 INTRA-LIGAND FREE ENERGY PREDICTED BY IDOCK:   -0.96 KCAL/MOL
REMARK 927      BINDING AFFINITY PREDICTED BY RF-SCORE:    0.00 PKD
ROOT
HETATM    1  C   UNL     1     -10.784  14.905  67.959  1.00  0.00    -0.253 C  
HETATM    2  C   UNL     1     -11.088  16.186  68.727  1.00  0.00    -0.354 C  
ENDROOT
BRANCH   2   3
HETATM    3  C   UNL     1     -10.952  15.961  70.229  1.00  0.00    -0.370 C  
BRANCH   3   4
HETATM    4  C   UNL     1     -12.288  15.684  70.928  1.00  0.00    -0.479 C  
BRANCH   4   5
HETATM    5  C   UNL     1     -12.251  14.272  71.509  1.00  0.00    -0.301 C  
BRANCH   5   6
HETATM    6  O   UNL     1     -12.597  13.248  70.567  1.00  0.00    -0.274 OA 
BRANCH   6   7
HETATM    7  C   UNL     1     -12.715  12.019  71.129  1.00  0.00    -0.266 C  
HETATM    8  O   UNL     1     -13.551  11.733  71.970  1.00  0.00    -0.326 OA 
HETATM    9  N   UNL     1     -11.742  11.199  70.617  1.00  0.00    -0.413 N  
HETATM   10  H   UNL     1     -10.943  11.648  70.170  1.00  0.00     0.000 HD 
BRANCH   9  11
HETATM   11  C   UNL     1     -11.752   9.826  70.655  1.00  0.00    -0.300 C  
HETATM   12  N   UNL     1     -12.722   9.163  71.177  1.00  0.00    -0.470 N  
HETATM   13  C   UNL     1     -12.631   7.790  71.235  1.00  0.00    -0.264 C  
HETATM   14  H   UNL     1     -13.544   9.644  71.541  1.00  0.00     0.000 HD 
HETATM   15  N   UNL     1     -11.343   7.231  71.112  1.00  0.00    -0.259 N  
HETATM   16  O   UNL     1     -13.637   7.113  71.412  1.00  0.00    -0.375 OA 
HETATM   17  F   UNL     1      -9.693   9.949  69.365  1.00  0.00    -0.168 F  
HETATM   18  C   UNL     1     -10.390   7.917  70.368  1.00  0.00    -0.212 C  
HETATM   19  C   UNL     1     -10.566   9.201  70.060  1.00  0.00    -0.227 C  
BRANCH  15  20
HETATM   20  C   UNL     1     -11.126   5.825  71.482  1.00  0.00    -0.214 C  
HETATM   21  C   UNL     1     -10.124   5.746  73.604  1.00  0.00    -0.204 C  
HETATM   22  O   UNL     1     -11.355   5.615  72.890  1.00  0.00    -0.289 OA 
HETATM   23  C   UNL     1      -9.917   7.193  74.035  1.00  0.00    -0.314 C  
HETATM   24  C   UNL     1      -9.056   5.216  72.654  1.00  0.00    -0.131 C  
HETATM   25  O   UNL     1      -8.735   3.841  72.922  1.00  0.00    -0.093 OA 
HETATM   26  C   UNL     1      -9.682   5.318  71.258  1.00  0.00    -0.166 C  
HETATM   27  H   UNL     1      -8.069   3.511  72.330  1.00  0.00     0.000 HD 
HETATM   28  O   UNL     1      -9.703   4.053  70.579  1.00  0.00    -0.179 OA 
HETATM   29  H   UNL     1      -8.816   3.741  70.442  1.00  0.00     0.000 HD 
ENDBRANCH  15  20
ENDBRANCH   9  11
ENDBRANCH   6   7
ENDBRANCH   5   6
ENDBRANCH   4   5
ENDBRANCH   3   4
ENDBRANCH   2   3
TORSDOF 7
ENDMDL
MODEL       87
REMARK 921   NORMALIZED FREE ENERGY PREDICTED BY IDOCK:   -4.78 KCAL/MOL
REMARK 922        TOTAL FREE ENERGY PREDICTED BY IDOCK:   -7.83 KCAL/MOL
REMARK 923 INTER-LIGAND FREE ENERGY PREDICTED BY IDOCK:   -8.31 KCAL/MOL
REMARK 924 INTRA-LIGAND FREE ENERGY PREDICTED BY IDOCK:    0.47 KCAL/MOL
REMARK 927      BINDING AFFINITY PREDICTED BY RF-SCORE:    0.00 PKD
ROOT
HETATM    1  C   UNL     1     -14.272   8.761  72.220  1.00  0.00    -0.498 C  
HETATM    2  C   UNL     1     -12.827   9.134  71.909  1.00  0.00    -0.466 C  
ENDROOT
BRANCH   2   3
HETATM    3  C   UNL     1     -12.764  10.172  70.795  1.00  0.00    -0.397 C  
BRANCH   3   4
HETATM    4  C   UNL     1     -11.338  10.464  70.312  1.00  0.00    -0.406 C  
BRANCH   4   5
HETATM    5  C   UNL     1     -11.358  10.607  68.791  1.00  0.00    -0.277 C  
BRANCH   5   6
HETATM    6  O   UNL     1     -12.364  11.506  68.307  1.00  0.00    -0.468 OA 
BRANCH   6   7
HETATM    7  C   UNL     1     -11.863  12.519  67.555  1.00  0.00    -0.323 C  
HETATM    8  O   UNL     1     -12.240  12.775  66.423  1.00  0.00    -0.507 OA 
HETATM    9  N   UNL     1     -10.876  13.155  68.263  1.00  0.00    -0.244 N  
HETATM   10  H   UNL     1     -10.466  12.649  69.048  1.00  0.00     0.000 HD 
BRANCH   9  11
HETATM   11  C   UNL     1     -10.392  14.414  68.005  1.00  0.00    -0.227 C  
HETATM   12  N   UNL     1     -10.805  15.450  68.645  1.00  0.00    -0.249 N  
HETATM   13  C   UNL     1     -10.319  16.688  68.286  1.00  0.00    -0.304 C  
HETATM   14  H   UNL     1     -11.479  15.357  69.404  1.00  0.00     0.000 HD 
HETATM   15  N   UNL     1      -9.740  16.799  67.007  1.00  0.00    -0.244 N  
HETATM   16  O   UNL     1     -10.423  17.636  69.056  1.00  0.00    -0.342 OA 
HETATM   17  F   UNL     1      -8.864  13.321  66.460  1.00  0.00    -0.210 F  
HETATM   18  C   UNL     1      -9.138  15.676  66.451  1.00  0.00    -0.320 C  
HETATM   19  C   UNL     1      -9.381  14.462  66.944  1.00  0.00    -0.256 C  
BRANCH  15  20
HETATM   20  C   UNL     1      -9.498  18.131  66.434  1.00  0.00    -0.278 C  
HETATM   21  C   UNL     1      -7.404  18.901  67.163  1.00  0.00    -0.213 C  
HETATM   22  O   UNL     1      -8.112  18.301  66.077  1.00  0.00    -0.470 OA 
HETATM   23  C   UNL     1      -6.849  17.825  68.088  1.00  0.00    -0.206 C  
HETATM   24  C   UNL     1      -8.409  19.837  67.824  1.00  0.00    -0.306 C  
HETATM   25  O   UNL     1      -8.268  21.190  67.359  1.00  0.00    -0.455 OA 
HETATM   26  C   UNL     1      -9.784  19.306  67.398  1.00  0.00    -0.323 C  
HETATM   27  H   UNL     1      -8.895  21.773  67.771  1.00  0.00     0.000 HD 
HETATM   28  O   UNL     1     -10.572  20.307  66.737  1.00  0.00    -0.318 OA 
HETATM   29  H   UNL     1     -10.747  21.030  67.329  1.00  0.00     0.000 HD 
ENDBRANCH  15  20
ENDBRANCH   9  11
ENDBRANCH   6   7
ENDBRANCH   5   6
ENDBRANCH   4   5
ENDBRANCH   3   4
ENDBRANCH   2   3
TORSDOF 7
ENDMDL
MODEL       88
REMARK 921   NORMALIZED FREE ENERGY PREDICTED BY IDOCK:   -4.78 KCAL/MOL
REMARK 922        TOTAL FREE ENERGY PREDICTED BY IDOCK:   -7.83 KCAL/MOL
REMARK 923 INTER-LIGAND FREE ENERGY PREDICTED BY IDOCK:   -7.00 KCAL/MOL
REMARK 924 INTRA-LIGAND FREE ENERGY PREDICTED BY IDOCK:   -0.83 KCAL/MOL
REMARK 927      BINDING AFFINITY PREDICTED BY RF-SCORE:    0.00 PKD
ROOT
HETATM    1  C   UNL     1      -9.615  16.229  65.885  1.00  0.00    -0.336 C  
HETATM    2  C   UNL     1     -10.726  15.533  65.107  1.00  0.00    -0.460 C  
ENDROOT
BRANCH   2   3
HETATM    3  C   UNL     1     -10.481  14.029  65.044  1.00  0.00    -0.440 C  
BRANCH   3   4
HETATM    4  C   UNL     1     -11.487  13.211  65.863  1.00  0.00    -0.366 C  
BRANCH   4   5
HETATM    5  C   UNL     1     -11.181  13.407  67.347  1.00  0.00    -0.288 C  
BRANCH   5   6
HETATM    6  O   UNL     1     -10.441  12.328  67.933  1.00  0.00    -0.204 OA 
BRANCH   6   7
HETATM    7  C   UNL     1     -11.190  11.539  68.742  1.00  0.00    -0.249 C  
HETATM    8  O   UNL     1     -12.406  11.465  68.684  1.00  0.00    -0.491 OA 
HETATM    9  N   UNL     1     -10.362  10.888  69.622  1.00  0.00    -0.444 N  
HETATM   10  H   UNL     1      -9.428  11.275  69.755  1.00  0.00     0.000 HD 
BRANCH   9  11
HETATM   11  C   UNL     1     -10.684   9.761  70.337  1.00  0.00    -0.308 C  
HETATM   12  N   UNL     1     -11.476   9.795  71.349  1.00  0.00    -0.380 N  
HETATM   13  C   UNL     1     -11.701   8.635  72.056  1.00  0.00    -0.369 C  
HETATM   14  H   UNL     1     -11.930  10.666  71.624  1.00  0.00     0.000 HD 
HETATM   15  N   UNL     1     -10.757   7.601  71.899  1.00  0.00    -0.215 N  
HETATM   16  O   UNL     1     -12.671   8.544  72.799  1.00  0.00    -0.289 OA 
HETATM   17  F   UNL     1      -9.387   8.548  68.675  1.00  0.00    -0.141 F  
HETATM   18  C   UNL     1     -10.067   7.509  70.695  1.00  0.00    -0.187 C  
HETATM   19  C   UNL     1     -10.042   8.537  69.848  1.00  0.00    -0.195 C  
BRANCH  15  20
HETATM   20  C   UNL     1     -10.749   6.477  72.847  1.00  0.00    -0.251 C  
HETATM   21  C   UNL     1      -8.938   6.740  74.318  1.00  0.00    -0.187 C  
HETATM   22  O   UNL     1     -10.349   6.909  74.163  1.00  0.00    -0.373 OA 
HETATM   23  C   UNL     1      -8.205   8.001  73.875  1.00  0.00    -0.306 C  
HETATM   24  C   UNL     1      -8.595   5.498  73.503  1.00  0.00    -0.114 C  
HETATM   25  O   UNL     1      -8.538   4.319  74.323  1.00  0.00    -0.096 OA 
HETATM   26  C   UNL     1      -9.747   5.352  72.501  1.00  0.00    -0.152 C  
HETATM   27  H   UNL     1      -8.324   3.545  73.815  1.00  0.00     0.000 HD 
HETATM   28  O   UNL     1     -10.390   4.072  72.596  1.00  0.00    -0.163 OA 
HETATM   29  H   UNL     1      -9.774   3.380  72.383  1.00  0.00     0.000 HD 
ENDBRANCH  15  20
ENDBRANCH   9  11
ENDBRANCH   6   7
ENDBRANCH   5   6
ENDBRANCH   4   5
ENDBRANCH   3   4
ENDBRANCH   2   3
TORSDOF 7
ENDMDL
MODEL       89
REMARK 921   NORMALIZED FREE ENERGY PREDICTED BY IDOCK:   -4.77 KCAL/MOL
REMARK 922        TOTAL FREE ENERGY PREDICTED BY IDOCK:   -7.82 KCAL/MOL
REMARK 923 INTER-LIGAND FREE ENERGY PREDICTED BY IDOCK:   -6.69 KCAL/MOL
REMARK 924 INTRA-LIGAND FREE ENERGY PREDICTED BY IDOCK:   -1.14 KCAL/MOL
REMARK 927      BINDING AFFINITY PREDICTED BY RF-SCORE:    0.00 PKD
ROOT
HETATM    1  C   UNL     1      -7.211  14.182  67.462  1.00  0.00    -0.188 C  
HETATM    2  C   UNL     1      -8.464  15.036  67.617  1.00  0.00    -0.170 C  
ENDROOT
BRANCH   2   3
HETATM    3  C   UNL     1      -8.701  15.878  66.368  1.00  0.00    -0.362 C  
BRANCH   3   4
HETATM    4  C   UNL     1     -10.115  15.729  65.791  1.00  0.00    -0.399 C  
BRANCH   4   5
HETATM    5  C   UNL     1     -11.033  15.187  66.884  1.00  0.00    -0.323 C  
BRANCH   5   6
HETATM    6  O   UNL     1     -12.030  14.276  66.404  1.00  0.00    -0.402 OA 
BRANCH   6   7
HETATM    7  C   UNL     1     -11.827  12.996  66.807  1.00  0.00    -0.388 C  
HETATM    8  O   UNL     1     -11.967  12.025  66.082  1.00  0.00    -0.581 OA 
HETATM    9  N   UNL     1     -11.480  12.996  68.134  1.00  0.00    -0.297 N  
HETATM   10  H   UNL     1     -11.702  13.832  68.674  1.00  0.00     0.000 HD 
BRANCH   9  11
HETATM   11  C   UNL     1     -10.859  11.966  68.797  1.00  0.00    -0.231 C  
HETATM   12  N   UNL     1      -9.653  11.608  68.530  1.00  0.00    -0.246 N  
HETATM   13  C   UNL     1      -9.120  10.525  69.193  1.00  0.00    -0.166 C  
HETATM   14  H   UNL     1      -9.101  12.116  67.840  1.00  0.00     0.000 HD 
HETATM   15  N   UNL     1     -10.031   9.637  69.799  1.00  0.00    -0.212 N  
HETATM   16  O   UNL     1      -7.907  10.355  69.218  1.00  0.00    -0.122 OA 
HETATM   17  F   UNL     1     -12.864  11.873  70.172  1.00  0.00    -0.117 F  
HETATM   18  C   UNL     1     -11.252  10.136  70.239  1.00  0.00    -0.318 C  
HETATM   19  C   UNL     1     -11.692  11.321  69.818  1.00  0.00    -0.349 C  
BRANCH  15  20
HETATM   20  C   UNL     1      -9.569   8.312  70.237  1.00  0.00    -0.168 C  
HETATM   21  C   UNL     1     -10.001   6.756  68.533  1.00  0.00    -0.149 C  
HETATM   22  O   UNL     1      -8.997   7.572  69.141  1.00  0.00    -0.136 OA 
HETATM   23  C   UNL     1     -10.698   7.525  67.416  1.00  0.00    -0.331 C  
HETATM   24  C   UNL     1     -10.921   6.341  69.675  1.00  0.00    -0.374 C  
HETATM   25  O   UNL     1     -10.583   5.042  70.190  1.00  0.00    -0.236 OA 
HETATM   26  C   UNL     1     -10.686   7.387  70.772  1.00  0.00    -0.232 C  
HETATM   27  H   UNL     1     -11.156   4.783  70.902  1.00  0.00     0.000 HD 
HETATM   28  O   UNL     1     -10.279   6.790  72.013  1.00  0.00    -0.191 OA 
HETATM   29  H   UNL     1     -10.965   6.221  72.343  1.00  0.00     0.000 HD 
ENDBRANCH  15  20
ENDBRANCH   9  11
ENDBRANCH   6   7
ENDBRANCH   5   6
ENDBRANCH   4   5
ENDBRANCH   3   4
ENDBRANCH   2   3
TORSDOF 7
ENDMDL
MODEL       90
REMARK 921   NORMALIZED FREE ENERGY PREDICTED BY IDOCK:   -4.76 KCAL/MOL
REMARK 922        TOTAL FREE ENERGY PREDICTED BY IDOCK:   -7.81 KCAL/MOL
REMARK 923 INTER-LIGAND FREE ENERGY PREDICTED BY IDOCK:   -8.16 KCAL/MOL
REMARK 924 INTRA-LIGAND FREE ENERGY PREDICTED BY IDOCK:    0.34 KCAL/MOL
REMARK 927      BINDING AFFINITY PREDICTED BY RF-SCORE:    0.00 PKD
ROOT
HETATM    1  C   UNL     1     -10.676   6.077  67.757  1.00  0.00    -0.369 C  
HETATM    2  C   UNL     1     -10.642   7.435  67.064  1.00  0.00    -0.414 C  
ENDROOT
BRANCH   2   3
HETATM    3  C   UNL     1      -9.301   8.124  67.292  1.00  0.00    -0.174 C  
BRANCH   3   4
HETATM    4  C   UNL     1      -9.230   9.535  66.697  1.00  0.00    -0.190 C  
BRANCH   4   5
HETATM    5  C   UNL     1     -10.643   9.978  66.323  1.00  0.00    -0.044 C  
BRANCH   5   6
HETATM    6  O   UNL     1     -10.731  10.614  65.042  1.00  0.00    -0.203 OA 
BRANCH   6   7
HETATM    7  C   UNL     1     -11.153  11.902  65.109  1.00  0.00    -0.305 C  
HETATM    8  O   UNL     1     -12.326  12.231  65.164  1.00  0.00    -0.520 OA 
HETATM    9  N   UNL     1     -10.061  12.732  65.075  1.00  0.00    -0.429 N  
HETATM   10  H   UNL     1      -9.189  12.339  64.722  1.00  0.00     0.000 HD 
BRANCH   9  11
HETATM   11  C   UNL     1     -10.043  14.046  65.475  1.00  0.00    -0.320 C  
HETATM   12  N   UNL     1     -10.606  14.978  64.792  1.00  0.00    -0.567 N  
HETATM   13  C   UNL     1     -10.490  16.280  65.224  1.00  0.00    -0.300 C  
HETATM   14  H   UNL     1     -11.129  14.757  63.945  1.00  0.00     0.000 HD 
HETATM   15  N   UNL     1      -9.444  16.561  66.125  1.00  0.00    -0.311 N  
HETATM   16  O   UNL     1     -11.261  17.137  64.809  1.00  0.00    -0.860 OA 
HETATM   17  F   UNL     1      -8.933  13.236  67.483  1.00  0.00    -0.172 F  
HETATM   18  C   UNL     1      -9.009  15.551  66.974  1.00  0.00    -0.226 C  
HETATM   19  C   UNL     1      -9.324  14.279  66.732  1.00  0.00    -0.276 C  
BRANCH  15  20
HETATM   20  C   UNL     1      -9.060  17.958  66.375  1.00  0.00    -0.235 C  
HETATM   21  C   UNL     1      -9.398  18.443  68.646  1.00  0.00    -0.318 C  
HETATM   22  O   UNL     1      -8.423  18.101  67.660  1.00  0.00    -0.240 OA 
HETATM   23  C   UNL     1      -9.977  17.180  69.273  1.00  0.00    -0.151 C  
HETATM   24  C   UNL     1     -10.421  19.303  67.913  1.00  0.00    -0.410 C  
HETATM   25  O   UNL     1     -10.167  20.706  68.091  1.00  0.00    -0.186 OA 
HETATM   26  C   UNL     1     -10.245  18.950  66.431  1.00  0.00    -0.426 C  
HETATM   27  H   UNL     1     -10.805  21.242  67.634  1.00  0.00     0.000 HD 
HETATM   28  O   UNL     1      -9.960  20.106  65.628  1.00  0.00    -0.512 OA 
HETATM   29  H   UNL     1     -10.688  20.715  65.663  1.00  0.00     0.000 HD 
ENDBRANCH  15  20
ENDBRANCH   9  11
ENDBRANCH   6   7
ENDBRANCH   5   6
ENDBRANCH   4   5
ENDBRANCH   3   4
ENDBRANCH   2   3
TORSDOF 7
ENDMDL
MODEL       91
REMARK 921   NORMALIZED FREE ENERGY PREDICTED BY IDOCK:   -4.76 KCAL/MOL
REMARK 922        TOTAL FREE ENERGY PREDICTED BY IDOCK:   -7.81 KCAL/MOL
REMARK 923 INTER-LIGAND FREE ENERGY PREDICTED BY IDOCK:   -7.22 KCAL/MOL
REMARK 924 INTRA-LIGAND FREE ENERGY PREDICTED BY IDOCK:   -0.60 KCAL/MOL
REMARK 927      BINDING AFFINITY PREDICTED BY RF-SCORE:    0.00 PKD
ROOT
HETATM    1  C   UNL     1      -8.825  16.677  68.666  1.00  0.00    -0.249 C  
HETATM    2  C   UNL     1      -9.863  17.128  67.645  1.00  0.00    -0.270 C  
ENDROOT
BRANCH   2   3
HETATM    3  C   UNL     1     -10.720  15.951  67.190  1.00  0.00    -0.301 C  
BRANCH   3   4
HETATM    4  C   UNL     1     -10.467  15.538  65.735  1.00  0.00    -0.378 C  
BRANCH   4   5
HETATM    5  C   UNL     1     -11.574  14.580  65.300  1.00  0.00    -0.359 C  
BRANCH   5   6
HETATM    6  O   UNL     1     -12.214  13.902  66.389  1.00  0.00    -0.435 OA 
BRANCH   6   7
HETATM    7  C   UNL     1     -11.849  12.600  66.501  1.00  0.00    -0.396 C  
HETATM    8  O   UNL     1     -11.418  11.933  65.575  1.00  0.00    -0.321 OA 
HETATM    9  N   UNL     1     -12.073  12.183  67.788  1.00  0.00    -0.101 N  
HETATM   10  H   UNL     1     -12.710  12.742  68.355  1.00  0.00     0.000 HD 
BRANCH   9  11
HETATM   11  C   UNL     1     -11.513  11.076  68.379  1.00  0.00    -0.308 C  
HETATM   12  N   UNL     1     -11.112  10.064  67.695  1.00  0.00    -0.422 N  
HETATM   13  C   UNL     1     -10.620   8.965  68.362  1.00  0.00    -0.143 C  
HETATM   14  H   UNL     1     -11.158  10.075  66.676  1.00  0.00     0.000 HD 
HETATM   15  N   UNL     1     -10.962   8.841  69.723  1.00  0.00    -0.190 N  
HETATM   16  O   UNL     1      -9.939   8.137  67.768  1.00  0.00    -0.162 OA 
HETATM   17  F   UNL     1     -11.683  12.319  70.463  1.00  0.00    -0.370 F  
HETATM   18  C   UNL     1     -11.199   9.998  70.457  1.00  0.00    -0.336 C  
HETATM   19  C   UNL     1     -11.425  11.157  69.840  1.00  0.00    -0.306 C  
BRANCH  15  20
HETATM   20  C   UNL     1     -10.752   7.557  70.408  1.00  0.00    -0.239 C  
HETATM   21  C   UNL     1     -12.717   6.980  71.556  1.00  0.00    -0.381 C  
HETATM   22  O   UNL     1     -11.945   6.748  70.376  1.00  0.00    -0.373 OA 
HETATM   23  C   UNL     1     -13.699   8.122  71.326  1.00  0.00    -0.199 C  
HETATM   24  C   UNL     1     -11.694   7.246  72.655  1.00  0.00    -0.162 C  
HETATM   25  O   UNL     1     -11.408   6.062  73.418  1.00  0.00    -0.460 OA 
HETATM   26  C   UNL     1     -10.422   7.679  71.914  1.00  0.00    -0.215 C  
HETATM   27  H   UNL     1     -10.771   6.229  74.103  1.00  0.00     0.000 HD 
HETATM   28  O   UNL     1      -9.295   6.851  72.242  1.00  0.00    -0.139 OA 
HETATM   29  H   UNL     1      -9.093   6.926  73.167  1.00  0.00     0.000 HD 
ENDBRANCH  15  20
ENDBRANCH   9  11
ENDBRANCH   6   7
ENDBRANCH   5   6
ENDBRANCH   4   5
ENDBRANCH   3   4
ENDBRANCH   2   3
TORSDOF 7
ENDMDL
MODEL       92
REMARK 921   NORMALIZED FREE ENERGY PREDICTED BY IDOCK:   -4.76 KCAL/MOL
REMARK 922        TOTAL FREE ENERGY PREDICTED BY IDOCK:   -7.81 KCAL/MOL
REMARK 923 INTER-LIGAND FREE ENERGY PREDICTED BY IDOCK:   -6.68 KCAL/MOL
REMARK 924 INTRA-LIGAND FREE ENERGY PREDICTED BY IDOCK:   -1.13 KCAL/MOL
REMARK 927      BINDING AFFINITY PREDICTED BY RF-SCORE:    0.00 PKD
ROOT
HETATM    1  C   UNL     1      -7.019  15.584  67.414  1.00  0.00    -0.232 C  
HETATM    2  C   UNL     1      -7.345  16.917  68.078  1.00  0.00    -0.175 C  
ENDROOT
BRANCH   2   3
HETATM    3  C   UNL     1      -8.849  17.168  68.078  1.00  0.00    -0.229 C  
BRANCH   3   4
HETATM    4  C   UNL     1      -9.516  16.877  66.728  1.00  0.00    -0.269 C  
BRANCH   4   5
HETATM    5  C   UNL     1     -10.728  15.979  66.966  1.00  0.00    -0.277 C  
BRANCH   5   6
HETATM    6  O   UNL     1     -11.336  16.155  68.252  1.00  0.00    -0.361 OA 
BRANCH   6   7
HETATM    7  C   UNL     1     -11.584  14.985  68.894  1.00  0.00    -0.326 C  
HETATM    8  O   UNL     1     -12.391  14.866  69.801  1.00  0.00    -0.298 OA 
HETATM    9  N   UNL     1     -10.771  14.010  68.375  1.00  0.00    -0.244 N  
HETATM   10  H   UNL     1      -9.951  14.317  67.853  1.00  0.00     0.000 HD 
BRANCH   9  11
HETATM   11  C   UNL     1     -10.968  12.656  68.498  1.00  0.00    -0.261 C  
HETATM   12  N   UNL     1     -10.934  12.060  69.637  1.00  0.00    -0.459 N  
HETATM   13  C   UNL     1     -11.077  10.691  69.674  1.00  0.00    -0.284 C  
HETATM   14  H   UNL     1     -10.804  12.591  70.498  1.00  0.00     0.000 HD 
HETATM   15  N   UNL     1     -10.837   9.993  68.474  1.00  0.00    -0.233 N  
HETATM   16  O   UNL     1     -11.376  10.131  70.722  1.00  0.00    -0.318 OA 
HETATM   17  F   UNL     1     -11.423  12.681  66.109  1.00  0.00    -0.321 F  
HETATM   18  C   UNL     1     -11.078  10.642  67.269  1.00  0.00    -0.243 C  
HETATM   19  C   UNL     1     -11.210  11.968  67.227  1.00  0.00    -0.311 C  
BRANCH  15  20
HETATM   20  C   UNL     1     -10.654   8.535  68.509  1.00  0.00    -0.111 C  
HETATM   21  C   UNL     1      -8.403   8.042  68.061  1.00  0.00    -0.126 C  
HETATM   22  O   UNL     1      -9.384   8.183  69.091  1.00  0.00    -0.151 OA 
HETATM   23  C   UNL     1      -7.715   9.377  67.804  1.00  0.00    -0.088 C  
HETATM   24  C   UNL     1      -9.164   7.489  66.861  1.00  0.00    -0.149 C  
HETATM   25  O   UNL     1      -9.052   6.059  66.769  1.00  0.00    -0.124 OA 
HETATM   26  C   UNL     1     -10.631   7.857  67.119  1.00  0.00    -0.313 C  
HETATM   27  H   UNL     1      -9.526   5.715  66.020  1.00  0.00     0.000 HD 
HETATM   28  O   UNL     1     -11.488   6.705  67.117  1.00  0.00    -0.779 OA 
HETATM   29  H   UNL     1     -11.473   6.289  66.263  1.00  0.00     0.000 HD 
ENDBRANCH  15  20
ENDBRANCH   9  11
ENDBRANCH   6   7
ENDBRANCH   5   6
ENDBRANCH   4   5
ENDBRANCH   3   4
ENDBRANCH   2   3
TORSDOF 7
ENDMDL
MODEL       93
REMARK 921   NORMALIZED FREE ENERGY PREDICTED BY IDOCK:   -4.75 KCAL/MOL
REMARK 922        TOTAL FREE ENERGY PREDICTED BY IDOCK:   -7.79 KCAL/MOL
REMARK 923 INTER-LIGAND FREE ENERGY PREDICTED BY IDOCK:   -6.76 KCAL/MOL
REMARK 924 INTRA-LIGAND FREE ENERGY PREDICTED BY IDOCK:   -1.03 KCAL/MOL
REMARK 927      BINDING AFFINITY PREDICTED BY RF-SCORE:    0.00 PKD
ROOT
HETATM    1  C   UNL     1      -9.233  15.354  66.420  1.00  0.00    -0.339 C  
HETATM    2  C   UNL     1     -10.640  15.897  66.203  1.00  0.00    -0.310 C  
ENDROOT
BRANCH   2   3
HETATM    3  C   UNL     1     -11.039  15.793  64.735  1.00  0.00    -0.413 C  
BRANCH   3   4
HETATM    4  C   UNL     1     -11.938  14.589  64.431  1.00  0.00    -0.467 C  
BRANCH   4   5
HETATM    5  C   UNL     1     -12.453  14.018  65.750  1.00  0.00    -0.494 C  
BRANCH   5   6
HETATM    6  O   UNL     1     -12.198  12.617  65.915  1.00  0.00    -0.548 OA 
BRANCH   6   7
HETATM    7  C   UNL     1     -11.782  12.289  67.164  1.00  0.00    -0.326 C  
HETATM    8  O   UNL     1     -11.814  13.054  68.114  1.00  0.00    -0.334 OA 
HETATM    9  N   UNL     1     -11.312  11.001  67.154  1.00  0.00    -0.226 N  
HETATM   10  H   UNL     1     -11.064  10.603  66.249  1.00  0.00     0.000 HD 
BRANCH   9  11
HETATM   11  C   UNL     1     -11.147  10.201  68.259  1.00  0.00    -0.227 C  
HETATM   12  N   UNL     1     -11.461  10.595  69.442  1.00  0.00    -0.269 N  
HETATM   13  C   UNL     1     -11.207   9.761  70.508  1.00  0.00    -0.315 C  
HETATM   14  H   UNL     1     -11.890  11.509  69.589  1.00  0.00     0.000 HD 
HETATM   15  N   UNL     1     -10.265   8.735  70.303  1.00  0.00    -0.190 N  
HETATM   16  O   UNL     1     -11.772   9.944  71.580  1.00  0.00    -0.372 OA 
HETATM   17  F   UNL     1     -10.464   8.473  66.690  1.00  0.00    -0.359 F  
HETATM   18  C   UNL     1     -10.112   8.220  69.021  1.00  0.00    -0.202 C  
HETATM   19  C   UNL     1     -10.583   8.881  67.964  1.00  0.00    -0.168 C  
BRANCH  15  20
HETATM   20  C   UNL     1      -9.709   8.020  71.461  1.00  0.00    -0.167 C  
HETATM   21  C   UNL     1      -7.444   8.594  71.691  1.00  0.00    -0.092 C  
HETATM   22  O   UNL     1      -8.765   8.842  72.177  1.00  0.00    -0.386 OA 
HETATM   23  C   UNL     1      -7.121   9.537  70.538  1.00  0.00    -0.130 C  
HETATM   24  C   UNL     1      -7.430   7.117  71.314  1.00  0.00    -0.080 C  
HETATM   25  O   UNL     1      -6.889   6.300  72.366  1.00  0.00    -0.067 OA 
HETATM   26  C   UNL     1      -8.905   6.748  71.106  1.00  0.00    -0.137 C  
HETATM   27  H   UNL     1      -6.881   5.380  72.130  1.00  0.00     0.000 HD 
HETATM   28  O   UNL     1      -9.314   5.655  71.944  1.00  0.00    -0.145 OA 
HETATM   29  H   UNL     1      -8.820   4.874  71.726  1.00  0.00     0.000 HD 
ENDBRANCH  15  20
ENDBRANCH   9  11
ENDBRANCH   6   7
ENDBRANCH   5   6
ENDBRANCH   4   5
ENDBRANCH   3   4
ENDBRANCH   2   3
TORSDOF 7
ENDMDL
MODEL       94
REMARK 921   NORMALIZED FREE ENERGY PREDICTED BY IDOCK:   -4.73 KCAL/MOL
REMARK 922        TOTAL FREE ENERGY PREDICTED BY IDOCK:   -7.76 KCAL/MOL
REMARK 923 INTER-LIGAND FREE ENERGY PREDICTED BY IDOCK:   -6.73 KCAL/MOL
REMARK 924 INTRA-LIGAND FREE ENERGY PREDICTED BY IDOCK:   -1.04 KCAL/MOL
REMARK 927      BINDING AFFINITY PREDICTED BY RF-SCORE:    0.00 PKD
ROOT
HETATM    1  C   UNL     1      -7.291   4.820  70.512  1.00  0.00    -0.050 C  
HETATM    2  C   UNL     1      -8.307   3.737  70.167  1.00  0.00    -0.084 C  
ENDROOT
BRANCH   2   3
HETATM    3  C   UNL     1      -9.693   4.113  70.680  1.00  0.00    -0.273 C  
BRANCH   3   4
HETATM    4  C   UNL     1      -9.949   5.625  70.694  1.00  0.00    -0.260 C  
BRANCH   4   5
HETATM    5  C   UNL     1     -10.707   6.003  69.423  1.00  0.00    -0.334 C  
BRANCH   5   6
HETATM    6  O   UNL     1      -9.873   6.535  68.387  1.00  0.00    -0.134 OA 
BRANCH   6   7
HETATM    7  C   UNL     1     -10.437   7.575  67.722  1.00  0.00    -0.223 C  
HETATM    8  O   UNL     1     -11.139   7.448  66.732  1.00  0.00    -0.149 OA 
HETATM    9  N   UNL     1     -10.063   8.747  68.327  1.00  0.00    -0.181 N  
HETATM   10  H   UNL     1      -9.246   8.717  68.936  1.00  0.00     0.000 HD 
BRANCH   9  11
HETATM   11  C   UNL     1     -10.696   9.958  68.184  1.00  0.00    -0.233 C  
HETATM   12  N   UNL     1     -10.884  10.500  67.033  1.00  0.00    -0.255 N  
HETATM   13  C   UNL     1     -11.469  11.745  66.974  1.00  0.00    -0.298 C  
HETATM   14  H   UNL     1     -10.605  10.017  66.180  1.00  0.00     0.000 HD 
HETATM   15  N   UNL     1     -11.445  12.517  68.153  1.00  0.00    -0.295 N  
HETATM   16  O   UNL     1     -11.957  12.147  65.924  1.00  0.00    -0.561 OA 
HETATM   17  F   UNL     1     -11.066   9.852  70.585  1.00  0.00    -0.299 F  
HETATM   18  C   UNL     1     -11.434  11.858  69.377  1.00  0.00    -0.302 C  
HETATM   19  C   UNL     1     -11.123  10.564  69.448  1.00  0.00    -0.258 C  
BRANCH  15  20
HETATM   20  C   UNL     1     -11.751  13.953  68.085  1.00  0.00    -0.353 C  
HETATM   21  C   UNL     1      -9.737  15.158  68.080  1.00  0.00    -0.217 C  
HETATM   22  O   UNL     1     -10.795  14.651  67.263  1.00  0.00    -0.291 OA 
HETATM   23  C   UNL     1      -8.620  14.128  68.194  1.00  0.00    -0.175 C  
HETATM   24  C   UNL     1     -10.397  15.516  69.407  1.00  0.00    -0.258 C  
HETATM   25  O   UNL     1     -10.736  16.911  69.477  1.00  0.00    -0.326 OA 
HETATM   26  C   UNL     1     -11.687  14.688  69.443  1.00  0.00    -0.316 C  
HETATM   27  H   UNL     1     -11.146  17.134  70.305  1.00  0.00     0.000 HD 
HETATM   28  O   UNL     1     -12.853  15.508  69.616  1.00  0.00    -0.601 OA 
HETATM   29  H   UNL     1     -12.814  15.961  70.451  1.00  0.00     0.000 HD 
ENDBRANCH  15  20
ENDBRANCH   9  11
ENDBRANCH   6   7
ENDBRANCH   5   6
ENDBRANCH   4   5
ENDBRANCH   3   4
ENDBRANCH   2   3
TORSDOF 7
ENDMDL
MODEL       95
REMARK 921   NORMALIZED FREE ENERGY PREDICTED BY IDOCK:   -4.70 KCAL/MOL
REMARK 922        TOTAL FREE ENERGY PREDICTED BY IDOCK:   -7.72 KCAL/MOL
REMARK 923 INTER-LIGAND FREE ENERGY PREDICTED BY IDOCK:   -6.75 KCAL/MOL
REMARK 924 INTRA-LIGAND FREE ENERGY PREDICTED BY IDOCK:   -0.97 KCAL/MOL
REMARK 927      BINDING AFFINITY PREDICTED BY RF-SCORE:    0.00 PKD
ROOT
HETATM    1  C   UNL     1      -9.400  17.229  68.064  1.00  0.00    -0.264 C  
HETATM    2  C   UNL     1     -10.512  17.057  67.035  1.00  0.00    -0.279 C  
ENDROOT
BRANCH   2   3
HETATM    3  C   UNL     1     -10.839  15.582  66.834  1.00  0.00    -0.301 C  
BRANCH   3   4
HETATM    4  C   UNL     1     -10.002  14.915  65.736  1.00  0.00    -0.376 C  
BRANCH   4   5
HETATM    5  C   UNL     1      -9.701  13.478  66.157  1.00  0.00    -0.252 C  
BRANCH   5   6
HETATM    6  O   UNL     1     -10.759  12.556  65.867  1.00  0.00    -0.255 OA 
BRANCH   6   7
HETATM    7  C   UNL     1     -11.063  11.742  66.910  1.00  0.00    -0.307 C  
HETATM    8  O   UNL     1     -12.144  11.734  67.473  1.00  0.00    -0.599 OA 
HETATM    9  N   UNL     1      -9.963  10.982  67.217  1.00  0.00    -0.178 N  
HETATM   10  H   UNL     1      -9.060  11.309  66.875  1.00  0.00     0.000 HD 
BRANCH   9  11
HETATM   11  C   UNL     1      -9.975   9.818  67.946  1.00  0.00    -0.163 C  
HETATM   12  N   UNL     1     -10.703   8.811  67.617  1.00  0.00    -0.464 N  
HETATM   13  C   UNL     1     -10.710   7.701  68.433  1.00  0.00    -0.048 C  
HETATM   14  H   UNL     1     -11.266   8.833  66.767  1.00  0.00     0.000 HD 
HETATM   15  N   UNL     1     -10.265   7.882  69.757  1.00  0.00    -0.207 N  
HETATM   16  O   UNL     1     -11.113   6.626  68.006  1.00  0.00    -0.262 OA 
HETATM   17  F   UNL     1      -8.224  10.845  69.287  1.00  0.00    -0.152 F  
HETATM   18  C   UNL     1      -9.325   8.874  70.012  1.00  0.00    -0.174 C  
HETATM   19  C   UNL     1      -9.095   9.836  69.119  1.00  0.00    -0.165 C  
BRANCH  15  20
HETATM   20  C   UNL     1     -10.542   6.846  70.762  1.00  0.00    -0.220 C  
HETATM   21  C   UNL     1     -12.121   7.673  72.290  1.00  0.00    -0.256 C  
HETATM   22  O   UNL     1     -11.933   6.845  71.140  1.00  0.00    -0.329 OA 
HETATM   23  C   UNL     1     -12.421   9.105  71.863  1.00  0.00    -0.459 C  
HETATM   24  C   UNL     1     -10.842   7.518  73.105  1.00  0.00    -0.395 C  
HETATM   25  O   UNL     1     -10.985   6.535  74.143  1.00  0.00    -0.346 OA 
HETATM   26  C   UNL     1      -9.790   7.031  72.100  1.00  0.00    -0.154 C  
HETATM   27  H   UNL     1     -10.188   6.438  74.652  1.00  0.00     0.000 HD 
HETATM   28  O   UNL     1      -9.187   5.792  72.504  1.00  0.00    -0.143 OA 
HETATM   29  H   UNL     1      -8.725   5.906  73.326  1.00  0.00     0.000 HD 
ENDBRANCH  15  20
ENDBRANCH   9  11
ENDBRANCH   6   7
ENDBRANCH   5   6
ENDBRANCH   4   5
ENDBRANCH   3   4
ENDBRANCH   2   3
TORSDOF 7
ENDMDL
MODEL       96
REMARK 921   NORMALIZED FREE ENERGY PREDICTED BY IDOCK:   -4.69 KCAL/MOL
REMARK 922        TOTAL FREE ENERGY PREDICTED BY IDOCK:   -7.71 KCAL/MOL
REMARK 923 INTER-LIGAND FREE ENERGY PREDICTED BY IDOCK:   -8.17 KCAL/MOL
REMARK 924 INTRA-LIGAND FREE ENERGY PREDICTED BY IDOCK:    0.47 KCAL/MOL
REMARK 927      BINDING AFFINITY PREDICTED BY RF-SCORE:    0.00 PKD
ROOT
HETATM    1  C   UNL     1      -9.198  20.160  67.685  1.00  0.00    -0.461 C  
HETATM    2  C   UNL     1      -8.731  18.979  66.842  1.00  0.00    -0.316 C  
ENDROOT
BRANCH   2   3
HETATM    3  C   UNL     1      -9.728  17.829  66.922  1.00  0.00    -0.300 C  
BRANCH   3   4
HETATM    4  C   UNL     1      -9.158  16.491  66.438  1.00  0.00    -0.332 C  
BRANCH   4   5
HETATM    5  C   UNL     1     -10.311  15.618  65.948  1.00  0.00    -0.350 C  
BRANCH   5   6
HETATM    6  O   UNL     1     -10.075  14.212  66.092  1.00  0.00    -0.291 OA 
BRANCH   6   7
HETATM    7  C   UNL     1     -10.889  13.621  67.004  1.00  0.00    -0.286 C  
HETATM    8  O   UNL     1     -12.100  13.761  67.026  1.00  0.00    -0.406 OA 
HETATM    9  N   UNL     1     -10.124  12.890  67.877  1.00  0.00    -0.225 N  
HETATM   10  H   UNL     1      -9.130  13.112  67.923  1.00  0.00     0.000 HD 
BRANCH   9  11
HETATM   11  C   UNL     1     -10.583  11.885  68.693  1.00  0.00    -0.234 C  
HETATM   12  N   UNL     1     -11.716  11.957  69.297  1.00  0.00    -0.306 N  
HETATM   13  C   UNL     1     -12.079  10.939  70.150  1.00  0.00    -0.349 C  
HETATM   14  H   UNL     1     -12.334  12.754  69.147  1.00  0.00     0.000 HD 
HETATM   15  N   UNL     1     -11.046  10.108  70.627  1.00  0.00    -0.323 N  
HETATM   16  O   UNL     1     -13.251  10.801  70.480  1.00  0.00    -0.190 OA 
HETATM   17  F   UNL     1      -8.599  10.657  68.004  1.00  0.00    -0.116 F  
HETATM   18  C   UNL     1      -9.922   9.923  69.830  1.00  0.00    -0.243 C  
HETATM   19  C   UNL     1      -9.668  10.745  68.813  1.00  0.00    -0.192 C  
BRANCH  15  20
HETATM   20  C   UNL     1     -11.300   9.221  71.771  1.00  0.00    -0.367 C  
HETATM   21  C   UNL     1     -11.042   6.994  71.075  1.00  0.00    -0.264 C  
HETATM   22  O   UNL     1     -10.415   8.084  71.755  1.00  0.00    -0.211 OA 
HETATM   23  C   UNL     1     -10.716   7.044  69.587  1.00  0.00    -0.265 C  
HETATM   24  C   UNL     1     -12.526   7.127  71.396  1.00  0.00    -0.388 C  
HETATM   25  O   UNL     1     -12.913   6.290  72.498  1.00  0.00    -0.479 OA 
HETATM   26  C   UNL     1     -12.714   8.596  71.797  1.00  0.00    -0.359 C  
HETATM   27  H   UNL     1     -13.839   6.373  72.698  1.00  0.00     0.000 HD 
HETATM   28  O   UNL     1     -13.289   8.732  73.106  1.00  0.00    -0.918 OA 
HETATM   29  H   UNL     1     -14.158   8.347  73.122  1.00  0.00     0.000 HD 
ENDBRANCH  15  20
ENDBRANCH   9  11
ENDBRANCH   6   7
ENDBRANCH   5   6
ENDBRANCH   4   5
ENDBRANCH   3   4
ENDBRANCH   2   3
TORSDOF 7
ENDMDL
MODEL       97
REMARK 921   NORMALIZED FREE ENERGY PREDICTED BY IDOCK:   -4.68 KCAL/MOL
REMARK 922        TOTAL FREE ENERGY PREDICTED BY IDOCK:   -7.70 KCAL/MOL
REMARK 923 INTER-LIGAND FREE ENERGY PREDICTED BY IDOCK:   -7.17 KCAL/MOL
REMARK 924 INTRA-LIGAND FREE ENERGY PREDICTED BY IDOCK:   -0.53 KCAL/MOL
REMARK 927      BINDING AFFINITY PREDICTED BY RF-SCORE:    0.00 PKD
ROOT
HETATM    1  C   UNL     1      -9.844   4.916  71.970  1.00  0.00    -0.232 C  
HETATM    2  C   UNL     1     -11.031   4.732  72.908  1.00  0.00    -0.312 C  
ENDROOT
BRANCH   2   3
HETATM    3  C   UNL     1     -12.025   5.879  72.752  1.00  0.00    -0.039 C  
BRANCH   3   4
HETATM    4  C   UNL     1     -12.015   6.510  71.355  1.00  0.00    -0.371 C  
BRANCH   4   5
HETATM    5  C   UNL     1     -13.240   7.411  71.218  1.00  0.00    -0.281 C  
BRANCH   5   6
HETATM    6  O   UNL     1     -13.086   8.696  71.835  1.00  0.00    -0.334 OA 
BRANCH   6   7
HETATM    7  C   UNL     1     -11.988   9.369  71.408  1.00  0.00    -0.371 C  
HETATM    8  O   UNL     1     -10.913   9.352  71.984  1.00  0.00    -0.250 OA 
HETATM    9  N   UNL     1     -12.308  10.068  70.271  1.00  0.00    -0.493 N  
HETATM   10  H   UNL     1     -13.297  10.232  70.088  1.00  0.00     0.000 HD 
BRANCH   9  11
HETATM   11  C   UNL     1     -11.408  10.565  69.360  1.00  0.00    -0.269 C  
HETATM   12  N   UNL     1     -11.146  11.820  69.271  1.00  0.00    -0.346 N  
HETATM   13  C   UNL     1     -10.281  12.250  68.289  1.00  0.00    -0.220 C  
HETATM   14  H   UNL     1     -11.571  12.486  69.916  1.00  0.00     0.000 HD 
HETATM   15  N   UNL     1     -10.066  11.378  67.204  1.00  0.00    -0.195 N  
HETATM   16  O   UNL     1      -9.757  13.355  68.371  1.00  0.00    -0.221 OA 
HETATM   17  F   UNL     1     -10.969   8.241  68.789  1.00  0.00    -0.159 F  
HETATM   18  C   UNL     1     -10.182  10.009  67.419  1.00  0.00    -0.219 C  
HETATM   19  C   UNL     1     -10.792   9.543  68.507  1.00  0.00    -0.132 C  
BRANCH  15  20
HETATM   20  C   UNL     1      -9.426  11.886  65.982  1.00  0.00    -0.229 C  
HETATM   21  C   UNL     1     -11.078  12.788  64.579  1.00  0.00    -0.330 C  
HETATM   22  O   UNL     1     -10.057  13.100  65.530  1.00  0.00    -0.289 OA 
HETATM   23  C   UNL     1     -12.409  12.570  65.289  1.00  0.00    -0.469 C  
HETATM   24  C   UNL     1     -10.561  11.565  63.829  1.00  0.00    -0.406 C  
HETATM   25  O   UNL     1      -9.920  11.926  62.594  1.00  0.00    -0.404 OA 
HETATM   26  C   UNL     1      -9.521  10.937  64.765  1.00  0.00    -0.238 C  
HETATM   27  H   UNL     1      -9.598  11.164  62.127  1.00  0.00     0.000 HD 
HETATM   28  O   UNL     1      -8.235  10.808  64.138  1.00  0.00    -0.356 OA 
HETATM   29  H   UNL     1      -8.293  10.226  63.390  1.00  0.00     0.000 HD 
ENDBRANCH  15  20
ENDBRANCH   9  11
ENDBRANCH   6   7
ENDBRANCH   5   6
ENDBRANCH   4   5
ENDBRANCH   3   4
ENDBRANCH   2   3
TORSDOF 7
ENDMDL
MODEL       98
REMARK 921   NORMALIZED FREE ENERGY PREDICTED BY IDOCK:   -4.60 KCAL/MOL
REMARK 922        TOTAL FREE ENERGY PREDICTED BY IDOCK:   -7.59 KCAL/MOL
REMARK 923 INTER-LIGAND FREE ENERGY PREDICTED BY IDOCK:   -6.73 KCAL/MOL
REMARK 924 INTRA-LIGAND FREE ENERGY PREDICTED BY IDOCK:   -0.86 KCAL/MOL
REMARK 927      BINDING AFFINITY PREDICTED BY RF-SCORE:    0.00 PKD
ROOT
HETATM    1  C   UNL     1      -7.599   2.551  67.999  1.00  0.00    -0.055 C  
HETATM    2  C   UNL     1      -8.390   3.842  68.176  1.00  0.00    -0.101 C  
ENDROOT
BRANCH   2   3
HETATM    3  C   UNL     1      -8.000   4.864  67.115  1.00  0.00    -0.099 C  
BRANCH   3   4
HETATM    4  C   UNL     1      -9.155   5.245  66.180  1.00  0.00    -0.148 C  
BRANCH   4   5
HETATM    5  C   UNL     1      -9.503   6.715  66.409  1.00  0.00    -0.123 C  
BRANCH   5   6
HETATM    6  O   UNL     1      -8.747   7.333  67.458  1.00  0.00    -0.121 OA 
BRANCH   6   7
HETATM    7  C   UNL     1      -9.362   8.414  67.999  1.00  0.00    -0.136 C  
HETATM    8  O   UNL     1      -9.449   8.618  69.198  1.00  0.00    -0.156 OA 
HETATM    9  N   UNL     1      -9.873   9.189  66.989  1.00  0.00    -0.190 N  
HETATM   10  H   UNL     1      -9.993   8.746  66.078  1.00  0.00     0.000 HD 
BRANCH   9  11
HETATM   11  C   UNL     1     -10.236  10.509  67.099  1.00  0.00    -0.223 C  
HETATM   12  N   UNL     1     -11.314  10.875  67.696  1.00  0.00    -0.308 N  
HETATM   13  C   UNL     1     -11.644  12.212  67.711  1.00  0.00    -0.342 C  
HETATM   14  H   UNL     1     -11.915  10.187  68.150  1.00  0.00     0.000 HD 
HETATM   15  N   UNL     1     -11.027  13.030  66.743  1.00  0.00    -0.271 N  
HETATM   16  O   UNL     1     -12.457  12.636  68.523  1.00  0.00     0.126 OA 
HETATM   17  F   UNL     1      -8.100  11.004  66.045  1.00  0.00    -0.154 F  
HETATM   18  C   UNL     1      -9.767  12.674  66.278  1.00  0.00    -0.259 C  
HETATM   19  C   UNL     1      -9.294  11.444  66.475  1.00  0.00    -0.189 C  
BRANCH  15  20
HETATM   20  C   UNL     1     -11.560  14.376  66.488  1.00  0.00    -0.378 C  
HETATM   21  C   UNL     1     -12.253  14.506  64.249  1.00  0.00    -0.415 C  
HETATM   22  O   UNL     1     -12.692  14.329  65.598  1.00  0.00    -0.471 OA 
HETATM   23  C   UNL     1     -11.927  13.157  63.621  1.00  0.00    -0.580 C  
HETATM   24  C   UNL     1     -11.066  15.458  64.340  1.00  0.00    -0.132 C  
HETATM   25  O   UNL     1     -11.452  16.820  64.092  1.00  0.00    -1.369 OA 
HETATM   26  C   UNL     1     -10.571  15.336  65.787  1.00  0.00    -0.347 C  
HETATM   27  H   UNL     1     -10.711  17.413  64.149  1.00  0.00     0.000 HD 
HETATM   28  O   UNL     1     -10.550  16.603  66.462  1.00  0.00    -0.286 OA 
HETATM   29  H   UNL     1      -9.943  17.193  66.030  1.00  0.00     0.000 HD 
ENDBRANCH  15  20
ENDBRANCH   9  11
ENDBRANCH   6   7
ENDBRANCH   5   6
ENDBRANCH   4   5
ENDBRANCH   3   4
ENDBRANCH   2   3
TORSDOF 7
ENDMDL
MODEL       99
REMARK 921   NORMALIZED FREE ENERGY PREDICTED BY IDOCK:   -4.59 KCAL/MOL
REMARK 922        TOTAL FREE ENERGY PREDICTED BY IDOCK:   -7.57 KCAL/MOL
REMARK 923 INTER-LIGAND FREE ENERGY PREDICTED BY IDOCK:   -6.46 KCAL/MOL
REMARK 924 INTRA-LIGAND FREE ENERGY PREDICTED BY IDOCK:   -1.11 KCAL/MOL
REMARK 927      BINDING AFFINITY PREDICTED BY RF-SCORE:    0.00 PKD
ROOT
HETATM    1  C   UNL     1     -10.422  16.033  66.853  1.00  0.00    -0.306 C  
HETATM    2  C   UNL     1     -10.430  16.862  68.132  1.00  0.00    -0.350 C  
ENDROOT
BRANCH   2   3
HETATM    3  C   UNL     1     -10.280  15.967  69.357  1.00  0.00    -0.262 C  
BRANCH   3   4
HETATM    4  C   UNL     1     -11.602  15.708  70.090  1.00  0.00    -0.366 C  
BRANCH   4   5
HETATM    5  C   UNL     1     -11.797  14.199  70.226  1.00  0.00    -0.303 C  
BRANCH   5   6
HETATM    6  O   UNL     1     -12.171  13.551  69.003  1.00  0.00    -0.320 OA 
BRANCH   6   7
HETATM    7  C   UNL     1     -11.545  12.363  68.810  1.00  0.00    -0.326 C  
HETATM    8  O   UNL     1     -11.040  12.025  67.753  1.00  0.00    -0.221 OA 
HETATM    9  N   UNL     1     -11.607  11.632  69.969  1.00  0.00    -0.454 N  
HETATM   10  H   UNL     1     -12.311  11.905  70.654  1.00  0.00     0.000 HD 
BRANCH   9  11
HETATM   11  C   UNL     1     -10.802  10.565  70.286  1.00  0.00    -0.174 C  
HETATM   12  N   UNL     1      -9.635  10.411  69.769  1.00  0.00    -0.413 N  
HETATM   13  C   UNL     1      -8.912   9.283  70.086  1.00  0.00    -0.214 C  
HETATM   14  H   UNL     1      -9.251  11.112  69.135  1.00  0.00     0.000 HD 
HETATM   15  N   UNL     1      -9.634   8.190  70.606  1.00  0.00    -0.165 N  
HETATM   16  O   UNL     1      -7.703   9.251  69.891  1.00  0.00    -0.078 OA 
HETATM   17  F   UNL     1     -12.530   9.960  71.887  1.00  0.00    -0.425 F  
HETATM   18  C   UNL     1     -10.797   8.443  71.324  1.00  0.00    -0.239 C  
HETATM   19  C   UNL     1     -11.395   9.632  71.248  1.00  0.00    -0.388 C  
BRANCH  15  20
HETATM   20  C   UNL     1      -9.000   6.865  70.663  1.00  0.00    -0.151 C  
HETATM   21  C   UNL     1      -9.861   5.537  68.930  1.00  0.00    -0.157 C  
HETATM   22  O   UNL     1      -8.757   6.346  69.340  1.00  0.00    -0.128 OA 
HETATM   23  C   UNL     1     -10.900   6.390  68.211  1.00  0.00    -0.384 C  
HETATM   24  C   UNL     1     -10.367   4.877  70.207  1.00  0.00    -0.181 C  
HETATM   25  O   UNL     1      -9.829   3.555  70.377  1.00  0.00    -0.156 OA 
HETATM   26  C   UNL     1      -9.856   5.772  71.344  1.00  0.00    -0.170 C  
HETATM   27  H   UNL     1     -10.145   3.144  71.173  1.00  0.00     0.000 HD 
HETATM   28  O   UNL     1      -9.063   5.043  72.293  1.00  0.00    -0.130 OA 
HETATM   29  H   UNL     1      -9.589   4.371  72.711  1.00  0.00     0.000 HD 
ENDBRANCH  15  20
ENDBRANCH   9  11
ENDBRANCH   6   7
ENDBRANCH   5   6
ENDBRANCH   4   5
ENDBRANCH   3   4
ENDBRANCH   2   3
TORSDOF 7
ENDMDL
MODEL      100
REMARK 921   NORMALIZED FREE ENERGY PREDICTED BY IDOCK:   -4.59 KCAL/MOL
REMARK 922        TOTAL FREE ENERGY PREDICTED BY IDOCK:   -7.57 KCAL/MOL
REMARK 923 INTER-LIGAND FREE ENERGY PREDICTED BY IDOCK:   -6.62 KCAL/MOL
REMARK 924 INTRA-LIGAND FREE ENERGY PREDICTED BY IDOCK:   -0.95 KCAL/MOL
REMARK 927      BINDING AFFINITY PREDICTED BY RF-SCORE:    0.00 PKD
ROOT
HETATM    1  C   UNL     1     -13.414  15.834  73.040  1.00  0.00    -0.672 C  
HETATM    2  C   UNL     1     -12.520  15.276  71.938  1.00  0.00    -0.427 C  
ENDROOT
BRANCH   2   3
HETATM    3  C   UNL     1     -12.872  13.823  71.640  1.00  0.00    -0.438 C  
BRANCH   3   4
HETATM    4  C   UNL     1     -12.330  13.327  70.294  1.00  0.00    -0.334 C  
BRANCH   4   5
HETATM    5  C   UNL     1     -12.175  11.809  70.360  1.00  0.00    -0.330 C  
BRANCH   5   6
HETATM    6  O   UNL     1     -12.859  11.205  71.465  1.00  0.00    -0.423 OA 
BRANCH   6   7
HETATM    7  C   UNL     1     -12.531   9.901  71.653  1.00  0.00    -0.415 C  
HETATM    8  O   UNL     1     -13.270   9.083  72.175  1.00  0.00    -0.381 OA 
HETATM    9  N   UNL     1     -11.256   9.692  71.194  1.00  0.00    -0.360 N  
HETATM   10  H   UNL     1     -10.663  10.513  71.075  1.00  0.00     0.000 HD 
BRANCH   9  11
HETATM   11  C   UNL     1     -10.710   8.471  70.880  1.00  0.00    -0.224 C  
HETATM   12  N   UNL     1     -11.291   7.646  70.083  1.00  0.00    -0.445 N  
HETATM   13  C   UNL     1     -10.713   6.414  69.867  1.00  0.00    -0.274 C  
HETATM   14  H   UNL     1     -12.163   7.898  69.620  1.00  0.00     0.000 HD 
HETATM   15  N   UNL     1      -9.775   5.975  70.821  1.00  0.00    -0.172 N  
HETATM   16  O   UNL     1     -11.039   5.744  68.894  1.00  0.00    -0.265 OA 
HETATM   17  F   UNL     1      -8.793   9.186  72.196  1.00  0.00    -0.195 F  
HETATM   18  C   UNL     1      -9.040   6.927  71.517  1.00  0.00    -0.144 C  
HETATM   19  C   UNL     1      -9.426   8.202  71.536  1.00  0.00    -0.171 C  
BRANCH  15  20
HETATM   20  C   UNL     1      -9.365   4.563  70.836  1.00  0.00    -0.153 C  
HETATM   21  C   UNL     1     -10.113   3.577  72.831  1.00  0.00    -0.155 C  
HETATM   22  O   UNL     1     -10.379   3.732  71.435  1.00  0.00     0.000 OA 
HETATM   23  C   UNL     1     -10.802   4.682  73.624  1.00  0.00    -0.375 C  
HETATM   24  C   UNL     1      -8.593   3.577  72.949  1.00  0.00    -0.086 C  
HETATM   25  O   UNL     1      -8.060   2.243  72.990  1.00  0.00    -0.055 OA 
HETATM   26  C   UNL     1      -8.098   4.271  71.674  1.00  0.00    -0.091 C  
HETATM   27  H   UNL     1      -7.112   2.243  73.064  1.00  0.00     0.000 HD 
HETATM   28  O   UNL     1      -7.190   3.448  70.925  1.00  0.00    -0.033 OA 
HETATM   29  H   UNL     1      -6.412   3.268  71.440  1.00  0.00     0.000 HD 
ENDBRANCH  15  20
ENDBRANCH   9  11
ENDBRANCH   6   7
ENDBRANCH   5   6
ENDBRANCH   4   5
ENDBRANCH   3   4
ENDBRANCH   2   3
TORSDOF 7
ENDMDL
MODEL      101
REMARK 921   NORMALIZED FREE ENERGY PREDICTED BY IDOCK:   -4.58 KCAL/MOL
REMARK 922        TOTAL FREE ENERGY PREDICTED BY IDOCK:   -7.56 KCAL/MOL
REMARK 923 INTER-LIGAND FREE ENERGY PREDICTED BY IDOCK:   -6.37 KCAL/MOL
REMARK 924 INTRA-LIGAND FREE ENERGY PREDICTED BY IDOCK:   -1.19 KCAL/MOL
REMARK 927      BINDING AFFINITY PREDICTED BY RF-SCORE:    0.00 PKD
ROOT
HETATM    1  C   UNL     1     -10.865  14.051  64.726  1.00  0.00    -0.430 C  
HETATM    2  C   UNL     1     -11.183  15.092  65.793  1.00  0.00    -0.287 C  
ENDROOT
BRANCH   2   3
HETATM    3  C   UNL     1     -11.764  14.430  67.037  1.00  0.00    -0.420 C  
BRANCH   3   4
HETATM    4  C   UNL     1     -11.617  15.279  68.306  1.00  0.00    -0.357 C  
BRANCH   4   5
HETATM    5  C   UNL     1     -11.188  14.369  69.455  1.00  0.00    -0.281 C  
BRANCH   5   6
HETATM    6  O   UNL     1     -12.283  13.796  70.181  1.00  0.00    -0.331 OA 
BRANCH   6   7
HETATM    7  C   UNL     1     -12.156  12.460  70.382  1.00  0.00    -0.297 C  
HETATM    8  O   UNL     1     -12.821  11.827  71.184  1.00  0.00    -0.350 OA 
HETATM    9  N   UNL     1     -11.160  11.980  69.569  1.00  0.00    -0.452 N  
HETATM   10  H   UNL     1     -10.498  12.659  69.193  1.00  0.00     0.000 HD 
BRANCH   9  11
HETATM   11  C   UNL     1     -10.979  10.664  69.220  1.00  0.00    -0.245 C  
HETATM   12  N   UNL     1     -10.727   9.753  70.092  1.00  0.00    -0.266 N  
HETATM   13  C   UNL     1     -10.494   8.467  69.659  1.00  0.00    -0.221 C  
HETATM   14  H   UNL     1     -10.701   9.978  71.086  1.00  0.00     0.000 HD 
HETATM   15  N   UNL     1     -10.137   8.306  68.305  1.00  0.00    -0.192 N  
HETATM   16  O   UNL     1     -10.577   7.529  70.442  1.00  0.00    -0.220 OA 
HETATM   17  F   UNL     1     -11.545  11.367  66.961  1.00  0.00    -0.362 F  
HETATM   18  C   UNL     1     -10.605   9.231  67.380  1.00  0.00    -0.255 C  
HETATM   19  C   UNL     1     -11.091  10.405  67.781  1.00  0.00    -0.299 C  
BRANCH  15  20
HETATM   20  C   UNL     1      -9.566   7.028  67.854  1.00  0.00    -0.123 C  
HETATM   21  C   UNL     1      -7.244   7.276  67.616  1.00  0.00    -0.091 C  
HETATM   22  O   UNL     1      -8.284   6.786  68.465  1.00  0.00    -0.118 OA 
HETATM   23  C   UNL     1      -6.931   8.729  67.953  1.00  0.00    -0.078 C  
HETATM   24  C   UNL     1      -7.756   7.059  66.196  1.00  0.00    -0.095 C  
HETATM   25  O   UNL     1      -7.254   5.839  65.627  1.00  0.00    -0.071 OA 
HETATM   26  C   UNL     1      -9.279   6.953  66.337  1.00  0.00    -0.152 C  
HETATM   27  H   UNL     1      -7.572   5.704  64.742  1.00  0.00     0.000 HD 
HETATM   28  O   UNL     1      -9.789   5.723  65.798  1.00  0.00    -0.373 OA 
HETATM   29  H   UNL     1      -9.613   5.677  64.866  1.00  0.00     0.000 HD 
ENDBRANCH  15  20
ENDBRANCH   9  11
ENDBRANCH   6   7
ENDBRANCH   5   6
ENDBRANCH   4   5
ENDBRANCH   3   4
ENDBRANCH   2   3
TORSDOF 7
ENDMDL
MODEL      102
REMARK 921   NORMALIZED FREE ENERGY PREDICTED BY IDOCK:   -4.56 KCAL/MOL
REMARK 922        TOTAL FREE ENERGY PREDICTED BY IDOCK:   -7.53 KCAL/MOL
REMARK 923 INTER-LIGAND FREE ENERGY PREDICTED BY IDOCK:   -6.49 KCAL/MOL
REMARK 924 INTRA-LIGAND FREE ENERGY PREDICTED BY IDOCK:   -1.04 KCAL/MOL
REMARK 927      BINDING AFFINITY PREDICTED BY RF-SCORE:    0.00 PKD
ROOT
HETATM    1  C   UNL     1      -8.795   8.165  73.511  1.00  0.00    -0.310 C  
HETATM    2  C   UNL     1      -8.832   6.745  74.064  1.00  0.00    -0.187 C  
ENDROOT
BRANCH   2   3
HETATM    3  C   UNL     1     -10.257   6.347  74.434  1.00  0.00    -0.343 C  
BRANCH   3   4
HETATM    4  C   UNL     1     -10.710   5.031  73.789  1.00  0.00    -0.358 C  
BRANCH   4   5
HETATM    5  C   UNL     1     -10.969   5.280  72.304  1.00  0.00    -0.185 C  
BRANCH   5   6
HETATM    6  O   UNL     1     -11.756   6.448  72.041  1.00  0.00    -0.304 OA 
BRANCH   6   7
HETATM    7  C   UNL     1     -11.560   6.961  70.800  1.00  0.00    -0.349 C  
HETATM    8  O   UNL     1     -11.721   6.328  69.770  1.00  0.00    -0.403 OA 
HETATM    9  N   UNL     1     -11.137   8.260  70.916  1.00  0.00    -0.256 N  
HETATM   10  H   UNL     1     -10.758   8.548  71.818  1.00  0.00     0.000 HD 
BRANCH   9  11
HETATM   11  C   UNL     1     -11.180   9.206  69.921  1.00  0.00    -0.102 C  
HETATM   12  N   UNL     1     -10.811   8.951  68.717  1.00  0.00    -0.423 N  
HETATM   13  C   UNL     1     -10.823   9.968  67.789  1.00  0.00    -0.282 C  
HETATM   14  H   UNL     1     -10.516   8.011  68.452  1.00  0.00     0.000 HD 
HETATM   15  N   UNL     1     -10.832  11.286  68.289  1.00  0.00    -0.190 N  
HETATM   16  O   UNL     1     -10.801   9.710  66.591  1.00  0.00    -0.088 OA 
HETATM   17  F   UNL     1     -12.219  10.651  71.580  1.00  0.00    -0.435 F  
HETATM   18  C   UNL     1     -11.422  11.523  69.525  1.00  0.00    -0.311 C  
HETATM   19  C   UNL     1     -11.673  10.516  70.361  1.00  0.00    -0.344 C  
BRANCH  15  20
HETATM   20  C   UNL     1     -10.522  12.404  67.387  1.00  0.00    -0.215 C  
HETATM   21  C   UNL     1      -8.215  12.832  67.474  1.00  0.00    -0.179 C  
HETATM   22  O   UNL     1      -9.257  12.204  66.724  1.00  0.00    -0.196 OA 
HETATM   23  C   UNL     1      -7.635  11.854  68.489  1.00  0.00    -0.127 C  
HETATM   24  C   UNL     1      -8.859  14.067  68.092  1.00  0.00    -0.182 C  
HETATM   25  O   UNL     1      -8.615  15.247  67.308  1.00  0.00    -0.165 OA 
HETATM   26  C   UNL     1     -10.364  13.772  68.091  1.00  0.00    -0.252 C  
HETATM   27  H   UNL     1      -9.016  16.018  67.693  1.00  0.00     0.000 HD 
HETATM   28  O   UNL     1     -11.114  14.777  67.391  1.00  0.00    -0.303 OA 
HETATM   29  H   UNL     1     -11.016  15.617  67.823  1.00  0.00     0.000 HD 
ENDBRANCH  15  20
ENDBRANCH   9  11
ENDBRANCH   6   7
ENDBRANCH   5   6
ENDBRANCH   4   5
ENDBRANCH   3   4
ENDBRANCH   2   3
TORSDOF 7
ENDMDL
MODEL      103
REMARK 921   NORMALIZED FREE ENERGY PREDICTED BY IDOCK:   -4.55 KCAL/MOL
REMARK 922        TOTAL FREE ENERGY PREDICTED BY IDOCK:   -7.51 KCAL/MOL
REMARK 923 INTER-LIGAND FREE ENERGY PREDICTED BY IDOCK:   -6.52 KCAL/MOL
REMARK 924 INTRA-LIGAND FREE ENERGY PREDICTED BY IDOCK:   -0.99 KCAL/MOL
REMARK 927      BINDING AFFINITY PREDICTED BY RF-SCORE:    0.00 PKD
ROOT
HETATM    1  C   UNL     1     -13.029  15.733  73.442  1.00  0.00    -0.696 C  
HETATM    2  C   UNL     1     -13.808  15.334  72.194  1.00  0.00    -0.625 C  
ENDROOT
BRANCH   2   3
HETATM    3  C   UNL     1     -13.151  14.144  71.504  1.00  0.00    -0.424 C  
BRANCH   3   4
HETATM    4  C   UNL     1     -12.366  14.526  70.243  1.00  0.00    -0.408 C  
BRANCH   4   5
HETATM    5  C   UNL     1     -11.889  13.246  69.559  1.00  0.00    -0.327 C  
BRANCH   5   6
HETATM    6  O   UNL     1     -12.175  12.053  70.299  1.00  0.00    -0.312 OA 
BRANCH   6   7
HETATM    7  C   UNL     1     -11.457  10.978  69.885  1.00  0.00    -0.320 C  
HETATM    8  O   UNL     1     -11.115  10.065  70.619  1.00  0.00    -0.298 OA 
HETATM    9  N   UNL     1     -11.173  11.119  68.551  1.00  0.00    -0.234 N  
HETATM   10  H   UNL     1     -11.251  12.055  68.154  1.00  0.00     0.000 HD 
BRANCH   9  11
HETATM   11  C   UNL     1     -10.794  10.106  67.703  1.00  0.00    -0.290 C  
HETATM   12  N   UNL     1     -11.112   8.879  67.917  1.00  0.00    -0.464 N  
HETATM   13  C   UNL     1     -10.641   7.912  67.058  1.00  0.00    -0.311 C  
HETATM   14  H   UNL     1     -11.702   8.626  68.709  1.00  0.00     0.000 HD 
HETATM   15  N   UNL     1      -9.528   8.253  66.264  1.00  0.00    -0.213 N  
HETATM   16  O   UNL     1     -11.169   6.807  67.025  1.00  0.00    -0.393 OA 
HETATM   17  F   UNL     1      -9.874  11.865  66.297  1.00  0.00    -0.212 F  
HETATM   18  C   UNL     1      -9.349   9.585  65.909  1.00  0.00    -0.226 C  
HETATM   19  C   UNL     1      -9.999  10.552  66.555  1.00  0.00    -0.214 C  
BRANCH  15  20
HETATM   20  C   UNL     1      -8.779   7.193  65.573  1.00  0.00    -0.021 C  
HETATM   21  C   UNL     1      -6.716   6.895  66.653  1.00  0.00    -0.049 C  
HETATM   22  O   UNL     1      -8.042   6.381  66.509  1.00  0.00    -0.107 OA 
HETATM   23  C   UNL     1      -6.669   7.921  67.779  1.00  0.00    -0.068 C  
HETATM   24  C   UNL     1      -6.355   7.454  65.282  1.00  0.00    -0.038 C  
HETATM   25  O   UNL     1      -5.599   6.512  64.502  1.00  0.00    -0.028 OA 
HETATM   26  C   UNL     1      -7.701   7.705  64.590  1.00  0.00    -0.121 C  
HETATM   27  H   UNL     1      -5.373   6.861  63.647  1.00  0.00     0.000 HD 
HETATM   28  O   UNL     1      -7.805   7.011  63.337  1.00  0.00    -0.120 OA 
HETATM   29  H   UNL     1      -7.142   7.325  62.733  1.00  0.00     0.000 HD 
ENDBRANCH  15  20
ENDBRANCH   9  11
ENDBRANCH   6   7
ENDBRANCH   5   6
ENDBRANCH   4   5
ENDBRANCH   3   4
ENDBRANCH   2   3
TORSDOF 7
ENDMDL
MODEL      104
REMARK 921   NORMALIZED FREE ENERGY PREDICTED BY IDOCK:   -4.51 KCAL/MOL
REMARK 922        TOTAL FREE ENERGY PREDICTED BY IDOCK:   -7.46 KCAL/MOL
REMARK 923 INTER-LIGAND FREE ENERGY PREDICTED BY IDOCK:   -6.57 KCAL/MOL
REMARK 924 INTRA-LIGAND FREE ENERGY PREDICTED BY IDOCK:   -0.89 KCAL/MOL
REMARK 927      BINDING AFFINITY PREDICTED BY RF-SCORE:    0.00 PKD
ROOT
HETATM    1  C   UNL     1      -8.278   5.147  73.653  1.00  0.00    -0.109 C  
HETATM    2  C   UNL     1      -9.717   4.721  73.921  1.00  0.00    -0.153 C  
ENDROOT
BRANCH   2   3
HETATM    3  C   UNL     1     -10.474   4.523  72.612  1.00  0.00    -0.258 C  
BRANCH   3   4
HETATM    4  C   UNL     1      -9.572   4.565  71.372  1.00  0.00    -0.232 C  
BRANCH   4   5
HETATM    5  C   UNL     1     -10.013   5.728  70.487  1.00  0.00    -0.195 C  
BRANCH   5   6
HETATM    6  O   UNL     1      -9.636   7.016  70.991  1.00  0.00    -0.170 OA 
BRANCH   6   7
HETATM    7  C   UNL     1      -8.957   7.769  70.089  1.00  0.00    -0.146 C  
HETATM    8  O   UNL     1      -7.773   7.624  69.836  1.00  0.00    -0.093 OA 
HETATM    9  N   UNL     1      -9.809   8.704  69.558  1.00  0.00    -0.183 N  
HETATM   10  H   UNL     1     -10.663   8.904  70.077  1.00  0.00     0.000 HD 
BRANCH   9  11
HETATM   11  C   UNL     1      -9.609   9.393  68.387  1.00  0.00    -0.146 C  
HETATM   12  N   UNL     1      -8.876  10.448  68.329  1.00  0.00    -0.131 N  
HETATM   13  C   UNL     1      -8.774  11.121  67.132  1.00  0.00    -0.141 C  
HETATM   14  H   UNL     1      -8.379  10.780  69.155  1.00  0.00     0.000 HD 
HETATM   15  N   UNL     1      -9.778  10.872  66.175  1.00  0.00    -0.202 N  
HETATM   16  O   UNL     1      -7.857  11.912  66.947  1.00  0.00    -0.160 OA 
HETATM   17  F   UNL     1     -10.890   7.617  67.327  1.00  0.00    -0.353 F  
HETATM   18  C   UNL     1     -10.402   9.630  66.174  1.00  0.00    -0.132 C  
HETATM   19  C   UNL     1     -10.306   8.822  67.229  1.00  0.00    -0.290 C  
BRANCH  15  20
HETATM   20  C   UNL     1      -9.920  11.776  65.024  1.00  0.00    -0.254 C  
HETATM   21  C   UNL     1     -11.577  13.366  65.507  1.00  0.00    -0.325 C  
HETATM   22  O   UNL     1     -10.169  13.129  65.451  1.00  0.00    -0.295 OA 
HETATM   23  C   UNL     1     -12.114  13.019  66.891  1.00  0.00    -0.349 C  
HETATM   24  C   UNL     1     -12.166  12.528  64.379  1.00  0.00    -0.449 C  
HETATM   25  O   UNL     1     -12.372  13.303  63.187  1.00  0.00    -0.809 OA 
HETATM   26  C   UNL     1     -11.112  11.450  64.095  1.00  0.00    -0.308 C  
HETATM   27  H   UNL     1     -12.740  12.781  62.483  1.00  0.00     0.000 HD 
HETATM   28  O   UNL     1     -10.686  11.455  62.724  1.00  0.00    -0.688 OA 
HETATM   29  H   UNL     1     -11.419  11.256  62.153  1.00  0.00     0.000 HD 
ENDBRANCH  15  20
ENDBRANCH   9  11
ENDBRANCH   6   7
ENDBRANCH   5   6
ENDBRANCH   4   5
ENDBRANCH   3   4
ENDBRANCH   2   3
TORSDOF 7
ENDMDL
MODEL      105
REMARK 921   NORMALIZED FREE ENERGY PREDICTED BY IDOCK:   -4.51 KCAL/MOL
REMARK 922        TOTAL FREE ENERGY PREDICTED BY IDOCK:   -7.46 KCAL/MOL
REMARK 923 INTER-LIGAND FREE ENERGY PREDICTED BY IDOCK:   -7.09 KCAL/MOL
REMARK 924 INTRA-LIGAND FREE ENERGY PREDICTED BY IDOCK:   -0.38 KCAL/MOL
REMARK 927      BINDING AFFINITY PREDICTED BY RF-SCORE:    0.00 PKD
ROOT
HETATM    1  C   UNL     1      -8.114   6.170  71.893  1.00  0.00    -0.107 C  
HETATM    2  C   UNL     1      -8.595   7.261  72.844  1.00  0.00    -0.148 C  
ENDROOT
BRANCH   2   3
HETATM    3  C   UNL     1      -9.910   7.859  72.359  1.00  0.00    -0.287 C  
BRANCH   3   4
HETATM    4  C   UNL     1     -10.394   7.272  71.027  1.00  0.00    -0.208 C  
BRANCH   4   5
HETATM    5  C   UNL     1     -11.535   8.138  70.498  1.00  0.00    -0.178 C  
BRANCH   5   6
HETATM    6  O   UNL     1     -11.360   9.539  70.741  1.00  0.00    -0.273 OA 
BRANCH   6   7
HETATM    7  C   UNL     1     -10.700  10.180  69.744  1.00  0.00    -0.279 C  
HETATM    8  O   UNL     1      -9.861   9.651  69.034  1.00  0.00    -0.169 OA 
HETATM    9  N   UNL     1     -11.113  11.487  69.703  1.00  0.00    -0.443 N  
HETATM   10  H   UNL     1     -11.575  11.856  70.534  1.00  0.00     0.000 HD 
BRANCH   9  11
HETATM   11  C   UNL     1     -10.959  12.341  68.638  1.00  0.00    -0.239 C  
HETATM   12  N   UNL     1     -10.401  11.973  67.540  1.00  0.00    -0.199 N  
HETATM   13  C   UNL     1     -10.224  12.903  66.540  1.00  0.00    -0.259 C  
HETATM   14  H   UNL     1     -10.095  11.009  67.411  1.00  0.00     0.000 HD 
HETATM   15  N   UNL     1     -10.275  14.260  66.917  1.00  0.00    -0.263 N  
HETATM   16  O   UNL     1     -10.009  12.539  65.391  1.00  0.00    -0.265 OA 
HETATM   17  F   UNL     1     -12.215  13.945  69.967  1.00  0.00    -0.332 F  
HETATM   18  C   UNL     1     -11.056  14.617  68.010  1.00  0.00    -0.281 C  
HETATM   19  C   UNL     1     -11.476  13.693  68.874  1.00  0.00    -0.303 C  
BRANCH  15  20
HETATM   20  C   UNL     1      -9.782  15.288  65.989  1.00  0.00    -0.335 C  
HETATM   21  C   UNL     1      -8.318  16.713  67.144  1.00  0.00    -0.177 C  
HETATM   22  O   UNL     1      -8.400  15.604  66.247  1.00  0.00    -0.254 OA 
HETATM   23  C   UNL     1      -8.290  16.223  68.587  1.00  0.00    -0.220 C  
HETATM   24  C   UNL     1      -9.518  17.589  66.804  1.00  0.00    -0.275 C  
HETATM   25  O   UNL     1      -9.166  18.655  65.906  1.00  0.00    -0.472 OA 
HETATM   26  C   UNL     1     -10.505  16.651  66.098  1.00  0.00    -0.285 C  
HETATM   27  H   UNL     1      -9.914  19.202  65.694  1.00  0.00     0.000 HD 
HETATM   28  O   UNL     1     -10.865  17.125  64.792  1.00  0.00    -0.834 OA 
HETATM   29  H   UNL     1     -11.309  17.963  64.858  1.00  0.00     0.000 HD 
ENDBRANCH  15  20
ENDBRANCH   9  11
ENDBRANCH   6   7
ENDBRANCH   5   6
ENDBRANCH   4   5
ENDBRANCH   3   4
ENDBRANCH   2   3
TORSDOF 7
ENDMDL
MODEL      106
REMARK 921   NORMALIZED FREE ENERGY PREDICTED BY IDOCK:   -4.51 KCAL/MOL
REMARK 922        TOTAL FREE ENERGY PREDICTED BY IDOCK:   -7.46 KCAL/MOL
REMARK 923 INTER-LIGAND FREE ENERGY PREDICTED BY IDOCK:   -6.60 KCAL/MOL
REMARK 924 INTRA-LIGAND FREE ENERGY PREDICTED BY IDOCK:   -0.86 KCAL/MOL
REMARK 927      BINDING AFFINITY PREDICTED BY RF-SCORE:    0.00 PKD
ROOT
HETATM    1  C   UNL     1      -9.330   7.761  73.644  1.00  0.00    -0.336 C  
HETATM    2  C   UNL     1     -10.398   7.677  72.559  1.00  0.00    -0.310 C  
ENDROOT
BRANCH   2   3
HETATM    3  C   UNL     1      -9.914   6.827  71.389  1.00  0.00    -0.191 C  
BRANCH   3   4
HETATM    4  C   UNL     1     -11.053   6.265  70.530  1.00  0.00    -0.399 C  
BRANCH   4   5
HETATM    5  C   UNL     1     -10.469   5.256  69.544  1.00  0.00    -0.234 C  
BRANCH   5   6
HETATM    6  O   UNL     1      -9.459   5.803  68.686  1.00  0.00    -0.120 OA 
BRANCH   6   7
HETATM    7  C   UNL     1      -9.963   6.507  67.642  1.00  0.00    -0.130 C  
HETATM    8  O   UNL     1     -10.747   6.049  66.828  1.00  0.00    -0.291 OA 
HETATM    9  N   UNL     1      -9.427   7.770  67.655  1.00  0.00    -0.142 N  
HETATM   10  H   UNL     1      -8.573   7.907  68.195  1.00  0.00     0.000 HD 
BRANCH   9  11
HETATM   11  C   UNL     1      -9.942   8.863  67.003  1.00  0.00    -0.233 C  
HETATM   12  N   UNL     1      -9.637   9.141  65.785  1.00  0.00    -0.355 N  
HETATM   13  C   UNL     1     -10.143  10.290  65.220  1.00  0.00    -0.289 C  
HETATM   14  H   UNL     1      -9.031   8.522  65.248  1.00  0.00     0.000 HD 
HETATM   15  N   UNL     1     -10.608  11.284  66.105  1.00  0.00    -0.258 N  
HETATM   16  O   UNL     1     -10.154  10.424  64.002  1.00  0.00    -0.307 OA 
HETATM   17  F   UNL     1     -11.271   9.215  69.010  1.00  0.00    -0.146 F  
HETATM   18  C   UNL     1     -11.104  10.892  67.342  1.00  0.00    -0.307 C  
HETATM   19  C   UNL     1     -10.852   9.673  67.819  1.00  0.00    -0.217 C  
BRANCH  15  20
HETATM   20  C   UNL     1     -10.856  12.643  65.601  1.00  0.00    -0.274 C  
HETATM   21  C   UNL     1      -9.690  14.174  66.944  1.00  0.00    -0.269 C  
HETATM   22  O   UNL     1      -9.675  13.461  65.706  1.00  0.00    -0.230 OA 
HETATM   23  C   UNL     1      -9.003  13.356  68.031  1.00  0.00    -0.190 C  
HETATM   24  C   UNL     1     -11.161  14.466  67.216  1.00  0.00    -0.323 C  
HETATM   25  O   UNL     1     -11.535  15.784  66.781  1.00  0.00    -0.027 OA 
HETATM   26  C   UNL     1     -11.930  13.432  66.385  1.00  0.00    -0.406 C  
HETATM   27  H   UNL     1     -12.452  15.967  66.951  1.00  0.00     0.000 HD 
HETATM   28  O   UNL     1     -12.855  14.046  65.475  1.00  0.00    -0.615 OA 
HETATM   29  H   UNL     1     -13.515  14.531  65.956  1.00  0.00     0.000 HD 
ENDBRANCH  15  20
ENDBRANCH   9  11
ENDBRANCH   6   7
ENDBRANCH   5   6
ENDBRANCH   4   5
ENDBRANCH   3   4
ENDBRANCH   2   3
TORSDOF 7
ENDMDL
MODEL      107
REMARK 921   NORMALIZED FREE ENERGY PREDICTED BY IDOCK:   -4.49 KCAL/MOL
REMARK 922        TOTAL FREE ENERGY PREDICTED BY IDOCK:   -7.42 KCAL/MOL
REMARK 923 INTER-LIGAND FREE ENERGY PREDICTED BY IDOCK:   -6.44 KCAL/MOL
REMARK 924 INTRA-LIGAND FREE ENERGY PREDICTED BY IDOCK:   -0.98 KCAL/MOL
REMARK 927      BINDING AFFINITY PREDICTED BY RF-SCORE:    0.00 PKD
ROOT
HETATM    1  C   UNL     1     -12.532  15.623  74.325  1.00  0.00    -0.804 C  
HETATM    2  C   UNL     1     -12.861  14.801  73.085  1.00  0.00    -0.614 C  
ENDROOT
BRANCH   2   3
HETATM    3  C   UNL     1     -12.961  15.696  71.854  1.00  0.00    -0.541 C  
BRANCH   3   4
HETATM    4  C   UNL     1     -11.606  15.977  71.192  1.00  0.00    -0.492 C  
BRANCH   4   5
HETATM    5  C   UNL     1     -11.757  15.805  69.682  1.00  0.00    -0.355 C  
BRANCH   5   6
HETATM    6  O   UNL     1     -10.626  15.187  69.054  1.00  0.00    -0.228 OA 
BRANCH   6   7
HETATM    7  C   UNL     1     -10.780  13.853  68.862  1.00  0.00    -0.236 C  
HETATM    8  O   UNL     1     -11.847  13.270  68.959  1.00  0.00    -0.295 OA 
HETATM    9  N   UNL     1      -9.557  13.300  68.578  1.00  0.00    -0.362 N  
HETATM   10  H   UNL     1      -8.731  13.841  68.832  1.00  0.00     0.000 HD 
BRANCH   9  11
HETATM   11  C   UNL     1      -9.351  12.080  67.982  1.00  0.00    -0.196 C  
HETATM   12  N   UNL     1     -10.123  11.630  67.058  1.00  0.00    -0.207 N  
HETATM   13  C   UNL     1      -9.890  10.370  66.553  1.00  0.00    -0.206 C  
HETATM   14  H   UNL     1     -10.895  12.195  66.705  1.00  0.00     0.000 HD 
HETATM   15  N   UNL     1      -9.107   9.503  67.341  1.00  0.00    -0.130 N  
HETATM   16  O   UNL     1     -10.374  10.039  65.477  1.00  0.00    -0.241 OA 
HETATM   17  F   UNL     1      -7.322  11.965  69.320  1.00  0.00    -0.101 F  
HETATM   18  C   UNL     1      -8.151  10.055  68.186  1.00  0.00    -0.108 C  
HETATM   19  C   UNL     1      -8.188  11.350  68.497  1.00  0.00    -0.153 C  
BRANCH  15  20
HETATM   20  C   UNL     1      -9.084   8.066  67.031  1.00  0.00    -0.144 C  
HETATM   21  C   UNL     1     -10.263   6.912  68.701  1.00  0.00    -0.173 C  
HETATM   22  O   UNL     1     -10.336   7.439  67.375  1.00  0.00    -0.215 OA 
HETATM   23  C   UNL     1     -10.716   7.961  69.710  1.00  0.00    -0.233 C  
HETATM   24  C   UNL     1      -8.816   6.463  68.871  1.00  0.00    -0.125 C  
HETATM   25  O   UNL     1      -8.658   5.058  68.611  1.00  0.00    -0.094 OA 
HETATM   26  C   UNL     1      -8.030   7.256  67.820  1.00  0.00    -0.115 C  
HETATM   27  H   UNL     1      -7.756   4.778  68.717  1.00  0.00     0.000 HD 
HETATM   28  O   UNL     1      -7.298   6.399  66.930  1.00  0.00    -0.076 OA 
HETATM   29  H   UNL     1      -6.650   5.901  67.415  1.00  0.00     0.000 HD 
ENDBRANCH  15  20
ENDBRANCH   9  11
ENDBRANCH   6   7
ENDBRANCH   5   6
ENDBRANCH   4   5
ENDBRANCH   3   4
ENDBRANCH   2   3
TORSDOF 7
ENDMDL
MODEL      108
REMARK 921   NORMALIZED FREE ENERGY PREDICTED BY IDOCK:   -4.49 KCAL/MOL
REMARK 922        TOTAL FREE ENERGY PREDICTED BY IDOCK:   -7.42 KCAL/MOL
REMARK 923 INTER-LIGAND FREE ENERGY PREDICTED BY IDOCK:   -6.16 KCAL/MOL
REMARK 924 INTRA-LIGAND FREE ENERGY PREDICTED BY IDOCK:   -1.26 KCAL/MOL
REMARK 927      BINDING AFFINITY PREDICTED BY RF-SCORE:    0.00 PKD
ROOT
HETATM    1  C   UNL     1      -9.470   4.447  67.022  1.00  0.00    -0.194 C  
HETATM    2  C   UNL     1     -10.071   4.527  68.421  1.00  0.00    -0.030 C  
ENDROOT
BRANCH   2   3
HETATM    3  C   UNL     1      -9.127   3.914  69.450  1.00  0.00    -0.196 C  
BRANCH   3   4
HETATM    4  C   UNL     1      -8.501   4.947  70.394  1.00  0.00    -0.104 C  
BRANCH   4   5
HETATM    5  C   UNL     1      -9.478   6.109  70.563  1.00  0.00    -0.164 C  
BRANCH   5   6
HETATM    6  O   UNL     1      -8.878   7.298  71.093  1.00  0.00    -0.138 OA 
BRANCH   6   7
HETATM    7  C   UNL     1      -9.112   8.401  70.338  1.00  0.00    -0.149 C  
HETATM    8  O   UNL     1      -9.164   9.534  70.787  1.00  0.00    -0.236 OA 
HETATM    9  N   UNL     1      -9.302   8.017  69.035  1.00  0.00    -0.148 N  
HETATM   10  H   UNL     1      -9.535   7.039  68.866  1.00  0.00     0.000 HD 
BRANCH   9  11
HETATM   11  C   UNL     1      -9.206   8.838  67.937  1.00  0.00    -0.139 C  
HETATM   12  N   UNL     1      -8.336   9.782  67.862  1.00  0.00    -0.113 N  
HETATM   13  C   UNL     1      -8.342  10.604  66.758  1.00  0.00    -0.132 C  
HETATM   14  H   UNL     1      -7.653   9.919  68.607  1.00  0.00     0.000 HD 
HETATM   15  N   UNL     1      -9.527  10.637  65.995  1.00  0.00    -0.185 N  
HETATM   16  O   UNL     1      -7.358  11.283  66.490  1.00  0.00    -0.143 OA 
HETATM   17  F   UNL     1     -10.923   7.427  66.949  1.00  0.00    -0.422 F  
HETATM   18  C   UNL     1     -10.332   9.504  65.970  1.00  0.00    -0.060 C  
HETATM   19  C   UNL     1     -10.180   8.544  66.881  1.00  0.00    -0.305 C  
BRANCH  15  20
HETATM   20  C   UNL     1      -9.724  11.711  65.011  1.00  0.00    -0.211 C  
HETATM   21  C   UNL     1     -11.403  13.155  65.791  1.00  0.00    -0.306 C  
HETATM   22  O   UNL     1      -9.992  12.970  65.660  1.00  0.00    -0.275 OA 
HETATM   23  C   UNL     1     -11.889  12.573  67.113  1.00  0.00    -0.386 C  
HETATM   24  C   UNL     1     -12.006  12.495  64.557  1.00  0.00    -0.404 C  
HETATM   25  O   UNL     1     -12.266  13.448  63.513  1.00  0.00    -0.727 OA 
HETATM   26  C   UNL     1     -10.937  11.507  64.073  1.00  0.00    -0.383 C  
HETATM   27  H   UNL     1     -12.643  13.036  62.743  1.00  0.00     0.000 HD 
HETATM   28  O   UNL     1     -10.553  11.747  62.711  1.00  0.00    -0.613 OA 
HETATM   29  H   UNL     1     -11.298  11.622  62.134  1.00  0.00     0.000 HD 
ENDBRANCH  15  20
ENDBRANCH   9  11
ENDBRANCH   6   7
ENDBRANCH   5   6
ENDBRANCH   4   5
ENDBRANCH   3   4
ENDBRANCH   2   3
TORSDOF 7
ENDMDL
MODEL      109
REMARK 921   NORMALIZED FREE ENERGY PREDICTED BY IDOCK:   -4.48 KCAL/MOL
REMARK 922        TOTAL FREE ENERGY PREDICTED BY IDOCK:   -7.42 KCAL/MOL
REMARK 923 INTER-LIGAND FREE ENERGY PREDICTED BY IDOCK:   -6.91 KCAL/MOL
REMARK 924 INTRA-LIGAND FREE ENERGY PREDICTED BY IDOCK:   -0.51 KCAL/MOL
REMARK 927      BINDING AFFINITY PREDICTED BY RF-SCORE:    0.00 PKD
ROOT
HETATM    1  C   UNL     1      -9.234   4.592  71.852  1.00  0.00    -0.178 C  
HETATM    2  C   UNL     1     -10.215   5.758  71.799  1.00  0.00    -0.245 C  
ENDROOT
BRANCH   2   3
HETATM    3  C   UNL     1      -9.536   7.055  72.225  1.00  0.00    -0.165 C  
BRANCH   3   4
HETATM    4  C   UNL     1      -9.660   8.178  71.188  1.00  0.00    -0.196 C  
BRANCH   4   5
HETATM    5  C   UNL     1      -8.287   8.420  70.565  1.00  0.00    -0.126 C  
BRANCH   5   6
HETATM    6  O   UNL     1      -7.919   7.449  69.577  1.00  0.00    -0.121 OA 
BRANCH   6   7
HETATM    7  C   UNL     1      -7.953   7.933  68.309  1.00  0.00    -0.122 C  
HETATM    8  O   UNL     1      -7.260   7.508  67.401  1.00  0.00    -0.082 OA 
HETATM    9  N   UNL     1      -8.854   8.965  68.250  1.00  0.00    -0.134 N  
HETATM   10  H   UNL     1      -9.121   9.402  69.132  1.00  0.00     0.000 HD 
BRANCH   9  11
HETATM   11  C   UNL     1      -9.428   9.461  67.104  1.00  0.00    -0.145 C  
HETATM   12  N   UNL     1      -8.881   9.321  65.949  1.00  0.00    -0.156 N  
HETATM   13  C   UNL     1      -9.483   9.901  64.855  1.00  0.00    -0.291 C  
HETATM   14  H   UNL     1      -8.016   8.790  65.845  1.00  0.00     0.000 HD 
HETATM   15  N   UNL     1     -10.404  10.936  65.109  1.00  0.00    -0.286 N  
HETATM   16  O   UNL     1      -9.194   9.529  63.724  1.00  0.00    -0.209 OA 
HETATM   17  F   UNL     1     -11.298  10.095  68.524  1.00  0.00    -0.278 F  
HETATM   18  C   UNL     1     -11.106  10.921  66.309  1.00  0.00     0.033 C  
HETATM   19  C   UNL     1     -10.698  10.159  67.324  1.00  0.00    -0.254 C  
BRANCH  15  20
HETATM   20  C   UNL     1     -10.836  11.808  64.007  1.00  0.00    -0.385 C  
HETATM   21  C   UNL     1     -10.597  14.046  64.672  1.00  0.00    -0.395 C  
HETATM   22  O   UNL     1     -10.008  12.984  63.918  1.00  0.00    -0.311 OA 
HETATM   23  C   UNL     1     -10.089  14.015  66.108  1.00  0.00    -0.319 C  
HETATM   24  C   UNL     1     -12.101  13.845  64.535  1.00  0.00    -0.443 C  
HETATM   25  O   UNL     1     -12.658  14.660  63.491  1.00  0.00    -1.019 OA 
HETATM   26  C   UNL     1     -12.270  12.368  64.156  1.00  0.00    -0.468 C  
HETATM   27  H   UNL     1     -13.596  14.535  63.406  1.00  0.00     0.000 HD 
HETATM   28  O   UNL     1     -12.995  12.202  62.928  1.00  0.00    -0.619 OA 
HETATM   29  H   UNL     1     -13.876  12.547  63.019  1.00  0.00     0.000 HD 
ENDBRANCH  15  20
ENDBRANCH   9  11
ENDBRANCH   6   7
ENDBRANCH   5   6
ENDBRANCH   4   5
ENDBRANCH   3   4
ENDBRANCH   2   3
TORSDOF 7
ENDMDL
MODEL      110
REMARK 921   NORMALIZED FREE ENERGY PREDICTED BY IDOCK:   -4.46 KCAL/MOL
REMARK 922        TOTAL FREE ENERGY PREDICTED BY IDOCK:   -7.39 KCAL/MOL
REMARK 923 INTER-LIGAND FREE ENERGY PREDICTED BY IDOCK:   -7.92 KCAL/MOL
REMARK 924 INTRA-LIGAND FREE ENERGY PREDICTED BY IDOCK:    0.53 KCAL/MOL
REMARK 927      BINDING AFFINITY PREDICTED BY RF-SCORE:    0.00 PKD
ROOT
HETATM    1  C   UNL     1     -10.366  18.785  67.568  1.00  0.00    -0.471 C  
HETATM    2  C   UNL     1      -9.587  17.730  66.791  1.00  0.00    -0.301 C  
ENDROOT
BRANCH   2   3
HETATM    3  C   UNL     1     -10.138  16.337  67.070  1.00  0.00    -0.270 C  
BRANCH   3   4
HETATM    4  C   UNL     1     -10.538  15.573  65.801  1.00  0.00    -0.370 C  
BRANCH   4   5
HETATM    5  C   UNL     1     -11.153  14.237  66.209  1.00  0.00    -0.323 C  
BRANCH   5   6
HETATM    6  O   UNL     1     -11.049  13.955  67.611  1.00  0.00    -0.265 OA 
BRANCH   6   7
HETATM    7  C   UNL     1     -11.440  12.697  67.937  1.00  0.00    -0.309 C  
HETATM    8  O   UNL     1     -12.026  11.948  67.174  1.00  0.00    -0.611 OA 
HETATM    9  N   UNL     1     -11.094  12.447  69.240  1.00  0.00    -0.413 N  
HETATM   10  H   UNL     1     -10.896  13.252  69.833  1.00  0.00     0.000 HD 
BRANCH   9  11
HETATM   11  C   UNL     1     -10.990  11.203  69.815  1.00  0.00    -0.150 C  
HETATM   12  N   UNL     1     -11.848  10.770  70.670  1.00  0.00    -0.342 N  
HETATM   13  C   UNL     1     -11.643   9.539  71.251  1.00  0.00    -0.374 C  
HETATM   14  H   UNL     1     -12.666  11.329  70.913  1.00  0.00     0.000 HD 
HETATM   15  N   UNL     1     -10.333   9.021  71.199  1.00  0.00    -0.264 N  
HETATM   16  O   UNL     1     -12.569   8.955  71.800  1.00  0.00    -0.319 OA 
HETATM   17  F   UNL     1      -9.086  10.871  68.339  1.00  0.00    -0.137 F  
HETATM   18  C   UNL     1      -9.516   9.385  70.135  1.00  0.00    -0.240 C  
HETATM   19  C   UNL     1      -9.824  10.433  69.372  1.00  0.00    -0.213 C  
BRANCH  15  20
HETATM   20  C   UNL     1      -9.969   7.888  72.062  1.00  0.00    -0.193 C  
HETATM   21  C   UNL     1     -10.556   5.890  70.977  1.00  0.00    -0.250 C  
HETATM   22  O   UNL     1      -9.478   6.778  71.284  1.00  0.00    -0.165 OA 
HETATM   23  C   UNL     1     -11.211   6.293  69.662  1.00  0.00    -0.506 C  
HETATM   24  C   UNL     1     -11.483   5.959  72.185  1.00  0.00    -0.276 C  
HETATM   25  O   UNL     1     -11.239   4.886  73.110  1.00  0.00    -0.293 OA 
HETATM   26  C   UNL     1     -11.145   7.290  72.868  1.00  0.00    -0.325 C  
HETATM   27  H   UNL     1     -11.817   4.929  73.862  1.00  0.00     0.000 HD 
HETATM   28  O   UNL     1     -10.763   7.114  74.241  1.00  0.00    -0.540 OA 
HETATM   29  H   UNL     1     -11.485   6.746  74.737  1.00  0.00     0.000 HD 
ENDBRANCH  15  20
ENDBRANCH   9  11
ENDBRANCH   6   7
ENDBRANCH   5   6
ENDBRANCH   4   5
ENDBRANCH   3   4
ENDBRANCH   2   3
TORSDOF 7
ENDMDL
MODEL      111
REMARK 921   NORMALIZED FREE ENERGY PREDICTED BY IDOCK:   -4.44 KCAL/MOL
REMARK 922        TOTAL FREE ENERGY PREDICTED BY IDOCK:   -7.36 KCAL/MOL
REMARK 923 INTER-LIGAND FREE ENERGY PREDICTED BY IDOCK:   -6.26 KCAL/MOL
REMARK 924 INTRA-LIGAND FREE ENERGY PREDICTED BY IDOCK:   -1.10 KCAL/MOL
REMARK 927      BINDING AFFINITY PREDICTED BY RF-SCORE:    0.00 PKD
ROOT
HETATM    1  C   UNL     1      -9.764  15.804  65.769  1.00  0.00    -0.372 C  
HETATM    2  C   UNL     1     -10.817  15.212  64.839  1.00  0.00    -0.437 C  
ENDROOT
BRANCH   2   3
HETATM    3  C   UNL     1     -10.672  13.697  64.752  1.00  0.00    -0.420 C  
BRANCH   3   4
HETATM    4  C   UNL     1     -11.979  12.942  65.019  1.00  0.00    -0.445 C  
BRANCH   4   5
HETATM    5  C   UNL     1     -12.502  13.344  66.397  1.00  0.00    -0.236 C  
BRANCH   5   6
HETATM    6  O   UNL     1     -11.544  13.179  67.450  1.00  0.00    -0.314 OA 
BRANCH   6   7
HETATM    7  C   UNL     1     -11.566  11.942  68.009  1.00  0.00    -0.332 C  
HETATM    8  O   UNL     1     -12.520  11.487  68.616  1.00  0.00    -0.335 OA 
HETATM    9  N   UNL     1     -10.353  11.336  67.797  1.00  0.00    -0.178 N  
HETATM   10  H   UNL     1      -9.567  11.939  67.555  1.00  0.00     0.000 HD 
BRANCH   9  11
HETATM   11  C   UNL     1     -10.108   9.988  67.884  1.00  0.00    -0.169 C  
HETATM   12  N   UNL     1     -10.907   9.113  67.384  1.00  0.00    -0.424 N  
HETATM   13  C   UNL     1     -10.627   7.777  67.567  1.00  0.00    -0.248 C  
HETATM   14  H   UNL     1     -11.733   9.403  66.861  1.00  0.00     0.000 HD 
HETATM   15  N   UNL     1      -9.744   7.449  68.615  1.00  0.00    -0.150 N  
HETATM   16  O   UNL     1     -11.155   6.934  66.852  1.00  0.00    -0.379 OA 
HETATM   17  F   UNL     1      -7.997  10.615  68.917  1.00  0.00    -0.097 F  
HETATM   18  C   UNL     1      -8.774   8.376  68.980  1.00  0.00    -0.142 C  
HETATM   19  C   UNL     1      -8.872   9.648  68.596  1.00  0.00    -0.128 C  
BRANCH  15  20
HETATM   20  C   UNL     1      -9.650   6.056  69.073  1.00  0.00    -0.131 C  
HETATM   21  C   UNL     1     -10.741   5.863  71.143  1.00  0.00    -0.265 C  
HETATM   22  O   UNL     1     -10.861   5.643  69.736  1.00  0.00    -0.336 OA 
HETATM   23  C   UNL     1     -11.233   7.261  71.500  1.00  0.00    -0.273 C  
HETATM   24  C   UNL     1      -9.271   5.618  71.459  1.00  0.00    -0.143 C  
HETATM   25  O   UNL     1      -9.042   4.282  71.938  1.00  0.00    -0.117 OA 
HETATM   26  C   UNL     1      -8.542   5.798  70.121  1.00  0.00    -0.128 C  
HETATM   27  H   UNL     1      -8.125   4.129  72.136  1.00  0.00     0.000 HD 
HETATM   28  O   UNL     1      -7.780   4.637  69.758  1.00  0.00    -0.057 OA 
HETATM   29  H   UNL     1      -7.100   4.478  70.402  1.00  0.00     0.000 HD 
ENDBRANCH  15  20
ENDBRANCH   9  11
ENDBRANCH   6   7
ENDBRANCH   5   6
ENDBRANCH   4   5
ENDBRANCH   3   4
ENDBRANCH   2   3
TORSDOF 7
ENDMDL
MODEL      112
REMARK 921   NORMALIZED FREE ENERGY PREDICTED BY IDOCK:   -4.43 KCAL/MOL
REMARK 922        TOTAL FREE ENERGY PREDICTED BY IDOCK:   -7.35 KCAL/MOL
REMARK 923 INTER-LIGAND FREE ENERGY PREDICTED BY IDOCK:   -6.31 KCAL/MOL
REMARK 924 INTRA-LIGAND FREE ENERGY PREDICTED BY IDOCK:   -1.03 KCAL/MOL
REMARK 927      BINDING AFFINITY PREDICTED BY RF-SCORE:    0.00 PKD
ROOT
HETATM    1  C   UNL     1     -11.897  14.476  69.215  1.00  0.00    -0.361 C  
HETATM    2  C   UNL     1     -11.879  14.452  67.691  1.00  0.00    -0.412 C  
ENDROOT
BRANCH   2   3
HETATM    3  C   UNL     1     -10.845  13.456  67.179  1.00  0.00    -0.284 C  
BRANCH   3   4
HETATM    4  C   UNL     1     -11.456  12.136  66.695  1.00  0.00    -0.426 C  
BRANCH   4   5
HETATM    5  C   UNL     1     -11.189  11.060  67.746  1.00  0.00    -0.308 C  
BRANCH   5   6
HETATM    6  O   UNL     1     -12.207  10.967  68.750  1.00  0.00    -0.546 OA 
BRANCH   6   7
HETATM    7  C   UNL     1     -11.782  10.370  69.893  1.00  0.00    -0.264 C  
HETATM    8  O   UNL     1     -11.779  10.914  70.984  1.00  0.00    -0.273 OA 
HETATM    9  N   UNL     1     -11.348   9.103  69.598  1.00  0.00    -0.437 N  
HETATM   10  H   UNL     1     -11.124   8.902  68.624  1.00  0.00     0.000 HD 
BRANCH   9  11
HETATM   11  C   UNL     1     -11.189   8.082  70.503  1.00  0.00    -0.250 C  
HETATM   12  N   UNL     1     -11.034   8.300  71.761  1.00  0.00    -0.260 N  
HETATM   13  C   UNL     1     -10.816   7.228  72.598  1.00  0.00    -0.290 C  
HETATM   14  H   UNL     1     -11.071   9.249  72.132  1.00  0.00     0.000 HD 
HETATM   15  N   UNL     1     -10.368   6.033  72.000  1.00  0.00    -0.198 N  
HETATM   16  O   UNL     1     -10.989   7.345  73.805  1.00  0.00    -0.276 OA 
HETATM   17  F   UNL     1     -11.566   6.588  68.621  1.00  0.00    -0.312 F  
HETATM   18  C   UNL     1     -10.735   5.770  70.685  1.00  0.00    -0.281 C  
HETATM   19  C   UNL     1     -11.206   6.743  69.906  1.00  0.00    -0.326 C  
BRANCH  15  20
HETATM   20  C   UNL     1      -9.813   4.966  72.844  1.00  0.00    -0.150 C  
HETATM   21  C   UNL     1      -7.495   4.849  72.492  1.00  0.00    -0.090 C  
HETATM   22  O   UNL     1      -8.519   5.332  73.364  1.00  0.00    -0.113 OA 
HETATM   23  C   UNL     1      -7.168   5.895  71.433  1.00  0.00    -0.079 C  
HETATM   24  C   UNL     1      -8.035   3.538  71.931  1.00  0.00    -0.063 C  
HETATM   25  O   UNL     1      -7.551   2.401  72.664  1.00  0.00    -0.048 OA 
HETATM   26  C   UNL     1      -9.557   3.631  72.106  1.00  0.00    -0.146 C  
HETATM   27  H   UNL     1      -7.887   1.584  72.314  1.00  0.00     0.000 HD 
HETATM   28  O   UNL     1     -10.083   2.535  72.870  1.00  0.00    -0.119 OA 
HETATM   29  H   UNL     1      -9.925   1.715  72.416  1.00  0.00     0.000 HD 
ENDBRANCH  15  20
ENDBRANCH   9  11
ENDBRANCH   6   7
ENDBRANCH   5   6
ENDBRANCH   4   5
ENDBRANCH   3   4
ENDBRANCH   2   3
TORSDOF 7
ENDMDL
MODEL      113
REMARK 921   NORMALIZED FREE ENERGY PREDICTED BY IDOCK:   -4.43 KCAL/MOL
REMARK 922        TOTAL FREE ENERGY PREDICTED BY IDOCK:   -7.34 KCAL/MOL
REMARK 923 INTER-LIGAND FREE ENERGY PREDICTED BY IDOCK:   -6.36 KCAL/MOL
REMARK 924 INTRA-LIGAND FREE ENERGY PREDICTED BY IDOCK:   -0.98 KCAL/MOL
REMARK 927      BINDING AFFINITY PREDICTED BY RF-SCORE:    0.00 PKD
ROOT
HETATM    1  C   UNL     1     -12.703  12.426  64.372  1.00  0.00    -0.434 C  
HETATM    2  C   UNL     1     -11.883  13.672  64.686  1.00  0.00    -0.427 C  
ENDROOT
BRANCH   2   3
HETATM    3  C   UNL     1     -11.055  13.469  65.950  1.00  0.00    -0.292 C  
BRANCH   3   4
HETATM    4  C   UNL     1     -11.875  13.579  67.241  1.00  0.00    -0.427 C  
BRANCH   4   5
HETATM    5  C   UNL     1     -11.318  12.585  68.259  1.00  0.00    -0.286 C  
BRANCH   5   6
HETATM    6  O   UNL     1     -12.181  12.358  69.380  1.00  0.00    -0.202 OA 
BRANCH   6   7
HETATM    7  C   UNL     1     -11.879  11.231  70.072  1.00  0.00    -0.367 C  
HETATM    8  O   UNL     1     -12.473  10.868  71.074  1.00  0.00    -0.349 OA 
HETATM    9  N   UNL     1     -10.807  10.615  69.476  1.00  0.00    -0.244 N  
HETATM   10  H   UNL     1     -10.234  11.181  68.850  1.00  0.00     0.000 HD 
BRANCH   9  11
HETATM   11  C   UNL     1     -10.441   9.303  69.651  1.00  0.00    -0.224 C  
HETATM   12  N   UNL     1     -11.258   8.331  69.449  1.00  0.00    -0.425 N  
HETATM   13  C   UNL     1     -10.837   7.046  69.706  1.00  0.00    -0.248 C  
HETATM   14  H   UNL     1     -12.201   8.509  69.104  1.00  0.00     0.000 HD 
HETATM   15  N   UNL     1      -9.717   6.899  70.550  1.00  0.00    -0.173 N  
HETATM   16  O   UNL     1     -11.442   6.093  69.230  1.00  0.00    -0.404 OA 
HETATM   17  F   UNL     1      -8.210  10.167  70.091  1.00  0.00    -0.187 F  
HETATM   18  C   UNL     1      -8.768   7.915  70.576  1.00  0.00    -0.136 C  
HETATM   19  C   UNL     1      -9.053   9.122  70.089  1.00  0.00    -0.206 C  
BRANCH  15  20
HETATM   20  C   UNL     1      -9.411   5.581  71.124  1.00  0.00    -0.150 C  
HETATM   21  C   UNL     1     -10.009   5.584  73.394  1.00  0.00    -0.176 C  
HETATM   22  O   UNL     1     -10.412   5.185  72.082  1.00  0.00    -0.211 OA 
HETATM   23  C   UNL     1     -10.527   6.985  73.699  1.00  0.00    -0.414 C  
HETATM   24  C   UNL     1      -8.489   5.465  73.396  1.00  0.00    -0.116 C  
HETATM   25  O   UNL     1      -8.052   4.214  73.953  1.00  0.00    -0.090 OA 
HETATM   26  C   UNL     1      -8.085   5.519  71.918  1.00  0.00    -0.115 C  
HETATM   27  H   UNL     1      -7.104   4.140  73.955  1.00  0.00     0.000 HD 
HETATM   28  O   UNL     1      -7.325   4.367  71.520  1.00  0.00    -0.052 OA 
HETATM   29  H   UNL     1      -6.511   4.329  72.008  1.00  0.00     0.000 HD 
ENDBRANCH  15  20
ENDBRANCH   9  11
ENDBRANCH   6   7
ENDBRANCH   5   6
ENDBRANCH   4   5
ENDBRANCH   3   4
ENDBRANCH   2   3
TORSDOF 7
ENDMDL
MODEL      114
REMARK 921   NORMALIZED FREE ENERGY PREDICTED BY IDOCK:   -4.42 KCAL/MOL
REMARK 922        TOTAL FREE ENERGY PREDICTED BY IDOCK:   -7.33 KCAL/MOL
REMARK 923 INTER-LIGAND FREE ENERGY PREDICTED BY IDOCK:   -6.18 KCAL/MOL
REMARK 924 INTRA-LIGAND FREE ENERGY PREDICTED BY IDOCK:   -1.15 KCAL/MOL
REMARK 927      BINDING AFFINITY PREDICTED BY RF-SCORE:    0.00 PKD
ROOT
HETATM    1  C   UNL     1      -8.092  12.149  68.150  1.00  0.00    -0.161 C  
HETATM    2  C   UNL     1      -8.256  13.599  67.709  1.00  0.00    -0.179 C  
ENDROOT
BRANCH   2   3
HETATM    3  C   UNL     1      -9.731  13.973  67.622  1.00  0.00    -0.228 C  
BRANCH   3   4
HETATM    4  C   UNL     1     -10.617  12.843  67.084  1.00  0.00    -0.246 C  
BRANCH   4   5
HETATM    5  C   UNL     1     -11.833  12.701  67.996  1.00  0.00    -0.323 C  
BRANCH   5   6
HETATM    6  O   UNL     1     -11.546  12.921  69.383  1.00  0.00    -0.285 OA 
BRANCH   6   7
HETATM    7  C   UNL     1     -11.824  11.849  70.167  1.00  0.00    -0.308 C  
HETATM    8  O   UNL     1     -12.740  11.815  70.972  1.00  0.00    -0.348 OA 
HETATM    9  N   UNL     1     -10.904  10.863  69.917  1.00  0.00    -0.446 N  
HETATM   10  H   UNL     1     -10.036  11.141  69.460  1.00  0.00     0.000 HD 
BRANCH   9  11
HETATM   11  C   UNL     1     -11.053   9.534  70.229  1.00  0.00    -0.271 C  
HETATM   12  N   UNL     1     -12.097   9.084  70.829  1.00  0.00    -0.466 N  
HETATM   13  C   UNL     1     -12.145   7.750  71.166  1.00  0.00    -0.286 C  
HETATM   14  H   UNL     1     -12.875   9.704  71.053  1.00  0.00     0.000 HD 
HETATM   15  N   UNL     1     -10.918   7.060  71.214  1.00  0.00    -0.239 N  
HETATM   16  O   UNL     1     -13.218   7.220  71.430  1.00  0.00    -0.380 OA 
HETATM   17  F   UNL     1      -8.961   9.199  69.033  1.00  0.00    -0.135 F  
HETATM   18  C   UNL     1      -9.883   7.488  70.391  1.00  0.00    -0.183 C  
HETATM   19  C   UNL     1      -9.922   8.693  69.824  1.00  0.00    -0.190 C  
BRANCH  15  20
HETATM   20  C   UNL     1     -10.851   5.745  71.868  1.00  0.00    -0.252 C  
HETATM   21  C   UNL     1      -9.637   5.951  73.866  1.00  0.00    -0.155 C  
HETATM   22  O   UNL     1     -10.947   5.869  73.300  1.00  0.00    -0.261 OA 
HETATM   23  C   UNL     1      -9.190   7.406  73.948  1.00  0.00    -0.312 C  
HETATM   24  C   UNL     1      -8.764   5.077  72.974  1.00  0.00    -0.113 C  
HETATM   25  O   UNL     1      -8.604   3.754  73.513  1.00  0.00    -0.086 OA 
HETATM   26  C   UNL     1      -9.524   4.983  71.645  1.00  0.00    -0.151 C  
HETATM   27  H   UNL     1      -8.058   3.209  72.958  1.00  0.00     0.000 HD 
HETATM   28  O   UNL     1      -9.792   3.624  71.268  1.00  0.00    -0.179 OA 
HETATM   29  H   UNL     1      -8.976   3.156  71.131  1.00  0.00     0.000 HD 
ENDBRANCH  15  20
ENDBRANCH   9  11
ENDBRANCH   6   7
ENDBRANCH   5   6
ENDBRANCH   4   5
ENDBRANCH   3   4
ENDBRANCH   2   3
TORSDOF 7
ENDMDL
MODEL      115
REMARK 921   NORMALIZED FREE ENERGY PREDICTED BY IDOCK:   -4.39 KCAL/MOL
REMARK 922        TOTAL FREE ENERGY PREDICTED BY IDOCK:   -7.29 KCAL/MOL
REMARK 923 INTER-LIGAND FREE ENERGY PREDICTED BY IDOCK:   -6.33 KCAL/MOL
REMARK 924 INTRA-LIGAND FREE ENERGY PREDICTED BY IDOCK:   -0.96 KCAL/MOL
REMARK 927      BINDING AFFINITY PREDICTED BY RF-SCORE:    0.00 PKD
ROOT
HETATM    1  C   UNL     1     -10.938  16.310  69.880  1.00  0.00    -0.365 C  
HETATM    2  C   UNL     1     -11.687  15.833  71.120  1.00  0.00    -0.476 C  
ENDROOT
BRANCH   2   3
HETATM    3  C   UNL     1     -13.085  15.348  70.753  1.00  0.00    -0.479 C  
BRANCH   3   4
HETATM    4  C   UNL     1     -13.902  14.871  71.960  1.00  0.00    -0.563 C  
BRANCH   4   5
HETATM    5  C   UNL     1     -13.452  13.458  72.326  1.00  0.00    -0.586 C  
BRANCH   5   6
HETATM    6  O   UNL     1     -13.083  12.657  71.196  1.00  0.00    -0.211 OA 
BRANCH   6   7
HETATM    7  C   UNL     1     -12.821  11.365  71.516  1.00  0.00    -0.403 C  
HETATM    8  O   UNL     1     -13.524  10.691  72.251  1.00  0.00    -0.333 OA 
HETATM    9  N   UNL     1     -11.654  10.982  70.906  1.00  0.00    -0.318 N  
HETATM   10  H   UNL     1     -11.031  11.723  70.586  1.00  0.00     0.000 HD 
BRANCH   9  11
HETATM   11  C   UNL     1     -11.252   9.686  70.691  1.00  0.00    -0.320 C  
HETATM   12  N   UNL     1     -11.184   8.823  71.642  1.00  0.00    -0.298 N  
HETATM   13  C   UNL     1     -10.711   7.561  71.360  1.00  0.00    -0.223 C  
HETATM   14  H   UNL     1     -11.474   9.069  72.588  1.00  0.00     0.000 HD 
HETATM   15  N   UNL     1      -9.956   7.413  70.179  1.00  0.00    -0.184 N  
HETATM   16  O   UNL     1     -10.932   6.634  72.131  1.00  0.00    -0.229 OA 
HETATM   17  F   UNL     1     -11.191  10.282  68.333  1.00  0.00    -0.277 F  
HETATM   18  C   UNL     1     -10.217   8.265  69.113  1.00  0.00    -0.218 C  
HETATM   19  C   UNL     1     -10.909   9.389  69.297  1.00  0.00    -0.172 C  
BRANCH  15  20
HETATM   20  C   UNL     1      -9.159   6.194  69.979  1.00  0.00    -0.147 C  
HETATM   21  C   UNL     1      -6.893   6.706  70.317  1.00  0.00    -0.058 C  
HETATM   22  O   UNL     1      -8.060   6.131  70.909  1.00  0.00    -0.116 OA 
HETATM   23  C   UNL     1      -6.831   8.199  70.619  1.00  0.00    -0.037 C  
HETATM   24  C   UNL     1      -6.994   6.371  68.833  1.00  0.00    -0.076 C  
HETATM   25  O   UNL     1      -6.238   5.197  68.497  1.00  0.00    -0.028 OA 
HETATM   26  C   UNL     1      -8.483   6.091  68.592  1.00  0.00    -0.113 C  
HETATM   27  H   UNL     1      -6.300   4.988  67.572  1.00  0.00     0.000 HD 
HETATM   28  O   UNL     1      -8.705   4.788  68.030  1.00  0.00    -0.102 OA 
HETATM   29  H   UNL     1      -8.289   4.724  67.178  1.00  0.00     0.000 HD 
ENDBRANCH  15  20
ENDBRANCH   9  11
ENDBRANCH   6   7
ENDBRANCH   5   6
ENDBRANCH   4   5
ENDBRANCH   3   4
ENDBRANCH   2   3
TORSDOF 7
ENDMDL
MODEL      116
REMARK 921   NORMALIZED FREE ENERGY PREDICTED BY IDOCK:   -4.39 KCAL/MOL
REMARK 922        TOTAL FREE ENERGY PREDICTED BY IDOCK:   -7.28 KCAL/MOL
REMARK 923 INTER-LIGAND FREE ENERGY PREDICTED BY IDOCK:   -6.46 KCAL/MOL
REMARK 924 INTRA-LIGAND FREE ENERGY PREDICTED BY IDOCK:   -0.82 KCAL/MOL
REMARK 927      BINDING AFFINITY PREDICTED BY RF-SCORE:    0.00 PKD
ROOT
HETATM    1  C   UNL     1      -9.795  19.616  68.731  1.00  0.00    -0.519 C  
HETATM    2  C   UNL     1      -9.420  18.914  67.432  1.00  0.00    -0.334 C  
ENDROOT
BRANCH   2   3
HETATM    3  C   UNL     1     -10.413  17.802  67.113  1.00  0.00    -0.338 C  
BRANCH   3   4
HETATM    4  C   UNL     1      -9.747  16.448  66.839  1.00  0.00    -0.260 C  
BRANCH   4   5
HETATM    5  C   UNL     1     -10.686  15.339  67.310  1.00  0.00    -0.311 C  
BRANCH   5   6
HETATM    6  O   UNL     1     -10.015  14.119  67.653  1.00  0.00    -0.228 OA 
BRANCH   6   7
HETATM    7  C   UNL     1     -10.800  13.247  68.335  1.00  0.00    -0.258 C  
HETATM    8  O   UNL     1     -12.003  13.384  68.477  1.00  0.00    -0.348 OA 
HETATM    9  N   UNL     1     -10.015  12.241  68.839  1.00  0.00    -0.426 N  
HETATM   10  H   UNL     1      -9.013  12.420  68.904  1.00  0.00     0.000 HD 
BRANCH   9  11
HETATM   11  C   UNL     1     -10.464  11.014  69.263  1.00  0.00    -0.180 C  
HETATM   12  N   UNL     1     -11.269  10.886  70.257  1.00  0.00    -0.460 N  
HETATM   13  C   UNL     1     -11.624   9.619  70.664  1.00  0.00    -0.299 C  
HETATM   14  H   UNL     1     -11.638  11.707  70.736  1.00  0.00     0.000 HD 
HETATM   15  N   UNL     1     -10.786   8.561  70.258  1.00  0.00    -0.238 N  
HETATM   16  O   UNL     1     -12.614   9.453  71.367  1.00  0.00    -0.317 OA 
HETATM   17  F   UNL     1      -9.261  10.109  67.352  1.00  0.00    -0.139 F  
HETATM   18  C   UNL     1     -10.084   8.691  69.065  1.00  0.00    -0.199 C  
HETATM   19  C   UNL     1      -9.939   9.884  68.490  1.00  0.00    -0.159 C  
BRANCH  15  20
HETATM   20  C   UNL     1     -10.910   7.249  70.908  1.00  0.00    -0.243 C  
HETATM   21  C   UNL     1      -9.248   7.057  72.554  1.00  0.00    -0.138 C  
HETATM   22  O   UNL     1     -10.630   7.337  72.319  1.00  0.00    -0.211 OA 
HETATM   23  C   UNL     1      -8.433   8.343  72.492  1.00  0.00    -0.229 C  
HETATM   24  C   UNL     1      -8.868   6.023  71.501  1.00  0.00    -0.139 C  
HETATM   25  O   UNL     1      -8.933   4.683  72.017  1.00  0.00    -0.123 OA 
HETATM   26  C   UNL     1      -9.917   6.181  70.393  1.00  0.00    -0.181 C  
HETATM   27  H   UNL     1      -8.695   4.038  71.360  1.00  0.00     0.000 HD 
HETATM   28  O   UNL     1     -10.610   4.952  70.123  1.00  0.00    -0.184 OA 
HETATM   29  H   UNL     1      -9.999   4.296  69.807  1.00  0.00     0.000 HD 
ENDBRANCH  15  20
ENDBRANCH   9  11
ENDBRANCH   6   7
ENDBRANCH   5   6
ENDBRANCH   4   5
ENDBRANCH   3   4
ENDBRANCH   2   3
TORSDOF 7
ENDMDL
MODEL      117
REMARK 921   NORMALIZED FREE ENERGY PREDICTED BY IDOCK:   -4.35 KCAL/MOL
REMARK 922        TOTAL FREE ENERGY PREDICTED BY IDOCK:   -7.24 KCAL/MOL
REMARK 923 INTER-LIGAND FREE ENERGY PREDICTED BY IDOCK:   -6.32 KCAL/MOL
REMARK 924 INTRA-LIGAND FREE ENERGY PREDICTED BY IDOCK:   -0.92 KCAL/MOL
REMARK 927      BINDING AFFINITY PREDICTED BY RF-SCORE:    0.00 PKD
ROOT
HETATM    1  C   UNL     1      -9.337  19.385  68.533  1.00  0.00    -0.446 C  
HETATM    2  C   UNL     1      -8.794  19.128  67.132  1.00  0.00    -0.314 C  
ENDROOT
BRANCH   2   3
HETATM    3  C   UNL     1      -9.043  17.684  66.713  1.00  0.00    -0.273 C  
BRANCH   3   4
HETATM    4  C   UNL     1     -10.366  17.485  65.965  1.00  0.00    -0.309 C  
BRANCH   4   5
HETATM    5  C   UNL     1     -10.512  16.005  65.617  1.00  0.00    -0.397 C  
BRANCH   5   6
HETATM    6  O   UNL     1     -10.969  15.195  66.708  1.00  0.00    -0.318 OA 
BRANCH   6   7
HETATM    7  C   UNL     1     -10.137  14.162  66.996  1.00  0.00    -0.261 C  
HETATM    8  O   UNL     1      -8.941  14.167  66.760  1.00  0.00    -0.242 OA 
HETATM    9  N   UNL     1     -10.868  13.143  67.552  1.00  0.00    -0.251 N  
HETATM   10  H   UNL     1     -11.877  13.159  67.404  1.00  0.00     0.000 HD 
BRANCH   9  11
HETATM   11  C   UNL     1     -10.357  12.104  68.290  1.00  0.00    -0.212 C  
HETATM   12  N   UNL     1      -9.158  11.671  68.125  1.00  0.00    -0.177 N  
HETATM   13  C   UNL     1      -8.737  10.584  68.858  1.00  0.00    -0.154 C  
HETATM   14  H   UNL     1      -8.529  12.124  67.462  1.00  0.00     0.000 HD 
HETATM   15  N   UNL     1      -9.740   9.769  69.420  1.00  0.00    -0.190 N  
HETATM   16  O   UNL     1      -7.541  10.347  68.978  1.00  0.00    -0.089 OA 
HETATM   17  F   UNL     1     -12.459  12.170  69.513  1.00  0.00    -0.214 F  
HETATM   18  C   UNL     1     -10.959  10.349  69.753  1.00  0.00    -0.293 C  
HETATM   19  C   UNL     1     -11.298  11.542  69.264  1.00  0.00    -0.288 C  
BRANCH  15  20
HETATM   20  C   UNL     1      -9.388   8.436  69.931  1.00  0.00    -0.155 C  
HETATM   21  C   UNL     1     -10.002   6.826  68.337  1.00  0.00    -0.151 C  
HETATM   22  O   UNL     1      -8.913   7.581  68.872  1.00  0.00    -0.135 OA 
HETATM   23  C   UNL     1     -10.655   7.586  67.188  1.00  0.00    -0.415 C  
HETATM   24  C   UNL     1     -10.926   6.566  69.521  1.00  0.00    -0.340 C  
HETATM   25  O   UNL     1     -10.693   5.276  70.109  1.00  0.00    -0.276 OA 
HETATM   26  C   UNL     1     -10.570   7.651  70.546  1.00  0.00    -0.226 C  
HETATM   27  H   UNL     1     -11.270   5.114  70.847  1.00  0.00     0.000 HD 
HETATM   28  O   UNL     1     -10.187   7.095  71.813  1.00  0.00    -0.195 OA 
HETATM   29  H   UNL     1     -10.913   6.613  72.191  1.00  0.00     0.000 HD 
ENDBRANCH  15  20
ENDBRANCH   9  11
ENDBRANCH   6   7
ENDBRANCH   5   6
ENDBRANCH   4   5
ENDBRANCH   3   4
ENDBRANCH   2   3
TORSDOF 7
ENDMDL
MODEL      118
REMARK 921   NORMALIZED FREE ENERGY PREDICTED BY IDOCK:   -4.32 KCAL/MOL
REMARK 922        TOTAL FREE ENERGY PREDICTED BY IDOCK:   -7.18 KCAL/MOL
REMARK 923 INTER-LIGAND FREE ENERGY PREDICTED BY IDOCK:   -6.32 KCAL/MOL
REMARK 924 INTRA-LIGAND FREE ENERGY PREDICTED BY IDOCK:   -0.86 KCAL/MOL
REMARK 927      BINDING AFFINITY PREDICTED BY RF-SCORE:    0.00 PKD
ROOT
HETATM    1  C   UNL     1      -9.454   5.659  67.491  1.00  0.00    -0.117 C  
HETATM    2  C   UNL     1      -9.510   7.160  67.750  1.00  0.00    -0.136 C  
ENDROOT
BRANCH   2   3
HETATM    3  C   UNL     1      -8.678   7.918  66.722  1.00  0.00    -0.143 C  
BRANCH   3   4
HETATM    4  C   UNL     1      -8.885   9.437  66.768  1.00  0.00    -0.142 C  
BRANCH   4   5
HETATM    5  C   UNL     1      -9.733   9.776  67.991  1.00  0.00    -0.145 C  
BRANCH   5   6
HETATM    6  O   UNL     1     -10.917  10.525  67.686  1.00  0.00    -0.279 OA 
BRANCH   6   7
HETATM    7  C   UNL     1     -10.673  11.836  67.432  1.00  0.00    -0.236 C  
HETATM    8  O   UNL     1     -11.014  12.404  66.408  1.00  0.00    -0.257 OA 
HETATM    9  N   UNL     1      -9.976  12.372  68.484  1.00  0.00    -0.326 N  
HETATM   10  H   UNL     1      -9.503  11.721  69.110  1.00  0.00     0.000 HD 
BRANCH   9  11
HETATM   11  C   UNL     1      -9.862  13.711  68.767  1.00  0.00    -0.062 C  
HETATM   12  N   UNL     1     -10.754  14.348  69.440  1.00  0.00    -0.378 N  
HETATM   13  C   UNL     1     -10.601  15.703  69.629  1.00  0.00    -0.283 C  
HETATM   14  H   UNL     1     -11.560  13.858  69.826  1.00  0.00     0.000 HD 
HETATM   15  N   UNL     1      -9.729  16.374  68.749  1.00  0.00    -0.240 N  
HETATM   16  O   UNL     1     -11.226  16.276  70.513  1.00  0.00    -0.376 OA 
HETATM   17  F   UNL     1      -7.675  13.569  67.711  1.00  0.00    -0.109 F  
HETATM   18  C   UNL     1      -8.664  15.667  68.201  1.00  0.00    -0.168 C  
HETATM   19  C   UNL     1      -8.648  14.335  68.232  1.00  0.00    -0.176 C  
BRANCH  15  20
HETATM   20  C   UNL     1      -9.760  17.842  68.678  1.00  0.00    -0.353 C  
HETATM   21  C   UNL     1     -10.481  18.483  66.538  1.00  0.00    -0.398 C  
HETATM   22  O   UNL     1     -10.881  18.303  67.898  1.00  0.00    -0.363 OA 
HETATM   23  C   UNL     1     -10.691  17.194  65.752  1.00  0.00    -0.140 C  
HETATM   24  C   UNL     1      -9.030  18.944  66.609  1.00  0.00    -0.323 C  
HETATM   25  O   UNL     1      -8.917  20.375  66.533  1.00  0.00    -0.534 OA 
HETATM   26  C   UNL     1      -8.533  18.478  67.983  1.00  0.00    -0.283 C  
HETATM   27  H   UNL     1      -8.012  20.662  66.576  1.00  0.00     0.000 HD 
HETATM   28  O   UNL     1      -8.026  19.565  68.774  1.00  0.00    -0.352 OA 
HETATM   29  H   UNL     1      -7.273  19.956  68.347  1.00  0.00     0.000 HD 
ENDBRANCH  15  20
ENDBRANCH   9  11
ENDBRANCH   6   7
ENDBRANCH   5   6
ENDBRANCH   4   5
ENDBRANCH   3   4
ENDBRANCH   2   3
TORSDOF 7
ENDMDL
MODEL      119
REMARK 921   NORMALIZED FREE ENERGY PREDICTED BY IDOCK:   -4.31 KCAL/MOL
REMARK 922        TOTAL FREE ENERGY PREDICTED BY IDOCK:   -7.18 KCAL/MOL
REMARK 923 INTER-LIGAND FREE ENERGY PREDICTED BY IDOCK:   -6.80 KCAL/MOL
REMARK 924 INTRA-LIGAND FREE ENERGY PREDICTED BY IDOCK:   -0.38 KCAL/MOL
REMARK 927      BINDING AFFINITY PREDICTED BY RF-SCORE:    0.00 PKD
ROOT
HETATM    1  C   UNL     1     -10.395   4.685  66.163  1.00  0.00    -0.310 C  
HETATM    2  C   UNL     1     -10.829   5.410  67.431  1.00  0.00    -0.024 C  
ENDROOT
BRANCH   2   3
HETATM    3  C   UNL     1     -10.170   4.793  68.659  1.00  0.00    -0.060 C  
BRANCH   3   4
HETATM    4  C   UNL     1      -9.670   5.831  69.671  1.00  0.00    -0.208 C  
BRANCH   4   5
HETATM    5  C   UNL     1     -10.631   7.017  69.668  1.00  0.00    -0.234 C  
BRANCH   5   6
HETATM    6  O   UNL     1     -10.185   8.126  70.459  1.00  0.00    -0.195 OA 
BRANCH   6   7
HETATM    7  C   UNL     1      -9.876   9.223  69.722  1.00  0.00    -0.188 C  
HETATM    8  O   UNL     1      -8.773   9.743  69.707  1.00  0.00    -0.181 OA 
HETATM    9  N   UNL     1     -10.997   9.637  69.048  1.00  0.00    -0.379 N  
HETATM   10  H   UNL     1     -11.897   9.303  69.391  1.00  0.00     0.000 HD 
BRANCH   9  11
HETATM   11  C   UNL     1     -11.010  10.464  67.951  1.00  0.00    -0.297 C  
HETATM   12  N   UNL     1     -10.369  10.181  66.873  1.00  0.00    -0.235 N  
HETATM   13  C   UNL     1     -10.377  11.090  65.839  1.00  0.00    -0.257 C  
HETATM   14  H   UNL     1      -9.863   9.300  66.786  1.00  0.00     0.000 HD 
HETATM   15  N   UNL     1     -10.721  12.418  66.160  1.00  0.00    -0.254 N  
HETATM   16  O   UNL     1     -10.071  10.736  64.706  1.00  0.00    -0.285 OA 
HETATM   17  F   UNL     1     -12.600  11.813  69.205  1.00  0.00    -0.170 F  
HETATM   18  C   UNL     1     -11.578  12.641  67.232  1.00  0.00    -0.364 C  
HETATM   19  C   UNL     1     -11.806  11.682  68.128  1.00  0.00    -0.244 C  
BRANCH  15  20
HETATM   20  C   UNL     1     -10.443  13.492  65.195  1.00  0.00    -0.364 C  
HETATM   21  C   UNL     1      -9.702  15.388  66.364  1.00  0.00    -0.288 C  
HETATM   22  O   UNL     1      -9.289  14.260  65.589  1.00  0.00    -0.080 OA 
HETATM   23  C   UNL     1      -9.743  15.024  67.843  1.00  0.00    -0.212 C  
HETATM   24  C   UNL     1     -11.051  15.797  65.782  1.00  0.00    -0.124 C  
HETATM   25  O   UNL     1     -10.920  16.862  64.826  1.00  0.00    -0.772 OA 
HETATM   26  C   UNL     1     -11.568  14.545  65.064  1.00  0.00    -0.382 C  
HETATM   27  H   UNL     1     -11.761  17.118  64.464  1.00  0.00     0.000 HD 
HETATM   28  O   UNL     1     -11.854  14.792  63.679  1.00  0.00    -0.696 OA 
HETATM   29  H   UNL     1     -12.545  15.439  63.598  1.00  0.00     0.000 HD 
ENDBRANCH  15  20
ENDBRANCH   9  11
ENDBRANCH   6   7
ENDBRANCH   5   6
ENDBRANCH   4   5
ENDBRANCH   3   4
ENDBRANCH   2   3
TORSDOF 7
ENDMDL
MODEL      120
REMARK 921   NORMALIZED FREE ENERGY PREDICTED BY IDOCK:   -4.31 KCAL/MOL
REMARK 922        TOTAL FREE ENERGY PREDICTED BY IDOCK:   -7.17 KCAL/MOL
REMARK 923 INTER-LIGAND FREE ENERGY PREDICTED BY IDOCK:   -6.09 KCAL/MOL
REMARK 924 INTRA-LIGAND FREE ENERGY PREDICTED BY IDOCK:   -1.08 KCAL/MOL
REMARK 927      BINDING AFFINITY PREDICTED BY RF-SCORE:    0.00 PKD
ROOT
HETATM    1  C   UNL     1     -13.740  15.179  71.508  1.00  0.00    -0.582 C  
HETATM    2  C   UNL     1     -12.695  14.534  70.606  1.00  0.00    -0.421 C  
ENDROOT
BRANCH   2   3
HETATM    3  C   UNL     1     -11.772  15.590  70.007  1.00  0.00    -0.363 C  
BRANCH   3   4
HETATM    4  C   UNL     1     -11.873  15.694  68.480  1.00  0.00    -0.252 C  
BRANCH   4   5
HETATM    5  C   UNL     1     -12.247  14.322  67.922  1.00  0.00    -0.150 C  
BRANCH   5   6
HETATM    6  O   UNL     1     -12.532  14.327  66.517  1.00  0.00    -0.428 OA 
BRANCH   6   7
HETATM    7  C   UNL     1     -11.918  13.323  65.840  1.00  0.00    -0.419 C  
HETATM    8  O   UNL     1     -11.856  13.262  64.624  1.00  0.00    -0.347 OA 
HETATM    9  N   UNL     1     -11.426  12.414  66.741  1.00  0.00    -0.341 N  
HETATM   10  H   UNL     1     -11.814  12.435  67.684  1.00  0.00     0.000 HD 
BRANCH   9  11
HETATM   11  C   UNL     1     -10.455  11.477  66.482  1.00  0.00    -0.244 C  
HETATM   12  N   UNL     1     -10.317  10.936  65.324  1.00  0.00    -0.278 N  
HETATM   13  C   UNL     1      -9.362   9.958  65.158  1.00  0.00    -0.258 C  
HETATM   14  H   UNL     1     -10.905  11.226  64.543  1.00  0.00     0.000 HD 
HETATM   15  N   UNL     1      -8.890   9.324  66.324  1.00  0.00    -0.140 N  
HETATM   16  O   UNL     1      -8.977   9.658  64.034  1.00  0.00    -0.227 OA 
HETATM   17  F   UNL     1      -9.688  11.900  68.752  1.00  0.00    -0.197 F  
HETATM   18  C   UNL     1      -8.891  10.039  67.516  1.00  0.00    -0.128 C  
HETATM   19  C   UNL     1      -9.609  11.155  67.636  1.00  0.00    -0.170 C  
BRANCH  15  20
HETATM   20  C   UNL     1      -8.127   8.073  66.210  1.00  0.00    -0.112 C  
HETATM   21  C   UNL     1      -9.512   6.280  66.829  1.00  0.00    -0.144 C  
HETATM   22  O   UNL     1      -8.957   6.999  65.724  1.00  0.00    -0.115 OA 
HETATM   23  C   UNL     1     -10.848   6.891  67.236  1.00  0.00    -0.426 C  
HETATM   24  C   UNL     1      -8.443   6.333  67.914  1.00  0.00    -0.117 C  
HETATM   25  O   UNL     1      -7.628   5.149  67.921  1.00  0.00    -0.082 OA 
HETATM   26  C   UNL     1      -7.566   7.538  67.548  1.00  0.00    -0.113 C  
HETATM   27  H   UNL     1      -6.962   5.182  68.599  1.00  0.00     0.000 HD 
HETATM   28  O   UNL     1      -6.185   7.177  67.395  1.00  0.00    -0.041 OA 
HETATM   29  H   UNL     1      -5.840   6.848  68.218  1.00  0.00     0.000 HD 
ENDBRANCH  15  20
ENDBRANCH   9  11
ENDBRANCH   6   7
ENDBRANCH   5   6
ENDBRANCH   4   5
ENDBRANCH   3   4
ENDBRANCH   2   3
TORSDOF 7
ENDMDL
MODEL      121
REMARK 921   NORMALIZED FREE ENERGY PREDICTED BY IDOCK:   -4.30 KCAL/MOL
REMARK 922        TOTAL FREE ENERGY PREDICTED BY IDOCK:   -7.17 KCAL/MOL
REMARK 923 INTER-LIGAND FREE ENERGY PREDICTED BY IDOCK:   -6.59 KCAL/MOL
REMARK 924 INTRA-LIGAND FREE ENERGY PREDICTED BY IDOCK:   -0.58 KCAL/MOL
REMARK 927      BINDING AFFINITY PREDICTED BY RF-SCORE:    0.00 PKD
ROOT
HETATM    1  C   UNL     1      -7.233  20.843  67.316  1.00  0.00    -0.408 C  
HETATM    2  C   UNL     1      -8.372  19.862  67.568  1.00  0.00    -0.366 C  
ENDROOT
BRANCH   2   3
HETATM    3  C   UNL     1      -9.275  19.756  66.343  1.00  0.00    -0.468 C  
BRANCH   3   4
HETATM    4  C   UNL     1     -10.570  18.978  66.605  1.00  0.00    -0.499 C  
BRANCH   4   5
HETATM    5  C   UNL     1     -10.378  17.539  66.130  1.00  0.00    -0.329 C  
BRANCH   5   6
HETATM    6  O   UNL     1      -9.924  16.646  67.155  1.00  0.00    -0.255 OA 
BRANCH   6   7
HETATM    7  C   UNL     1      -9.966  15.340  66.790  1.00  0.00    -0.242 C  
HETATM    8  O   UNL     1      -9.748  14.944  65.657  1.00  0.00    -0.335 OA 
HETATM    9  N   UNL     1     -10.316  14.583  67.879  1.00  0.00    -0.229 N  
HETATM   10  H   UNL     1     -10.761  15.066  68.659  1.00  0.00     0.000 HD 
BRANCH   9  11
HETATM   11  C   UNL     1     -10.117  13.230  68.008  1.00  0.00    -0.235 C  
HETATM   12  N   UNL     1      -9.097  12.743  68.622  1.00  0.00    -0.397 N  
HETATM   13  C   UNL     1      -8.933  11.377  68.655  1.00  0.00    -0.131 C  
HETATM   14  H   UNL     1      -8.422  13.358  69.075  1.00  0.00     0.000 HD 
HETATM   15  N   UNL     1      -9.635  10.627  67.690  1.00  0.00    -0.160 N  
HETATM   16  O   UNL     1      -8.186  10.866  69.482  1.00  0.00    -0.040 OA 
HETATM   17  F   UNL     1     -12.286  12.986  66.935  1.00  0.00    -0.403 F  
HETATM   18  C   UNL     1     -10.837  11.128  67.206  1.00  0.00    -0.274 C  
HETATM   19  C   UNL     1     -11.159  12.409  67.384  1.00  0.00    -0.272 C  
BRANCH  15  20
HETATM   20  C   UNL     1      -9.267   9.223  67.457  1.00  0.00    -0.124 C  
HETATM   21  C   UNL     1      -7.532   9.146  65.878  1.00  0.00    -0.094 C  
HETATM   22  O   UNL     1      -7.845   9.080  67.271  1.00  0.00    -0.098 OA 
HETATM   23  C   UNL     1      -7.262  10.588  65.466  1.00  0.00    -0.103 C  
HETATM   24  C   UNL     1      -8.722   8.506  65.172  1.00  0.00    -0.120 C  
HETATM   25  O   UNL     1      -8.485   7.121  64.869  1.00  0.00    -0.314 OA 
HETATM   26  C   UNL     1      -9.877   8.604  66.177  1.00  0.00    -0.198 C  
HETATM   27  H   UNL     1      -9.227   6.723  64.429  1.00  0.00     0.000 HD 
HETATM   28  O   UNL     1     -10.448   7.320  66.474  1.00  0.00    -0.493 OA 
HETATM   29  H   UNL     1     -10.823   6.940  65.688  1.00  0.00     0.000 HD 
ENDBRANCH  15  20
ENDBRANCH   9  11
ENDBRANCH   6   7
ENDBRANCH   5   6
ENDBRANCH   4   5
ENDBRANCH   3   4
ENDBRANCH   2   3
TORSDOF 7
ENDMDL
MODEL      122
REMARK 921   NORMALIZED FREE ENERGY PREDICTED BY IDOCK:   -4.27 KCAL/MOL
REMARK 922        TOTAL FREE ENERGY PREDICTED BY IDOCK:   -7.12 KCAL/MOL
REMARK 923 INTER-LIGAND FREE ENERGY PREDICTED BY IDOCK:   -7.47 KCAL/MOL
REMARK 924 INTRA-LIGAND FREE ENERGY PREDICTED BY IDOCK:    0.34 KCAL/MOL
REMARK 927      BINDING AFFINITY PREDICTED BY RF-SCORE:    0.00 PKD
ROOT
HETATM    1  C   UNL     1      -6.164   4.804  64.967  1.00  0.00    -0.034 C  
HETATM    2  C   UNL     1      -7.570   5.026  64.423  1.00  0.00    -0.077 C  
ENDROOT
BRANCH   2   3
HETATM    3  C   UNL     1      -8.086   6.409  64.807  1.00  0.00    -0.114 C  
BRANCH   3   4
HETATM    4  C   UNL     1      -7.707   7.502  63.802  1.00  0.00    -0.126 C  
BRANCH   4   5
HETATM    5  C   UNL     1      -7.894   8.864  64.468  1.00  0.00    -0.126 C  
BRANCH   5   6
HETATM    6  O   UNL     1      -9.007   9.610  63.959  1.00  0.00    -0.227 OA 
BRANCH   6   7
HETATM    7  C   UNL     1      -9.772  10.166  64.933  1.00  0.00    -0.324 C  
HETATM    8  O   UNL     1     -10.651  10.984  64.722  1.00  0.00    -0.319 OA 
HETATM    9  N   UNL     1      -9.369   9.678  66.150  1.00  0.00    -0.178 N  
HETATM   10  H   UNL     1      -8.443   9.253  66.198  1.00  0.00     0.000 HD 
BRANCH   9  11
HETATM   11  C   UNL     1     -10.105   9.714  67.309  1.00  0.00    -0.211 C  
HETATM   12  N   UNL     1     -10.887  10.694  67.593  1.00  0.00    -0.270 N  
HETATM   13  C   UNL     1     -11.544  10.689  68.803  1.00  0.00    -0.239 C  
HETATM   14  H   UNL     1     -11.018  11.462  66.935  1.00  0.00     0.000 HD 
HETATM   15  N   UNL     1     -11.019   9.854  69.810  1.00  0.00    -0.255 N  
HETATM   16  O   UNL     1     -12.522  11.407  68.976  1.00  0.00    -0.364 OA 
HETATM   17  F   UNL     1      -9.234   7.481  67.725  1.00  0.00    -0.134 F  
HETATM   18  C   UNL     1     -10.343   8.700  69.429  1.00  0.00    -0.218 C  
HETATM   19  C   UNL     1      -9.912   8.549  68.178  1.00  0.00    -0.181 C  
BRANCH  15  20
HETATM   20  C   UNL     1     -11.459  10.033  71.201  1.00  0.00    -0.354 C  
HETATM   21  C   UNL     1     -12.253   7.980  72.015  1.00  0.00    -0.331 C  
HETATM   22  O   UNL     1     -11.140   8.876  72.000  1.00  0.00    -0.356 OA 
HETATM   23  C   UNL     1     -12.146   6.990  70.861  1.00  0.00    -0.403 C  
HETATM   24  C   UNL     1     -13.486   8.874  71.961  1.00  0.00    -0.433 C  
HETATM   25  O   UNL     1     -14.029   9.117  73.269  1.00  0.00    -1.164 OA 
HETATM   26  C   UNL     1     -12.986  10.201  71.376  1.00  0.00    -0.429 C  
HETATM   27  H   UNL     1     -14.798   9.675  73.235  1.00  0.00     0.000 HD 
HETATM   28  O   UNL     1     -13.264  11.314  72.239  1.00  0.00    -0.597 OA 
HETATM   29  H   UNL     1     -14.202  11.418  72.347  1.00  0.00     0.000 HD 
ENDBRANCH  15  20
ENDBRANCH   9  11
ENDBRANCH   6   7
ENDBRANCH   5   6
ENDBRANCH   4   5
ENDBRANCH   3   4
ENDBRANCH   2   3
TORSDOF 7
ENDMDL
MODEL      123
REMARK 921   NORMALIZED FREE ENERGY PREDICTED BY IDOCK:   -4.26 KCAL/MOL
REMARK 922        TOTAL FREE ENERGY PREDICTED BY IDOCK:   -7.11 KCAL/MOL
REMARK 923 INTER-LIGAND FREE ENERGY PREDICTED BY IDOCK:   -6.28 KCAL/MOL
REMARK 924 INTRA-LIGAND FREE ENERGY PREDICTED BY IDOCK:   -0.83 KCAL/MOL
REMARK 927      BINDING AFFINITY PREDICTED BY RF-SCORE:    0.00 PKD
ROOT
HETATM    1  C   UNL     1     -10.313  19.713  65.924  1.00  0.00    -0.584 C  
HETATM    2  C   UNL     1      -9.730  20.281  67.213  1.00  0.00    -0.590 C  
ENDROOT
BRANCH   2   3
HETATM    3  C   UNL     1      -9.805  19.255  68.338  1.00  0.00    -0.492 C  
BRANCH   3   4
HETATM    4  C   UNL     1     -10.870  18.175  68.110  1.00  0.00    -0.124 C  
BRANCH   4   5
HETATM    5  C   UNL     1     -10.188  16.809  68.111  1.00  0.00    -0.301 C  
BRANCH   5   6
HETATM    6  O   UNL     1     -10.677  15.916  67.102  1.00  0.00    -0.316 OA 
BRANCH   6   7
HETATM    7  C   UNL     1     -10.007  14.738  67.055  1.00  0.00    -0.238 C  
HETATM    8  O   UNL     1      -8.970  14.521  67.659  1.00  0.00    -0.180 OA 
HETATM    9  N   UNL     1     -10.669  13.881  66.213  1.00  0.00    -0.284 N  
HETATM   10  H   UNL     1     -11.329  14.293  65.554  1.00  0.00     0.000 HD 
BRANCH   9  11
HETATM   11  C   UNL     1     -10.519  12.516  66.183  1.00  0.00    -0.249 C  
HETATM   12  N   UNL     1     -10.691  11.784  67.226  1.00  0.00    -0.227 N  
HETATM   13  C   UNL     1     -10.460  10.430  67.132  1.00  0.00    -0.256 C  
HETATM   14  H   UNL     1     -10.992  12.199  68.107  1.00  0.00     0.000 HD 
HETATM   15  N   UNL     1      -9.668   9.992  66.052  1.00  0.00    -0.222 N  
HETATM   16  O   UNL     1     -10.914   9.668  67.978  1.00  0.00    -0.227 OA 
HETATM   17  F   UNL     1     -10.174  12.783  63.789  1.00  0.00    -0.409 F  
HETATM   18  C   UNL     1      -9.678  10.735  64.878  1.00  0.00    -0.276 C  
HETATM   19  C   UNL     1     -10.144  11.983  64.869  1.00  0.00    -0.260 C  
BRANCH  15  20
HETATM   20  C   UNL     1      -9.117   8.629  66.065  1.00  0.00    -0.204 C  
HETATM   21  C   UNL     1      -6.920   8.707  66.889  1.00  0.00    -0.077 C  
HETATM   22  O   UNL     1      -8.280   8.416  67.219  1.00  0.00    -0.111 OA 
HETATM   23  C   UNL     1      -6.616  10.176  67.161  1.00  0.00    -0.069 C  
HETATM   24  C   UNL     1      -6.769   8.297  65.429  1.00  0.00    -0.052 C  
HETATM   25  O   UNL     1      -6.218   6.975  65.299  1.00  0.00    -0.036 OA 
HETATM   26  C   UNL     1      -8.196   8.298  64.867  1.00  0.00    -0.151 C  
HETATM   27  H   UNL     1      -6.123   6.719  64.388  1.00  0.00     0.000 HD 
HETATM   28  O   UNL     1      -8.558   7.029  64.302  1.00  0.00    -0.347 OA 
HETATM   29  H   UNL     1      -7.992   6.825  63.566  1.00  0.00     0.000 HD 
ENDBRANCH  15  20
ENDBRANCH   9  11
ENDBRANCH   6   7
ENDBRANCH   5   6
ENDBRANCH   4   5
ENDBRANCH   3   4
ENDBRANCH   2   3
TORSDOF 7
ENDMDL
MODEL      124
REMARK 921   NORMALIZED FREE ENERGY PREDICTED BY IDOCK:   -4.24 KCAL/MOL
REMARK 922        TOTAL FREE ENERGY PREDICTED BY IDOCK:   -7.08 KCAL/MOL
REMARK 923 INTER-LIGAND FREE ENERGY PREDICTED BY IDOCK:   -5.98 KCAL/MOL
REMARK 924 INTRA-LIGAND FREE ENERGY PREDICTED BY IDOCK:   -1.09 KCAL/MOL
REMARK 927      BINDING AFFINITY PREDICTED BY RF-SCORE:    0.00 PKD
ROOT
HETATM    1  C   UNL     1      -6.299   8.144  73.021  1.00  0.00    -0.087 C  
HETATM    2  C   UNL     1      -7.775   8.151  73.403  1.00  0.00    -0.212 C  
ENDROOT
BRANCH   2   3
HETATM    3  C   UNL     1      -8.365   6.748  73.307  1.00  0.00    -0.129 C  
BRANCH   3   4
HETATM    4  C   UNL     1      -9.898   6.731  73.281  1.00  0.00    -0.214 C  
BRANCH   4   5
HETATM    5  C   UNL     1     -10.357   5.696  72.255  1.00  0.00    -0.206 C  
BRANCH   5   6
HETATM    6  O   UNL     1      -9.912   5.968  70.919  1.00  0.00    -0.180 OA 
BRANCH   6   7
HETATM    7  C   UNL     1     -10.651   6.916  70.289  1.00  0.00    -0.218 C  
HETATM    8  O   UNL     1     -11.850   6.821  70.086  1.00  0.00    -0.349 OA 
HETATM    9  N   UNL     1      -9.827   7.946  69.913  1.00  0.00    -0.180 N  
HETATM   10  H   UNL     1      -8.827   7.752  69.873  1.00  0.00     0.000 HD 
BRANCH   9  11
HETATM   11  C   UNL     1     -10.234   9.217  69.587  1.00  0.00    -0.208 C  
HETATM   12  N   UNL     1     -11.472   9.564  69.601  1.00  0.00    -0.440 N  
HETATM   13  C   UNL     1     -11.808  10.838  69.199  1.00  0.00    -0.275 C  
HETATM   14  H   UNL     1     -12.192   8.908  69.903  1.00  0.00     0.000 HD 
HETATM   15  N   UNL     1     -10.861  11.531  68.420  1.00  0.00    -0.198 N  
HETATM   16  O   UNL     1     -12.898  11.310  69.500  1.00  0.00    -0.069 OA 
HETATM   17  F   UNL     1      -7.865   9.744  69.419  1.00  0.00    -0.079 F  
HETATM   18  C   UNL     1      -9.514  11.237  68.595  1.00  0.00    -0.175 C  
HETATM   19  C   UNL     1      -9.139  10.122  69.222  1.00  0.00    -0.198 C  
BRANCH  15  20
HETATM   20  C   UNL     1     -11.268  12.743  67.694  1.00  0.00    -0.280 C  
HETATM   21  C   UNL     1     -11.229  12.296  65.390  1.00  0.00    -0.328 C  
HETATM   22  O   UNL     1     -12.068  12.415  66.541  1.00  0.00    -0.599 OA 
HETATM   23  C   UNL     1     -10.744  10.859  65.240  1.00  0.00    -0.194 C  
HETATM   24  C   UNL     1     -10.115  13.314  65.603  1.00  0.00    -0.272 C  
HETATM   25  O   UNL     1     -10.384  14.552  64.925  1.00  0.00    -0.417 OA 
HETATM   26  C   UNL     1     -10.096  13.569  67.115  1.00  0.00    -0.245 C  
HETATM   27  H   UNL     1      -9.689  15.187  65.057  1.00  0.00     0.000 HD 
HETATM   28  O   UNL     1     -10.267  14.959  67.433  1.00  0.00    -0.233 OA 
HETATM   29  H   UNL     1      -9.547  15.467  67.078  1.00  0.00     0.000 HD 
ENDBRANCH  15  20
ENDBRANCH   9  11
ENDBRANCH   6   7
ENDBRANCH   5   6
ENDBRANCH   4   5
ENDBRANCH   3   4
ENDBRANCH   2   3
TORSDOF 7
ENDMDL
MODEL      125
REMARK 921   NORMALIZED FREE ENERGY PREDICTED BY IDOCK:   -4.24 KCAL/MOL
REMARK 922        TOTAL FREE ENERGY PREDICTED BY IDOCK:   -7.08 KCAL/MOL
REMARK 923 INTER-LIGAND FREE ENERGY PREDICTED BY IDOCK:   -6.32 KCAL/MOL
REMARK 924 INTRA-LIGAND FREE ENERGY PREDICTED BY IDOCK:   -0.76 KCAL/MOL
REMARK 927      BINDING AFFINITY PREDICTED BY RF-SCORE:    0.00 PKD
ROOT
HETATM    1  C   UNL     1     -12.090  15.800  71.880  1.00  0.00    -0.548 C  
HETATM    2  C   UNL     1     -13.341  15.530  72.708  1.00  0.00    -0.621 C  
ENDROOT
BRANCH   2   3
HETATM    3  C   UNL     1     -14.102  14.328  72.162  1.00  0.00    -0.634 C  
BRANCH   3   4
HETATM    4  C   UNL     1     -13.562  12.983  72.663  1.00  0.00    -0.345 C  
BRANCH   4   5
HETATM    5  C   UNL     1     -12.838  12.289  71.512  1.00  0.00    -0.280 C  
BRANCH   5   6
HETATM    6  O   UNL     1     -13.378  11.004  71.179  1.00  0.00    -0.178 OA 
BRANCH   6   7
HETATM    7  C   UNL     1     -12.446  10.131  70.719  1.00  0.00    -0.326 C  
HETATM    8  O   UNL     1     -12.398   8.955  71.039  1.00  0.00    -0.270 OA 
HETATM    9  N   UNL     1     -11.585  10.797  69.884  1.00  0.00    -0.301 N  
HETATM   10  H   UNL     1     -11.562  11.815  69.955  1.00  0.00     0.000 HD 
BRANCH   9  11
HETATM   11  C   UNL     1     -10.753  10.212  68.961  1.00  0.00    -0.221 C  
HETATM   12  N   UNL     1     -11.047  10.159  67.711  1.00  0.00    -0.423 N  
HETATM   13  C   UNL     1     -10.192   9.499  66.856  1.00  0.00    -0.249 C  
HETATM   14  H   UNL     1     -11.897  10.597  67.358  1.00  0.00     0.000 HD 
HETATM   15  N   UNL     1      -9.291   8.585  67.437  1.00  0.00    -0.145 N  
HETATM   16  O   UNL     1     -10.254   9.699  65.649  1.00  0.00    -0.253 OA 
HETATM   17  F   UNL     1      -9.197   9.922  70.808  1.00  0.00    -0.231 F  
HETATM   18  C   UNL     1      -8.864   8.811  68.740  1.00  0.00    -0.134 C  
HETATM   19  C   UNL     1      -9.522   9.657  69.532  1.00  0.00    -0.199 C  
BRANCH  15  20
HETATM   20  C   UNL     1      -8.584   7.621  66.580  1.00  0.00    -0.133 C  
HETATM   21  C   UNL     1      -9.462   5.479  66.965  1.00  0.00    -0.131 C  
HETATM   22  O   UNL     1      -9.481   6.606  66.088  1.00  0.00    -0.121 OA 
HETATM   23  C   UNL     1     -10.521   5.637  68.050  1.00  0.00    -0.264 C  
HETATM   24  C   UNL     1      -8.033   5.409  67.492  1.00  0.00    -0.101 C  
HETATM   25  O   UNL     1      -7.231   4.480  66.743  1.00  0.00    -0.076 OA 
HETATM   26  C   UNL     1      -7.470   6.823  67.296  1.00  0.00    -0.096 C  
HETATM   27  H   UNL     1      -6.341   4.437  67.072  1.00  0.00     0.000 HD 
HETATM   28  O   UNL     1      -6.274   6.825  66.502  1.00  0.00    -0.041 OA 
HETATM   29  H   UNL     1      -5.589   6.334  66.941  1.00  0.00     0.000 HD 
ENDBRANCH  15  20
ENDBRANCH   9  11
ENDBRANCH   6   7
ENDBRANCH   5   6
ENDBRANCH   4   5
ENDBRANCH   3   4
ENDBRANCH   2   3
TORSDOF 7
ENDMDL
MODEL      126
REMARK 921   NORMALIZED FREE ENERGY PREDICTED BY IDOCK:   -4.24 KCAL/MOL
REMARK 922        TOTAL FREE ENERGY PREDICTED BY IDOCK:   -7.07 KCAL/MOL
REMARK 923 INTER-LIGAND FREE ENERGY PREDICTED BY IDOCK:   -7.40 KCAL/MOL
REMARK 924 INTRA-LIGAND FREE ENERGY PREDICTED BY IDOCK:    0.33 KCAL/MOL
REMARK 927      BINDING AFFINITY PREDICTED BY RF-SCORE:    0.00 PKD
ROOT
HETATM    1  C   UNL     1      -6.623  20.549  65.103  1.00  0.00    -0.296 C  
HETATM    2  C   UNL     1      -7.353  19.897  66.272  1.00  0.00    -0.305 C  
ENDROOT
BRANCH   2   3
HETATM    3  C   UNL     1      -8.862  19.954  66.066  1.00  0.00    -0.287 C  
BRANCH   3   4
HETATM    4  C   UNL     1      -9.631  20.427  67.305  1.00  0.00    -0.592 C  
BRANCH   4   5
HETATM    5  C   UNL     1      -9.842  19.232  68.233  1.00  0.00    -0.400 C  
BRANCH   5   6
HETATM    6  O   UNL     1      -8.657  18.819  68.925  1.00  0.00    -0.297 OA 
BRANCH   6   7
HETATM    7  C   UNL     1      -8.406  17.489  68.815  1.00  0.00    -0.219 C  
HETATM    8  O   UNL     1      -7.353  16.967  69.140  1.00  0.00    -0.242 OA 
HETATM    9  N   UNL     1      -9.501  16.873  68.266  1.00  0.00    -0.243 N  
HETATM   10  H   UNL     1     -10.168  17.463  67.769  1.00  0.00     0.000 HD 
BRANCH   9  11
HETATM   11  C   UNL     1      -9.776  15.529  68.327  1.00  0.00    -0.201 C  
HETATM   12  N   UNL     1      -8.862  14.636  68.186  1.00  0.00    -0.167 N  
HETATM   13  C   UNL     1      -9.224  13.307  68.196  1.00  0.00    -0.212 C  
HETATM   14  H   UNL     1      -7.886  14.906  68.069  1.00  0.00     0.000 HD 
HETATM   15  N   UNL     1     -10.580  13.015  67.944  1.00  0.00    -0.225 N  
HETATM   16  O   UNL     1      -8.381  12.440  68.394  1.00  0.00    -0.167 OA 
HETATM   17  F   UNL     1     -12.047  16.196  68.888  1.00  0.00    -0.362 F  
HETATM   18  C   UNL     1     -11.539  13.956  68.300  1.00  0.00    -0.337 C  
HETATM   19  C   UNL     1     -11.190  15.216  68.559  1.00  0.00    -0.293 C  
BRANCH  15  20
HETATM   20  C   UNL     1     -10.975  11.637  67.622  1.00  0.00    -0.239 C  
HETATM   21  C   UNL     1     -12.100  10.719  69.467  1.00  0.00    -0.272 C  
HETATM   22  O   UNL     1     -12.266  11.321  68.181  1.00  0.00    -0.622 OA 
HETATM   23  C   UNL     1     -12.090  11.790  70.552  1.00  0.00    -0.439 C  
HETATM   24  C   UNL     1     -10.807   9.918  69.367  1.00  0.00    -0.237 C  
HETATM   25  O   UNL     1     -11.057   8.534  69.069  1.00  0.00    -0.431 OA 
HETATM   26  C   UNL     1     -10.040  10.548  68.198  1.00  0.00    -0.158 C  
HETATM   27  H   UNL     1     -10.250   8.034  69.007  1.00  0.00     0.000 HD 
HETATM   28  O   UNL     1      -9.715   9.588  67.182  1.00  0.00    -0.156 OA 
HETATM   29  H   UNL     1      -9.140   8.919  67.536  1.00  0.00     0.000 HD 
ENDBRANCH  15  20
ENDBRANCH   9  11
ENDBRANCH   6   7
ENDBRANCH   5   6
ENDBRANCH   4   5
ENDBRANCH   3   4
ENDBRANCH   2   3
TORSDOF 7
ENDMDL
MODEL      127
REMARK 921   NORMALIZED FREE ENERGY PREDICTED BY IDOCK:   -4.23 KCAL/MOL
REMARK 922        TOTAL FREE ENERGY PREDICTED BY IDOCK:   -7.06 KCAL/MOL
REMARK 923 INTER-LIGAND FREE ENERGY PREDICTED BY IDOCK:   -6.01 KCAL/MOL
REMARK 924 INTRA-LIGAND FREE ENERGY PREDICTED BY IDOCK:   -1.05 KCAL/MOL
REMARK 927      BINDING AFFINITY PREDICTED BY RF-SCORE:    0.00 PKD
ROOT
HETATM    1  C   UNL     1     -12.069  15.025  64.597  1.00  0.00    -0.330 C  
HETATM    2  C   UNL     1     -12.531  13.864  65.469  1.00  0.00    -0.541 C  
ENDROOT
BRANCH   2   3
HETATM    3  C   UNL     1     -12.766  12.615  64.626  1.00  0.00    -0.458 C  
BRANCH   3   4
HETATM    4  C   UNL     1     -11.718  12.416  63.525  1.00  0.00    -0.592 C  
BRANCH   4   5
HETATM    5  C   UNL     1     -10.526  11.664  64.114  1.00  0.00    -0.351 C  
BRANCH   5   6
HETATM    6  O   UNL     1      -9.700  11.026  63.133  1.00  0.00    -0.303 OA 
BRANCH   6   7
HETATM    7  C   UNL     1      -9.068   9.920  63.598  1.00  0.00    -0.259 C  
HETATM    8  O   UNL     1      -8.167   9.351  63.004  1.00  0.00    -0.146 OA 
HETATM    9  N   UNL     1      -9.626   9.559  64.798  1.00  0.00    -0.439 N  
HETATM   10  H   UNL     1     -10.550   9.932  65.012  1.00  0.00     0.000 HD 
BRANCH   9  11
HETATM   11  C   UNL     1      -9.046   8.738  65.734  1.00  0.00    -0.212 C  
HETATM   12  N   UNL     1      -8.772   7.506  65.489  1.00  0.00    -0.323 N  
HETATM   13  C   UNL     1      -8.250   6.729  66.499  1.00  0.00    -0.117 C  
HETATM   14  H   UNL     1      -8.938   7.112  64.564  1.00  0.00     0.000 HD 
HETATM   15  N   UNL     1      -8.433   7.191  67.818  1.00  0.00    -0.120 N  
HETATM   16  O   UNL     1      -7.680   5.677  66.234  1.00  0.00    -0.096 OA 
HETATM   17  F   UNL     1      -8.916  10.722  67.137  1.00  0.00    -0.138 F  
HETATM   18  C   UNL     1      -8.533   8.560  68.033  1.00  0.00    -0.131 C  
HETATM   19  C   UNL     1      -8.782   9.390  67.021  1.00  0.00    -0.127 C  
BRANCH  15  20
HETATM   20  C   UNL     1      -8.197   6.276  68.944  1.00  0.00    -0.113 C  
HETATM   21  C   UNL     1     -10.267   5.639  69.850  1.00  0.00    -0.250 C  
HETATM   22  O   UNL     1      -9.197   5.239  68.991  1.00  0.00    -0.111 OA 
HETATM   23  C   UNL     1     -11.332   6.382  69.051  1.00  0.00    -0.332 C  
HETATM   24  C   UNL     1      -9.609   6.472  70.943  1.00  0.00    -0.175 C  
HETATM   25  O   UNL     1      -9.337   5.692  72.120  1.00  0.00    -0.146 OA 
HETATM   26  C   UNL     1      -8.280   6.940  70.338  1.00  0.00    -0.124 C  
HETATM   27  H   UNL     1      -8.927   6.212  72.802  1.00  0.00     0.000 HD 
HETATM   28  O   UNL     1      -7.153   6.551  71.138  1.00  0.00    -0.073 OA 
HETATM   29  H   UNL     1      -7.203   6.959  71.995  1.00  0.00     0.000 HD 
ENDBRANCH  15  20
ENDBRANCH   9  11
ENDBRANCH   6   7
ENDBRANCH   5   6
ENDBRANCH   4   5
ENDBRANCH   3   4
ENDBRANCH   2   3
TORSDOF 7
ENDMDL
MODEL      128
REMARK 921   NORMALIZED FREE ENERGY PREDICTED BY IDOCK:   -4.22 KCAL/MOL
REMARK 922        TOTAL FREE ENERGY PREDICTED BY IDOCK:   -7.05 KCAL/MOL
REMARK 923 INTER-LIGAND FREE ENERGY PREDICTED BY IDOCK:   -7.54 KCAL/MOL
REMARK 924 INTRA-LIGAND FREE ENERGY PREDICTED BY IDOCK:    0.49 KCAL/MOL
REMARK 927      BINDING AFFINITY PREDICTED BY RF-SCORE:    0.00 PKD
ROOT
HETATM    1  C   UNL     1     -12.058  12.751  63.417  1.00  0.00    -0.619 C  
HETATM    2  C   UNL     1     -11.210  11.864  64.320  1.00  0.00    -0.424 C  
ENDROOT
BRANCH   2   3
HETATM    3  C   UNL     1     -10.288  10.975  63.493  1.00  0.00    -0.402 C  
BRANCH   3   4
HETATM    4  C   UNL     1      -8.934  10.709  64.162  1.00  0.00    -0.214 C  
BRANCH   4   5
HETATM    5  C   UNL     1      -8.980   9.336  64.828  1.00  0.00    -0.168 C  
BRANCH   5   6
HETATM    6  O   UNL     1      -8.767   9.371  66.245  1.00  0.00    -0.134 OA 
BRANCH   6   7
HETATM    7  C   UNL     1      -9.868   9.746  66.945  1.00  0.00    -0.201 C  
HETATM    8  O   UNL     1     -10.842   9.032  67.113  1.00  0.00    -0.210 OA 
HETATM    9  N   UNL     1      -9.700  11.034  67.384  1.00  0.00    -0.168 N  
HETATM   10  H   UNL     1      -8.990  11.598  66.915  1.00  0.00     0.000 HD 
BRANCH   9  11
HETATM   11  C   UNL     1     -10.405  11.631  68.401  1.00  0.00    -0.204 C  
HETATM   12  N   UNL     1     -11.074  10.949  69.261  1.00  0.00    -0.229 N  
HETATM   13  C   UNL     1     -11.808  11.620  70.214  1.00  0.00    -0.326 C  
HETATM   14  H   UNL     1     -11.062   9.930  69.239  1.00  0.00     0.000 HD 
HETATM   15  N   UNL     1     -12.117  12.968  69.946  1.00  0.00    -0.304 N  
HETATM   16  O   UNL     1     -12.182  11.039  71.225  1.00  0.00    -0.330 OA 
HETATM   17  F   UNL     1      -9.456  13.722  67.598  1.00  0.00    -0.196 F  
HETATM   18  C   UNL     1     -11.243  13.706  69.156  1.00  0.00    -0.261 C  
HETATM   19  C   UNL     1     -10.327  13.095  68.406  1.00  0.00    -0.253 C  
BRANCH  15  20
HETATM   20  C   UNL     1     -13.151  13.646  70.742  1.00  0.00    -0.052 C  
HETATM   21  C   UNL     1     -12.248  15.621  71.633  1.00  0.00    -0.426 C  
HETATM   22  O   UNL     1     -13.066  15.077  70.595  1.00  0.00    -0.362 OA 
HETATM   23  C   UNL     1     -10.792  15.668  71.185  1.00  0.00    -0.111 C  
HETATM   24  C   UNL     1     -12.501  14.733  72.846  1.00  0.00    -0.337 C  
HETATM   25  O   UNL     1     -13.491  15.295  73.724  1.00  0.00    -0.577 OA 
HETATM   26  C   UNL     1     -13.039  13.418  72.267  1.00  0.00    -0.383 C  
HETATM   27  H   UNL     1     -13.649  14.741  74.480  1.00  0.00     0.000 HD 
HETATM   28  O   UNL     1     -14.322  13.071  72.810  1.00  0.00    -0.649 OA 
HETATM   29  H   UNL     1     -14.254  12.931  73.747  1.00  0.00     0.000 HD 
ENDBRANCH  15  20
ENDBRANCH   9  11
ENDBRANCH   6   7
ENDBRANCH   5   6
ENDBRANCH   4   5
ENDBRANCH   3   4
ENDBRANCH   2   3
TORSDOF 7
ENDMDL
MODEL      129
REMARK 921   NORMALIZED FREE ENERGY PREDICTED BY IDOCK:   -4.21 KCAL/MOL
REMARK 922        TOTAL FREE ENERGY PREDICTED BY IDOCK:   -7.04 KCAL/MOL
REMARK 923 INTER-LIGAND FREE ENERGY PREDICTED BY IDOCK:   -7.23 KCAL/MOL
REMARK 924 INTRA-LIGAND FREE ENERGY PREDICTED BY IDOCK:    0.19 KCAL/MOL
REMARK 927      BINDING AFFINITY PREDICTED BY RF-SCORE:    0.00 PKD
ROOT
HETATM    1  C   UNL     1      -5.943  20.786  68.150  1.00  0.00    -0.364 C  
HETATM    2  C   UNL     1      -7.255  20.012  68.207  1.00  0.00    -0.312 C  
ENDROOT
BRANCH   2   3
HETATM    3  C   UNL     1      -8.153  20.384  67.032  1.00  0.00    -0.351 C  
BRANCH   3   4
HETATM    4  C   UNL     1      -9.601  20.680  67.441  1.00  0.00    -0.544 C  
BRANCH   4   5
HETATM    5  C   UNL     1     -10.472  19.489  67.045  1.00  0.00    -0.472 C  
BRANCH   5   6
HETATM    6  O   UNL     1     -10.330  18.355  67.910  1.00  0.00    -0.369 OA 
BRANCH   6   7
HETATM    7  C   UNL     1     -10.526  17.169  67.278  1.00  0.00    -0.313 C  
HETATM    8  O   UNL     1     -10.514  17.035  66.066  1.00  0.00    -0.333 OA 
HETATM    9  N   UNL     1     -10.759  16.197  68.217  1.00  0.00    -0.292 N  
HETATM   10  H   UNL     1     -11.042  16.506  69.147  1.00  0.00     0.000 HD 
BRANCH   9  11
HETATM   11  C   UNL     1     -10.645  14.844  68.012  1.00  0.00    -0.248 C  
HETATM   12  N   UNL     1      -9.683  14.334  67.328  1.00  0.00    -0.230 N  
HETATM   13  C   UNL     1      -9.671  12.974  67.111  1.00  0.00    -0.230 C  
HETATM   14  H   UNL     1      -8.943  14.926  66.952  1.00  0.00     0.000 HD 
HETATM   15  N   UNL     1     -10.892  12.291  67.283  1.00  0.00    -0.237 N  
HETATM   16  O   UNL     1      -8.638  12.415  66.763  1.00  0.00    -0.190 OA 
HETATM   17  F   UNL     1     -12.566  14.634  69.490  1.00  0.00    -0.308 F  
HETATM   18  C   UNL     1     -11.816  12.800  68.188  1.00  0.00    -0.324 C  
HETATM   19  C   UNL     1     -11.711  14.052  68.633  1.00  0.00    -0.354 C  
BRANCH  15  20
HETATM   20  C   UNL     1     -11.034  10.922  66.766  1.00  0.00    -0.185 C  
HETATM   21  C   UNL     1     -10.346   9.410  68.425  1.00  0.00    -0.205 C  
HETATM   22  O   UNL     1     -11.477  10.019  67.799  1.00  0.00    -0.211 OA 
HETATM   23  C   UNL     1      -9.883  10.252  69.608  1.00  0.00    -0.230 C  
HETATM   24  C   UNL     1      -9.310   9.264  67.317  1.00  0.00    -0.131 C  
HETATM   25  O   UNL     1      -9.333   7.951  66.732  1.00  0.00    -0.162 OA 
HETATM   26  C   UNL     1      -9.720  10.290  66.253  1.00  0.00    -0.209 C  
HETATM   27  H   UNL     1      -8.686   7.859  66.042  1.00  0.00     0.000 HD 
HETATM   28  O   UNL     1      -9.932   9.684  64.969  1.00  0.00    -0.425 OA 
HETATM   29  H   UNL     1      -9.125   9.295  64.653  1.00  0.00     0.000 HD 
ENDBRANCH  15  20
ENDBRANCH   9  11
ENDBRANCH   6   7
ENDBRANCH   5   6
ENDBRANCH   4   5
ENDBRANCH   3   4
ENDBRANCH   2   3
TORSDOF 7
ENDMDL
MODEL      130
REMARK 921   NORMALIZED FREE ENERGY PREDICTED BY IDOCK:   -4.19 KCAL/MOL
REMARK 922        TOTAL FREE ENERGY PREDICTED BY IDOCK:   -7.00 KCAL/MOL
REMARK 923 INTER-LIGAND FREE ENERGY PREDICTED BY IDOCK:   -7.06 KCAL/MOL
REMARK 924 INTRA-LIGAND FREE ENERGY PREDICTED BY IDOCK:    0.06 KCAL/MOL
REMARK 927      BINDING AFFINITY PREDICTED BY RF-SCORE:    0.00 PKD
ROOT
HETATM    1  C   UNL     1     -13.229  15.121  71.118  1.00  0.00    -0.535 C  
HETATM    2  C   UNL     1     -12.324  14.004  70.611  1.00  0.00    -0.446 C  
ENDROOT
BRANCH   2   3
HETATM    3  C   UNL     1     -11.304  14.545  69.615  1.00  0.00    -0.314 C  
BRANCH   3   4
HETATM    4  C   UNL     1     -11.405  13.900  68.227  1.00  0.00    -0.325 C  
BRANCH   4   5
HETATM    5  C   UNL     1     -12.033  12.516  68.377  1.00  0.00    -0.221 C  
BRANCH   5   6
HETATM    6  O   UNL     1     -11.666  11.598  67.340  1.00  0.00    -0.556 OA 
BRANCH   6   7
HETATM    7  C   UNL     1     -11.255  10.392  67.809  1.00  0.00    -0.237 C  
HETATM    8  O   UNL     1     -10.608   9.592  67.153  1.00  0.00    -0.256 OA 
HETATM    9  N   UNL     1     -11.708  10.236  69.093  1.00  0.00    -0.491 N  
HETATM   10  H   UNL     1     -12.478  10.834  69.392  1.00  0.00     0.000 HD 
BRANCH   9  11
HETATM   11  C   UNL     1     -11.214   9.342  70.012  1.00  0.00    -0.168 C  
HETATM   12  N   UNL     1     -10.349   8.444  69.697  1.00  0.00    -0.214 N  
HETATM   13  C   UNL     1      -9.949   7.542  70.658  1.00  0.00    -0.183 C  
HETATM   14  H   UNL     1      -9.968   8.399  68.752  1.00  0.00     0.000 HD 
HETATM   15  N   UNL     1     -10.790   7.390  71.778  1.00  0.00    -0.222 N  
HETATM   16  O   UNL     1      -8.917   6.899  70.506  1.00  0.00    -0.153 OA 
HETATM   17  F   UNL     1     -12.509  10.582  71.656  1.00  0.00    -0.439 F  
HETATM   18  C   UNL     1     -11.562   8.473  72.181  1.00  0.00    -0.377 C  
HETATM   19  C   UNL     1     -11.762   9.505  71.362  1.00  0.00    -0.393 C  
BRANCH  15  20
HETATM   20  C   UNL     1     -10.604   6.237  72.671  1.00  0.00    -0.217 C  
HETATM   21  C   UNL     1      -8.982   6.777  74.279  1.00  0.00    -0.187 C  
HETATM   22  O   UNL     1     -10.384   6.661  74.031  1.00  0.00    -0.333 OA 
HETATM   23  C   UNL     1      -8.504   8.186  73.950  1.00  0.00    -0.306 C  
HETATM   24  C   UNL     1      -8.337   5.684  73.435  1.00  0.00    -0.116 C  
HETATM   25  O   UNL     1      -8.084   4.494  74.200  1.00  0.00    -0.095 OA 
HETATM   26  C   UNL     1      -9.369   5.365  72.346  1.00  0.00    -0.143 C  
HETATM   27  H   UNL     1      -7.682   3.813  73.674  1.00  0.00     0.000 HD 
HETATM   28  O   UNL     1      -9.734   3.976  72.334  1.00  0.00    -0.137 OA 
HETATM   29  H   UNL     1      -8.975   3.440  72.135  1.00  0.00     0.000 HD 
ENDBRANCH  15  20
ENDBRANCH   9  11
ENDBRANCH   6   7
ENDBRANCH   5   6
ENDBRANCH   4   5
ENDBRANCH   3   4
ENDBRANCH   2   3
TORSDOF 7
ENDMDL
MODEL      131
REMARK 921   NORMALIZED FREE ENERGY PREDICTED BY IDOCK:   -4.18 KCAL/MOL
REMARK 922        TOTAL FREE ENERGY PREDICTED BY IDOCK:   -6.99 KCAL/MOL
REMARK 923 INTER-LIGAND FREE ENERGY PREDICTED BY IDOCK:   -7.60 KCAL/MOL
REMARK 924 INTRA-LIGAND FREE ENERGY PREDICTED BY IDOCK:    0.61 KCAL/MOL
REMARK 927      BINDING AFFINITY PREDICTED BY RF-SCORE:    0.00 PKD
ROOT
HETATM    1  C   UNL     1      -7.889   7.595  70.541  1.00  0.00    -0.095 C  
HETATM    2  C   UNL     1      -8.388   8.995  70.881  1.00  0.00    -0.238 C  
ENDROOT
BRANCH   2   3
HETATM    3  C   UNL     1      -9.655   8.926  71.726  1.00  0.00    -0.353 C  
BRANCH   3   4
HETATM    4  C   UNL     1     -10.944   8.933  70.896  1.00  0.00    -0.325 C  
BRANCH   4   5
HETATM    5  C   UNL     1     -11.044  10.269  70.161  1.00  0.00    -0.319 C  
BRANCH   5   6
HETATM    6  O   UNL     1     -11.242  10.139  68.747  1.00  0.00    -0.223 OA 
BRANCH   6   7
HETATM    7  C   UNL     1     -11.166  11.319  68.082  1.00  0.00    -0.286 C  
HETATM    8  O   UNL     1     -11.850  11.597  67.111  1.00  0.00    -0.608 OA 
HETATM    9  N   UNL     1     -10.198  12.097  68.664  1.00  0.00    -0.325 N  
HETATM   10  H   UNL     1      -9.513  11.625  69.253  1.00  0.00     0.000 HD 
BRANCH   9  11
HETATM   11  C   UNL     1     -10.072  13.457  68.520  1.00  0.00    -0.207 C  
HETATM   12  N   UNL     1     -10.626  14.286  69.332  1.00  0.00    -0.421 N  
HETATM   13  C   UNL     1     -10.508  15.636  69.086  1.00  0.00    -0.236 C  
HETATM   14  H   UNL     1     -11.143  13.950  70.144  1.00  0.00     0.000 HD 
HETATM   15  N   UNL     1     -10.162  16.016  67.774  1.00  0.00    -0.254 N  
HETATM   16  O   UNL     1     -10.725  16.446  69.980  1.00  0.00    -0.319 OA 
HETATM   17  F   UNL     1      -8.563  12.948  66.681  1.00  0.00    -0.192 F  
HETATM   18  C   UNL     1      -9.394  15.144  67.011  1.00  0.00    -0.230 C  
HETATM   19  C   UNL     1      -9.265  13.866  67.366  1.00  0.00    -0.224 C  
BRANCH  15  20
HETATM   20  C   UNL     1     -10.331  17.415  67.358  1.00  0.00    -0.343 C  
HETATM   21  C   UNL     1      -8.307  18.189  66.455  1.00  0.00    -0.245 C  
HETATM   22  O   UNL     1      -9.608  17.688  66.141  1.00  0.00    -0.440 OA 
HETATM   23  C   UNL     1      -7.316  17.037  66.576  1.00  0.00    -0.320 C  
HETATM   24  C   UNL     1      -8.490  18.995  67.736  1.00  0.00    -0.293 C  
HETATM   25  O   UNL     1      -8.652  20.397  67.467  1.00  0.00    -0.328 OA 
HETATM   26  C   UNL     1      -9.782  18.456  68.361  1.00  0.00    -0.356 C  
HETATM   27  H   UNL     1      -8.766  20.900  68.265  1.00  0.00     0.000 HD 
HETATM   28  O   UNL     1     -10.753  19.491  68.580  1.00  0.00    -0.423 OA 
HETATM   29  H   UNL     1     -10.415  20.131  69.196  1.00  0.00     0.000 HD 
ENDBRANCH  15  20
ENDBRANCH   9  11
ENDBRANCH   6   7
ENDBRANCH   5   6
ENDBRANCH   4   5
ENDBRANCH   3   4
ENDBRANCH   2   3
TORSDOF 7
ENDMDL
MODEL      132
REMARK 921   NORMALIZED FREE ENERGY PREDICTED BY IDOCK:   -4.16 KCAL/MOL
REMARK 922        TOTAL FREE ENERGY PREDICTED BY IDOCK:   -6.97 KCAL/MOL
REMARK 923 INTER-LIGAND FREE ENERGY PREDICTED BY IDOCK:   -7.24 KCAL/MOL
REMARK 924 INTRA-LIGAND FREE ENERGY PREDICTED BY IDOCK:    0.27 KCAL/MOL
REMARK 927      BINDING AFFINITY PREDICTED BY RF-SCORE:    0.00 PKD
ROOT
HETATM    1  C   UNL     1     -10.487  19.889  67.752  1.00  0.00    -0.511 C  
HETATM    2  C   UNL     1      -9.575  19.311  68.828  1.00  0.00    -0.485 C  
ENDROOT
BRANCH   2   3
HETATM    3  C   UNL     1      -8.388  18.590  68.201  1.00  0.00    -0.316 C  
BRANCH   3   4
HETATM    4  C   UNL     1      -8.395  18.622  66.667  1.00  0.00    -0.297 C  
BRANCH   4   5
HETATM    5  C   UNL     1      -8.681  17.214  66.151  1.00  0.00    -0.188 C  
BRANCH   5   6
HETATM    6  O   UNL     1      -9.984  17.061  65.575  1.00  0.00    -0.567 OA 
BRANCH   6   7
HETATM    7  C   UNL     1     -10.410  15.773  65.540  1.00  0.00    -0.404 C  
HETATM    8  O   UNL     1     -11.002  15.278  64.595  1.00  0.00    -0.382 OA 
HETATM    9  N   UNL     1     -10.089  15.165  66.727  1.00  0.00    -0.253 N  
HETATM   10  H   UNL     1      -9.881  15.772  67.520  1.00  0.00     0.000 HD 
BRANCH   9  11
HETATM   11  C   UNL     1     -10.024  13.809  66.938  1.00  0.00    -0.264 C  
HETATM   12  N   UNL     1      -9.024  13.103  66.547  1.00  0.00    -0.436 N  
HETATM   13  C   UNL     1      -9.059  11.739  66.738  1.00  0.00    -0.194 C  
HETATM   14  H   UNL     1      -8.219  13.543  66.102  1.00  0.00     0.000 HD 
HETATM   15  N   UNL     1     -10.324  11.160  66.959  1.00  0.00    -0.214 N  
HETATM   16  O   UNL     1      -8.025  11.083  66.687  1.00  0.00    -0.144 OA 
HETATM   17  F   UNL     1     -12.096  14.080  68.183  1.00  0.00    -0.367 F  
HETATM   18  C   UNL     1     -11.310  11.930  67.566  1.00  0.00    -0.314 C  
HETATM   19  C   UNL     1     -11.188  13.255  67.636  1.00  0.00    -0.280 C  
BRANCH  15  20
HETATM   20  C   UNL     1     -10.483   9.703  66.850  1.00  0.00    -0.212 C  
HETATM   21  C   UNL     1      -9.936   8.724  68.912  1.00  0.00    -0.192 C  
HETATM   22  O   UNL     1     -11.011   9.143  68.069  1.00  0.00    -0.125 OA 
HETATM   23  C   UNL     1      -9.511   9.864  69.830  1.00  0.00    -0.254 C  
HETATM   24  C   UNL     1      -8.845   8.248  67.959  1.00  0.00    -0.135 C  
HETATM   25  O   UNL     1      -8.879   6.822  67.776  1.00  0.00    -0.120 OA 
HETATM   26  C   UNL     1      -9.163   8.929  66.622  1.00  0.00    -0.170 C  
HETATM   27  H   UNL     1      -8.199   6.526  67.182  1.00  0.00     0.000 HD 
HETATM   28  O   UNL     1      -9.325   7.981  65.556  1.00  0.00    -0.411 OA 
HETATM   29  H   UNL     1      -8.514   7.505  65.416  1.00  0.00     0.000 HD 
ENDBRANCH  15  20
ENDBRANCH   9  11
ENDBRANCH   6   7
ENDBRANCH   5   6
ENDBRANCH   4   5
ENDBRANCH   3   4
ENDBRANCH   2   3
TORSDOF 7
ENDMDL
MODEL      133
REMARK 921   NORMALIZED FREE ENERGY PREDICTED BY IDOCK:   -4.16 KCAL/MOL
REMARK 922        TOTAL FREE ENERGY PREDICTED BY IDOCK:   -6.97 KCAL/MOL
REMARK 923 INTER-LIGAND FREE ENERGY PREDICTED BY IDOCK:   -7.19 KCAL/MOL
REMARK 924 INTRA-LIGAND FREE ENERGY PREDICTED BY IDOCK:    0.22 KCAL/MOL
REMARK 927      BINDING AFFINITY PREDICTED BY RF-SCORE:    0.00 PKD
ROOT
HETATM    1  C   UNL     1      -8.979   8.321  73.070  1.00  0.00    -0.311 C  
HETATM    2  C   UNL     1      -9.248   6.966  72.426  1.00  0.00    -0.145 C  
ENDROOT
BRANCH   2   3
HETATM    3  C   UNL     1     -10.722   6.595  72.546  1.00  0.00    -0.259 C  
BRANCH   3   4
HETATM    4  C   UNL     1     -11.342   6.120  71.226  1.00  0.00    -0.335 C  
BRANCH   4   5
HETATM    5  C   UNL     1     -11.159   7.217  70.179  1.00  0.00    -0.272 C  
BRANCH   5   6
HETATM    6  O   UNL     1     -10.784   6.727  68.886  1.00  0.00    -0.215 OA 
BRANCH   6   7
HETATM    7  C   UNL     1     -10.686   7.703  67.948  1.00  0.00    -0.108 C  
HETATM    8  O   UNL     1     -10.780   7.505  66.748  1.00  0.00    -0.319 OA 
HETATM    9  N   UNL     1     -10.444   8.899  68.574  1.00  0.00    -0.272 N  
HETATM   10  H   UNL     1     -10.089   8.862  69.529  1.00  0.00     0.000 HD 
BRANCH   9  11
HETATM   11  C   UNL     1     -10.638  10.143  68.023  1.00  0.00    -0.231 C  
HETATM   12  N   UNL     1      -9.948  10.564  67.023  1.00  0.00    -0.193 N  
HETATM   13  C   UNL     1     -10.155  11.846  66.566  1.00  0.00    -0.203 C  
HETATM   14  H   UNL     1      -9.259   9.959  66.576  1.00  0.00     0.000 HD 
HETATM   15  N   UNL     1     -10.786  12.743  67.451  1.00  0.00    -0.236 N  
HETATM   16  O   UNL     1      -9.776  12.170  65.447  1.00  0.00    -0.235 OA 
HETATM   17  F   UNL     1     -12.490  10.354  69.586  1.00  0.00    -0.284 F  
HETATM   18  C   UNL     1     -11.674  12.233  68.392  1.00  0.00    -0.337 C  
HETATM   19  C   UNL     1     -11.685  10.932  68.679  1.00  0.00    -0.263 C  
BRANCH  15  20
HETATM   20  C   UNL     1     -10.752  14.185  67.168  1.00  0.00    -0.280 C  
HETATM   21  C   UNL     1     -12.350  14.672  65.519  1.00  0.00    -0.168 C  
HETATM   22  O   UNL     1     -12.075  14.699  66.921  1.00  0.00    -0.361 OA 
HETATM   23  C   UNL     1     -12.987  13.343  65.133  1.00  0.00    -0.249 C  
HETATM   24  C   UNL     1     -11.008  14.941  64.846  1.00  0.00    -0.408 C  
HETATM   25  O   UNL     1     -10.852  16.327  64.499  1.00  0.00    -0.867 OA 
HETATM   26  C   UNL     1      -9.956  14.571  65.899  1.00  0.00    -0.329 C  
HETATM   27  H   UNL     1     -10.016  16.495  64.079  1.00  0.00     0.000 HD 
HETATM   28  O   UNL     1      -9.068  15.662  66.186  1.00  0.00    -0.312 OA 
HETATM   29  H   UNL     1      -8.580  15.900  65.407  1.00  0.00     0.000 HD 
ENDBRANCH  15  20
ENDBRANCH   9  11
ENDBRANCH   6   7
ENDBRANCH   5   6
ENDBRANCH   4   5
ENDBRANCH   3   4
ENDBRANCH   2   3
TORSDOF 7
ENDMDL
MODEL      134
REMARK 921   NORMALIZED FREE ENERGY PREDICTED BY IDOCK:   -4.16 KCAL/MOL
REMARK 922        TOTAL FREE ENERGY PREDICTED BY IDOCK:   -6.96 KCAL/MOL
REMARK 923 INTER-LIGAND FREE ENERGY PREDICTED BY IDOCK:   -6.11 KCAL/MOL
REMARK 924 INTRA-LIGAND FREE ENERGY PREDICTED BY IDOCK:   -0.85 KCAL/MOL
REMARK 927      BINDING AFFINITY PREDICTED BY RF-SCORE:    0.00 PKD
ROOT
HETATM    1  C   UNL     1      -9.400   2.924  68.684  1.00  0.00    -0.239 C  
HETATM    2  C   UNL     1      -9.783   3.895  69.796  1.00  0.00    -0.227 C  
ENDROOT
BRANCH   2   3
HETATM    3  C   UNL     1      -8.974   3.617  71.058  1.00  0.00    -0.159 C  
BRANCH   3   4
HETATM    4  C   UNL     1      -8.271   4.860  71.618  1.00  0.00    -0.114 C  
BRANCH   4   5
HETATM    5  C   UNL     1      -9.205   6.059  71.465  1.00  0.00    -0.143 C  
BRANCH   5   6
HETATM    6  O   UNL     1      -8.803   7.207  72.222  1.00  0.00    -0.128 OA 
BRANCH   6   7
HETATM    7  C   UNL     1      -8.921   8.372  71.536  1.00  0.00    -0.194 C  
HETATM    8  O   UNL     1      -8.005   9.161  71.375  1.00  0.00    -0.314 OA 
HETATM    9  N   UNL     1     -10.215   8.505  71.102  1.00  0.00    -0.201 N  
HETATM   10  H   UNL     1     -10.923   7.937  71.566  1.00  0.00     0.000 HD 
BRANCH   9  11
HETATM   11  C   UNL     1     -10.638   9.339  70.096  1.00  0.00    -0.231 C  
HETATM   12  N   UNL     1     -10.303   9.156  68.868  1.00  0.00    -0.211 N  
HETATM   13  C   UNL     1     -10.714  10.071  67.924  1.00  0.00    -0.272 C  
HETATM   14  H   UNL     1      -9.742   8.348  68.598  1.00  0.00     0.000 HD 
HETATM   15  N   UNL     1     -11.107  11.339  68.396  1.00  0.00    -0.219 N  
HETATM   16  O   UNL     1     -10.704   9.775  66.735  1.00  0.00    -0.170 OA 
HETATM   17  F   UNL     1     -11.953  10.455  71.812  1.00  0.00    -0.406 F  
HETATM   18  C   UNL     1     -11.643  11.435  69.675  1.00  0.00    -0.330 C  
HETATM   19  C   UNL     1     -11.490  10.443  70.551  1.00  0.00    -0.345 C  
BRANCH  15  20
HETATM   20  C   UNL     1     -11.245  12.453  67.447  1.00  0.00    -0.297 C  
HETATM   21  C   UNL     1      -9.222  13.641  67.372  1.00  0.00    -0.222 C  
HETATM   22  O   UNL     1     -10.025  12.663  66.708  1.00  0.00    -0.225 OA 
HETATM   23  C   UNL     1      -8.291  12.967  68.372  1.00  0.00    -0.116 C  
HETATM   24  C   UNL     1     -10.216  14.613  67.998  1.00  0.00    -0.231 C  
HETATM   25  O   UNL     1     -10.431  15.767  67.169  1.00  0.00    -0.296 OA 
HETATM   26  C   UNL     1     -11.527  13.824  68.103  1.00  0.00    -0.313 C  
HETATM   27  H   UNL     1     -11.050  16.373  67.560  1.00  0.00     0.000 HD 
HETATM   28  O   UNL     1     -12.611  14.481  67.427  1.00  0.00    -0.509 OA 
HETATM   29  H   UNL     1     -12.784  15.324  67.830  1.00  0.00     0.000 HD 
ENDBRANCH  15  20
ENDBRANCH   9  11
ENDBRANCH   6   7
ENDBRANCH   5   6
ENDBRANCH   4   5
ENDBRANCH   3   4
ENDBRANCH   2   3
TORSDOF 7
ENDMDL
MODEL      135
REMARK 921   NORMALIZED FREE ENERGY PREDICTED BY IDOCK:   -4.15 KCAL/MOL
REMARK 922        TOTAL FREE ENERGY PREDICTED BY IDOCK:   -6.95 KCAL/MOL
REMARK 923 INTER-LIGAND FREE ENERGY PREDICTED BY IDOCK:   -5.96 KCAL/MOL
REMARK 924 INTRA-LIGAND FREE ENERGY PREDICTED BY IDOCK:   -0.99 KCAL/MOL
REMARK 927      BINDING AFFINITY PREDICTED BY RF-SCORE:    0.00 PKD
ROOT
HETATM    1  C   UNL     1      -9.846  15.911  65.615  1.00  0.00    -0.337 C  
HETATM    2  C   UNL     1     -11.063  15.272  64.955  1.00  0.00    -0.436 C  
ENDROOT
BRANCH   2   3
HETATM    3  C   UNL     1     -10.834  13.782  64.727  1.00  0.00    -0.410 C  
BRANCH   3   4
HETATM    4  C   UNL     1     -11.975  12.901  65.250  1.00  0.00    -0.459 C  
BRANCH   4   5
HETATM    5  C   UNL     1     -12.034  13.031  66.771  1.00  0.00    -0.369 C  
BRANCH   5   6
HETATM    6  O   UNL     1     -10.939  12.403  67.449  1.00  0.00    -0.236 OA 
BRANCH   6   7
HETATM    7  C   UNL     1     -11.275  11.230  68.042  1.00  0.00    -0.287 C  
HETATM    8  O   UNL     1     -12.364  11.011  68.547  1.00  0.00    -0.536 OA 
HETATM    9  N   UNL     1     -10.198  10.383  67.998  1.00  0.00    -0.162 N  
HETATM   10  H   UNL     1      -9.283  10.801  67.830  1.00  0.00     0.000 HD 
BRANCH   9  11
HETATM   11  C   UNL     1     -10.246   9.020  68.159  1.00  0.00    -0.204 C  
HETATM   12  N   UNL     1     -10.375   8.471  69.315  1.00  0.00    -0.219 N  
HETATM   13  C   UNL     1     -10.351   7.097  69.404  1.00  0.00    -0.198 C  
HETATM   14  H   UNL     1     -10.493   9.043  70.151  1.00  0.00     0.000 HD 
HETATM   15  N   UNL     1      -9.782   6.399  68.321  1.00  0.00    -0.126 N  
HETATM   16  O   UNL     1     -10.789   6.537  70.402  1.00  0.00    -0.236 OA 
HETATM   17  F   UNL     1     -10.194   8.905  65.730  1.00  0.00    -0.321 F  
HETATM   18  C   UNL     1      -9.846   6.970  67.055  1.00  0.00    -0.183 C  
HETATM   19  C   UNL     1     -10.130   8.263  66.908  1.00  0.00    -0.296 C  
BRANCH  15  20
HETATM   20  C   UNL     1      -9.430   4.980  68.478  1.00  0.00    -0.138 C  
HETATM   21  C   UNL     1      -7.105   4.801  68.748  1.00  0.00    -0.053 C  
HETATM   22  O   UNL     1      -8.361   4.812  69.430  1.00  0.00    -0.076 OA 
HETATM   23  C   UNL     1      -6.550   6.217  68.645  1.00  0.00    -0.055 C  
HETATM   24  C   UNL     1      -7.388   4.140  67.404  1.00  0.00    -0.069 C  
HETATM   25  O   UNL     1      -7.068   2.739  67.418  1.00  0.00    -0.051 OA 
HETATM   26  C   UNL     1      -8.899   4.304  67.193  1.00  0.00    -0.113 C  
HETATM   27  H   UNL     1      -7.244   2.328  66.580  1.00  0.00     0.000 HD 
HETATM   28  O   UNL     1      -9.557   3.044  66.990  1.00  0.00    -0.387 OA 
HETATM   29  H   UNL     1      -9.231   2.628  66.201  1.00  0.00     0.000 HD 
ENDBRANCH  15  20
ENDBRANCH   9  11
ENDBRANCH   6   7
ENDBRANCH   5   6
ENDBRANCH   4   5
ENDBRANCH   3   4
ENDBRANCH   2   3
TORSDOF 7
ENDMDL
MODEL      136
REMARK 921   NORMALIZED FREE ENERGY PREDICTED BY IDOCK:   -4.14 KCAL/MOL
REMARK 922        TOTAL FREE ENERGY PREDICTED BY IDOCK:   -6.94 KCAL/MOL
REMARK 923 INTER-LIGAND FREE ENERGY PREDICTED BY IDOCK:   -6.58 KCAL/MOL
REMARK 924 INTRA-LIGAND FREE ENERGY PREDICTED BY IDOCK:   -0.35 KCAL/MOL
REMARK 927      BINDING AFFINITY PREDICTED BY RF-SCORE:    0.00 PKD
ROOT
HETATM    1  C   UNL     1      -5.640  17.652  69.832  1.00  0.00    -0.238 C  
HETATM    2  C   UNL     1      -5.382  18.646  68.706  1.00  0.00    -0.193 C  
ENDROOT
BRANCH   2   3
HETATM    3  C   UNL     1      -6.511  19.667  68.616  1.00  0.00    -0.308 C  
BRANCH   3   4
HETATM    4  C   UNL     1      -7.828  19.076  68.099  1.00  0.00    -0.334 C  
BRANCH   4   5
HETATM    5  C   UNL     1      -8.456  20.066  67.121  1.00  0.00    -0.334 C  
BRANCH   5   6
HETATM    6  O   UNL     1      -9.142  19.444  66.027  1.00  0.00    -0.414 OA 
BRANCH   6   7
HETATM    7  C   UNL     1      -9.230  18.095  66.145  1.00  0.00    -0.119 C  
HETATM    8  O   UNL     1      -8.362  17.322  65.775  1.00  0.00    -0.535 OA 
HETATM    9  N   UNL     1     -10.440  17.775  66.707  1.00  0.00    -0.328 N  
HETATM   10  H   UNL     1     -11.170  18.485  66.676  1.00  0.00     0.000 HD 
BRANCH   9  11
HETATM   11  C   UNL     1     -10.750  16.579  67.307  1.00  0.00    -0.243 C  
HETATM   12  N   UNL     1     -10.613  16.392  68.572  1.00  0.00    -0.286 N  
HETATM   13  C   UNL     1     -10.884  15.146  69.092  1.00  0.00    -0.251 C  
HETATM   14  H   UNL     1     -10.310  17.153  69.180  1.00  0.00     0.000 HD 
HETATM   15  N   UNL     1     -10.888  14.066  68.188  1.00  0.00    -0.243 N  
HETATM   16  O   UNL     1     -11.085  15.011  70.293  1.00  0.00    -0.249 OA 
HETATM   17  F   UNL     1     -11.536  15.881  65.114  1.00  0.00    -0.196 F  
HETATM   18  C   UNL     1     -11.233  14.310  66.863  1.00  0.00    -0.326 C  
HETATM   19  C   UNL     1     -11.238  15.552  66.381  1.00  0.00    -0.098 C  
BRANCH  15  20
HETATM   20  C   UNL     1     -10.847  12.690  68.703  1.00  0.00    -0.249 C  
HETATM   21  C   UNL     1      -8.926  11.626  67.874  1.00  0.00    -0.170 C  
HETATM   22  O   UNL     1      -9.497  12.286  69.006  1.00  0.00     0.129 OA 
HETATM   23  C   UNL     1      -8.232  12.637  66.969  1.00  0.00    -0.110 C  
HETATM   24  C   UNL     1     -10.088  10.890  67.216  1.00  0.00    -0.191 C  
HETATM   25  O   UNL     1     -10.152   9.514  67.627  1.00  0.00    -0.179 OA 
HETATM   26  C   UNL     1     -11.346  11.616  67.708  1.00  0.00    -0.288 C  
HETATM   27  H   UNL     1     -10.876   9.056  67.216  1.00  0.00     0.000 HD 
HETATM   28  O   UNL     1     -12.265  10.727  68.361  1.00  0.00    -0.832 OA 
HETATM   29  H   UNL     1     -12.571  10.067  67.750  1.00  0.00     0.000 HD 
ENDBRANCH  15  20
ENDBRANCH   9  11
ENDBRANCH   6   7
ENDBRANCH   5   6
ENDBRANCH   4   5
ENDBRANCH   3   4
ENDBRANCH   2   3
TORSDOF 7
ENDMDL
MODEL      137
REMARK 921   NORMALIZED FREE ENERGY PREDICTED BY IDOCK:   -4.14 KCAL/MOL
REMARK 922        TOTAL FREE ENERGY PREDICTED BY IDOCK:   -6.93 KCAL/MOL
REMARK 923 INTER-LIGAND FREE ENERGY PREDICTED BY IDOCK:   -6.01 KCAL/MOL
REMARK 924 INTRA-LIGAND FREE ENERGY PREDICTED BY IDOCK:   -0.93 KCAL/MOL
REMARK 927      BINDING AFFINITY PREDICTED BY RF-SCORE:    0.00 PKD
ROOT
HETATM    1  C   UNL     1     -12.589  16.783  74.265  1.00  0.00    -0.114 C  
HETATM    2  C   UNL     1     -12.159  15.464  73.635  1.00  0.00    -0.637 C  
ENDROOT
BRANCH   2   3
HETATM    3  C   UNL     1     -12.678  15.353  72.206  1.00  0.00    -0.466 C  
BRANCH   3   4
HETATM    4  C   UNL     1     -11.594  14.973  71.190  1.00  0.00    -0.377 C  
BRANCH   4   5
HETATM    5  C   UNL     1     -12.203  14.027  70.158  1.00  0.00    -0.359 C  
BRANCH   5   6
HETATM    6  O   UNL     1     -11.234  13.250  69.442  1.00  0.00    -0.233 OA 
BRANCH   6   7
HETATM    7  C   UNL     1     -11.324  11.919  69.687  1.00  0.00    -0.195 C  
HETATM    8  O   UNL     1     -12.320  11.376  70.137  1.00  0.00    -0.297 OA 
HETATM    9  N   UNL     1     -10.127  11.326  69.376  1.00  0.00    -0.434 N  
HETATM   10  H   UNL     1      -9.310  11.932  69.310  1.00  0.00     0.000 HD 
BRANCH   9  11
HETATM   11  C   UNL     1      -9.935   9.985  69.146  1.00  0.00    -0.204 C  
HETATM   12  N   UNL     1     -10.720   9.300  68.393  1.00  0.00    -0.389 N  
HETATM   13  C   UNL     1     -10.501   7.947  68.261  1.00  0.00    -0.164 C  
HETATM   14  H   UNL     1     -11.492   9.751  67.901  1.00  0.00     0.000 HD 
HETATM   15  N   UNL     1      -9.716   7.330  69.255  1.00  0.00    -0.160 N  
HETATM   16  O   UNL     1     -10.998   7.331  67.326  1.00  0.00    -0.293 OA 
HETATM   17  F   UNL     1      -7.894  10.233  70.446  1.00  0.00    -0.173 F  
HETATM   18  C   UNL     1      -8.748   8.088  69.903  1.00  0.00    -0.139 C  
HETATM   19  C   UNL     1      -8.773   9.419  69.837  1.00  0.00    -0.197 C  
BRANCH  15  20
HETATM   20  C   UNL     1      -9.706   5.864  69.363  1.00  0.00    -0.152 C  
HETATM   21  C   UNL     1     -10.959   5.233  71.245  1.00  0.00     0.011 C  
HETATM   22  O   UNL     1     -10.979   5.367  69.822  1.00  0.00    -0.246 OA 
HETATM   23  C   UNL     1     -11.429   6.527  71.901  1.00  0.00    -0.345 C  
HETATM   24  C   UNL     1      -9.527   4.842  71.588  1.00  0.00    -0.151 C  
HETATM   25  O   UNL     1      -9.382   3.420  71.738  1.00  0.00    -0.112 OA 
HETATM   26  C   UNL     1      -8.692   5.302  70.386  1.00  0.00    -0.127 C  
HETATM   27  H   UNL     1      -8.489   3.175  71.952  1.00  0.00     0.000 HD 
HETATM   28  O   UNL     1      -7.945   4.225  69.800  1.00  0.00    -0.056 OA 
HETATM   29  H   UNL     1      -7.322   3.879  70.429  1.00  0.00     0.000 HD 
ENDBRANCH  15  20
ENDBRANCH   9  11
ENDBRANCH   6   7
ENDBRANCH   5   6
ENDBRANCH   4   5
ENDBRANCH   3   4
ENDBRANCH   2   3
TORSDOF 7
ENDMDL
MODEL      138
REMARK 921   NORMALIZED FREE ENERGY PREDICTED BY IDOCK:   -4.13 KCAL/MOL
REMARK 922        TOTAL FREE ENERGY PREDICTED BY IDOCK:   -6.92 KCAL/MOL
REMARK 923 INTER-LIGAND FREE ENERGY PREDICTED BY IDOCK:   -6.06 KCAL/MOL
REMARK 924 INTRA-LIGAND FREE ENERGY PREDICTED BY IDOCK:   -0.86 KCAL/MOL
REMARK 927      BINDING AFFINITY PREDICTED BY RF-SCORE:    0.00 PKD
ROOT
HETATM    1  C   UNL     1      -9.142   2.656  67.141  1.00  0.00    -0.181 C  
HETATM    2  C   UNL     1      -9.077   4.125  67.543  1.00  0.00    -0.161 C  
ENDROOT
BRANCH   2   3
HETATM    3  C   UNL     1      -9.811   4.995  66.528  1.00  0.00    -0.218 C  
BRANCH   3   4
HETATM    4  C   UNL     1     -10.897   5.879  67.153  1.00  0.00    -0.373 C  
BRANCH   4   5
HETATM    5  C   UNL     1     -10.361   7.304  67.266  1.00  0.00    -0.279 C  
BRANCH   5   6
HETATM    6  O   UNL     1      -9.600   7.729  66.128  1.00  0.00    -0.146 OA 
BRANCH   6   7
HETATM    7  C   UNL     1      -9.505   9.078  66.016  1.00  0.00    -0.256 C  
HETATM    8  O   UNL     1      -9.646   9.684  64.967  1.00  0.00    -0.280 OA 
HETATM    9  N   UNL     1      -9.206   9.607  67.245  1.00  0.00    -0.134 N  
HETATM   10  H   UNL     1      -8.821   8.973  67.944  1.00  0.00     0.000 HD 
BRANCH   9  11
HETATM   11  C   UNL     1      -9.382  10.918  67.615  1.00  0.00    -0.156 C  
HETATM   12  N   UNL     1     -10.475  11.340  68.145  1.00  0.00    -0.182 N  
HETATM   13  C   UNL     1     -10.600  12.681  68.430  1.00  0.00    -0.243 C  
HETATM   14  H   UNL     1     -11.236  10.693  68.349  1.00  0.00     0.000 HD 
HETATM   15  N   UNL     1      -9.722  13.559  67.762  1.00  0.00    -0.219 N  
HETATM   16  O   UNL     1     -11.459  13.067  69.213  1.00  0.00    -0.274 OA 
HETATM   17  F   UNL     1      -7.056  11.228  66.973  1.00  0.00    -0.096 F  
HETATM   18  C   UNL     1      -8.471  13.086  67.383  1.00  0.00    -0.200 C  
HETATM   19  C   UNL     1      -8.224  11.777  67.346  1.00  0.00    -0.160 C  
BRANCH  15  20
HETATM   20  C   UNL     1     -10.001  15.002  67.765  1.00  0.00    -0.229 C  
HETATM   21  C   UNL     1     -10.628  15.657  65.599  1.00  0.00    -0.378 C  
HETATM   22  O   UNL     1     -11.111  15.320  66.902  1.00  0.00    -0.321 OA 
HETATM   23  C   UNL     1     -10.540  14.408  64.731  1.00  0.00    -0.417 C  
HETATM   24  C   UNL     1      -9.290  16.348  65.838  1.00  0.00    -0.227 C  
HETATM   25  O   UNL     1      -9.422  17.780  65.848  1.00  0.00    -0.521 OA 
HETATM   26  C   UNL     1      -8.846  15.880  67.230  1.00  0.00    -0.196 C  
HETATM   27  H   UNL     1      -8.588  18.211  65.997  1.00  0.00     0.000 HD 
HETATM   28  O   UNL     1      -8.608  16.980  68.122  1.00  0.00    -0.214 OA 
HETATM   29  H   UNL     1      -7.898  17.520  67.793  1.00  0.00     0.000 HD 
ENDBRANCH  15  20
ENDBRANCH   9  11
ENDBRANCH   6   7
ENDBRANCH   5   6
ENDBRANCH   4   5
ENDBRANCH   3   4
ENDBRANCH   2   3
TORSDOF 7
ENDMDL
MODEL      139
REMARK 921   NORMALIZED FREE ENERGY PREDICTED BY IDOCK:   -4.12 KCAL/MOL
REMARK 922        TOTAL FREE ENERGY PREDICTED BY IDOCK:   -6.90 KCAL/MOL
REMARK 923 INTER-LIGAND FREE ENERGY PREDICTED BY IDOCK:   -6.82 KCAL/MOL
REMARK 924 INTRA-LIGAND FREE ENERGY PREDICTED BY IDOCK:   -0.08 KCAL/MOL
REMARK 927      BINDING AFFINITY PREDICTED BY RF-SCORE:    0.00 PKD
ROOT
HETATM    1  C   UNL     1      -9.203   8.886  71.538  1.00  0.00    -0.322 C  
HETATM    2  C   UNL     1     -10.303   7.940  71.069  1.00  0.00    -0.221 C  
ENDROOT
BRANCH   2   3
HETATM    3  C   UNL     1     -10.984   7.271  72.258  1.00  0.00    -0.286 C  
BRANCH   3   4
HETATM    4  C   UNL     1     -12.509   7.187  72.120  1.00  0.00    -0.194 C  
BRANCH   4   5
HETATM    5  C   UNL     1     -13.010   8.470  71.459  1.00  0.00    -0.303 C  
BRANCH   5   6
HETATM    6  O   UNL     1     -13.356   9.504  72.389  1.00  0.00    -0.446 OA 
BRANCH   6   7
HETATM    7  C   UNL     1     -13.128  10.754  71.913  1.00  0.00    -0.451 C  
HETATM    8  O   UNL     1     -13.281  11.770  72.570  1.00  0.00    -0.176 OA 
HETATM    9  N   UNL     1     -12.737  10.667  70.601  1.00  0.00    -0.364 N  
HETATM   10  H   UNL     1     -12.950   9.800  70.108  1.00  0.00     0.000 HD 
BRANCH   9  11
HETATM   11  C   UNL     1     -12.084  11.648  69.895  1.00  0.00    -0.301 C  
HETATM   12  N   UNL     1     -11.980  12.852  70.332  1.00  0.00    -0.518 N  
HETATM   13  C   UNL     1     -11.366  13.796  69.539  1.00  0.00    -0.224 C  
HETATM   14  H   UNL     1     -12.345  13.105  71.250  1.00  0.00     0.000 HD 
HETATM   15  N   UNL     1     -11.266  13.504  68.164  1.00  0.00    -0.259 N  
HETATM   16  O   UNL     1     -10.958  14.842  70.030  1.00  0.00    -0.227 OA 
HETATM   17  F   UNL     1     -11.513   9.887  68.317  1.00  0.00    -0.239 F  
HETATM   18  C   UNL     1     -11.191  12.172  67.772  1.00  0.00    -0.275 C  
HETATM   19  C   UNL     1     -11.533  11.197  68.613  1.00  0.00    -0.298 C  
BRANCH  15  20
HETATM   20  C   UNL     1     -10.925  14.577  67.219  1.00  0.00    -0.305 C  
HETATM   21  C   UNL     1      -8.709  14.282  66.504  1.00  0.00     0.023 C  
HETATM   22  O   UNL     1     -10.082  14.088  66.157  1.00  0.00    -0.290 OA 
HETATM   23  C   UNL     1      -8.177  13.062  67.248  1.00  0.00    -0.174 C  
HETATM   24  C   UNL     1      -8.682  15.571  67.316  1.00  0.00    -0.195 C  
HETATM   25  O   UNL     1      -8.342  16.708  66.504  1.00  0.00    -0.228 OA 
HETATM   26  C   UNL     1     -10.116  15.742  67.835  1.00  0.00    -0.230 C  
HETATM   27  H   UNL     1      -8.325  17.512  67.011  1.00  0.00     0.000 HD 
HETATM   28  O   UNL     1     -10.687  17.000  67.446  1.00  0.00    -0.318 OA 
HETATM   29  H   UNL     1     -10.190  17.716  67.823  1.00  0.00     0.000 HD 
ENDBRANCH  15  20
ENDBRANCH   9  11
ENDBRANCH   6   7
ENDBRANCH   5   6
ENDBRANCH   4   5
ENDBRANCH   3   4
ENDBRANCH   2   3
TORSDOF 7
ENDMDL
MODEL      140
REMARK 921   NORMALIZED FREE ENERGY PREDICTED BY IDOCK:   -4.12 KCAL/MOL
REMARK 922        TOTAL FREE ENERGY PREDICTED BY IDOCK:   -6.90 KCAL/MOL
REMARK 923 INTER-LIGAND FREE ENERGY PREDICTED BY IDOCK:   -5.91 KCAL/MOL
REMARK 924 INTRA-LIGAND FREE ENERGY PREDICTED BY IDOCK:   -0.99 KCAL/MOL
REMARK 927      BINDING AFFINITY PREDICTED BY RF-SCORE:    0.00 PKD
ROOT
HETATM    1  C   UNL     1      -8.412   6.354  72.457  1.00  0.00    -0.123 C  
HETATM    2  C   UNL     1      -9.528   7.357  72.725  1.00  0.00    -0.207 C  
ENDROOT
BRANCH   2   3
HETATM    3  C   UNL     1     -10.817   6.929  72.034  1.00  0.00    -0.255 C  
BRANCH   3   4
HETATM    4  C   UNL     1     -10.599   5.900  70.918  1.00  0.00    -0.319 C  
BRANCH   4   5
HETATM    5  C   UNL     1     -10.811   6.588  69.571  1.00  0.00    -0.304 C  
BRANCH   5   6
HETATM    6  O   UNL     1     -11.198   7.964  69.678  1.00  0.00    -0.097 OA 
BRANCH   6   7
HETATM    7  C   UNL     1     -10.236   8.827  69.264  1.00  0.00    -0.210 C  
HETATM    8  O   UNL     1      -9.106   8.487  68.952  1.00  0.00    -0.145 OA 
HETATM    9  N   UNL     1     -10.740  10.102  69.288  1.00  0.00    -0.218 N  
HETATM   10  H   UNL     1     -11.574  10.263  69.852  1.00  0.00     0.000 HD 
BRANCH   9  11
HETATM   11  C   UNL     1     -10.218  11.181  68.617  1.00  0.00    -0.205 C  
HETATM   12  N   UNL     1      -8.993  11.547  68.757  1.00  0.00    -0.353 N  
HETATM   13  C   UNL     1      -8.559  12.677  68.100  1.00  0.00    -0.188 C  
HETATM   14  H   UNL     1      -8.355  11.011  69.344  1.00  0.00     0.000 HD 
HETATM   15  N   UNL     1      -9.549  13.580  67.663  1.00  0.00    -0.215 N  
HETATM   16  O   UNL     1      -7.360  12.873  67.938  1.00  0.00    -0.099 OA 
HETATM   17  F   UNL     1     -12.377  11.312  67.503  1.00  0.00    -0.002 F  
HETATM   18  C   UNL     1     -10.807  13.082  67.345  1.00  0.00    -0.251 C  
HETATM   19  C   UNL     1     -11.177  11.866  67.745  1.00  0.00    -0.267 C  
BRANCH  15  20
HETATM   20  C   UNL     1      -9.161  14.936  67.252  1.00  0.00    -0.201 C  
HETATM   21  C   UNL     1      -9.694  16.434  68.979  1.00  0.00    -0.262 C  
HETATM   22  O   UNL     1      -8.640  15.689  68.365  1.00  0.00    -0.164 OA 
HETATM   23  C   UNL     1     -10.353  15.607  70.076  1.00  0.00    -0.309 C  
HETATM   24  C   UNL     1     -10.628  16.816  67.837  1.00  0.00    -0.350 C  
HETATM   25  O   UNL     1     -10.362  18.141  67.348  1.00  0.00    -0.355 OA 
HETATM   26  C   UNL     1     -10.326  15.805  66.724  1.00  0.00    -0.293 C  
HETATM   27  H   UNL     1     -10.945  18.380  66.636  1.00  0.00     0.000 HD 
HETATM   28  O   UNL     1      -9.945  16.447  65.496  1.00  0.00    -0.518 OA 
HETATM   29  H   UNL     1     -10.661  16.981  65.172  1.00  0.00     0.000 HD 
ENDBRANCH  15  20
ENDBRANCH   9  11
ENDBRANCH   6   7
ENDBRANCH   5   6
ENDBRANCH   4   5
ENDBRANCH   3   4
ENDBRANCH   2   3
TORSDOF 7
ENDMDL
MODEL      141
REMARK 921   NORMALIZED FREE ENERGY PREDICTED BY IDOCK:   -4.11 KCAL/MOL
REMARK 922        TOTAL FREE ENERGY PREDICTED BY IDOCK:   -6.90 KCAL/MOL
REMARK 923 INTER-LIGAND FREE ENERGY PREDICTED BY IDOCK:   -7.11 KCAL/MOL
REMARK 924 INTRA-LIGAND FREE ENERGY PREDICTED BY IDOCK:    0.21 KCAL/MOL
REMARK 927      BINDING AFFINITY PREDICTED BY RF-SCORE:    0.00 PKD
ROOT
HETATM    1  C   UNL     1      -8.947   5.940  73.528  1.00  0.00    -0.128 C  
HETATM    2  C   UNL     1     -10.320   5.368  73.862  1.00  0.00    -0.287 C  
ENDROOT
BRANCH   2   3
HETATM    3  C   UNL     1     -11.082   5.015  72.589  1.00  0.00    -0.265 C  
BRANCH   3   4
HETATM    4  C   UNL     1     -10.249   5.181  71.313  1.00  0.00    -0.292 C  
BRANCH   4   5
HETATM    5  C   UNL     1     -10.842   6.321  70.488  1.00  0.00    -0.288 C  
BRANCH   5   6
HETATM    6  O   UNL     1     -11.855   7.067  71.175  1.00  0.00    -0.301 OA 
BRANCH   6   7
HETATM    7  C   UNL     1     -11.534   8.373  71.354  1.00  0.00    -0.277 C  
HETATM    8  O   UNL     1     -10.697   8.764  72.150  1.00  0.00    -0.339 OA 
HETATM    9  N   UNL     1     -12.316   9.141  70.530  1.00  0.00    -0.472 N  
HETATM   10  H   UNL     1     -13.165   8.713  70.161  1.00  0.00     0.000 HD 
BRANCH   9  11
HETATM   11  C   UNL     1     -12.053  10.437  70.159  1.00  0.00    -0.256 C  
HETATM   12  N   UNL     1     -12.354  11.438  70.908  1.00  0.00    -0.392 N  
HETATM   13  C   UNL     1     -12.118  12.712  70.440  1.00  0.00    -0.300 C  
HETATM   14  H   UNL     1     -12.761  11.292  71.831  1.00  0.00     0.000 HD 
HETATM   15  N   UNL     1     -11.957  12.859  69.048  1.00  0.00    -0.283 N  
HETATM   16  O   UNL     1     -12.078  13.656  71.219  1.00  0.00    -0.262 OA 
HETATM   17  F   UNL     1     -10.955   9.474  68.214  1.00  0.00    -0.260 F  
HETATM   18  C   UNL     1     -11.443  11.791  68.322  1.00  0.00    -0.307 C  
HETATM   19  C   UNL     1     -11.412  10.567  68.846  1.00  0.00    -0.226 C  
BRANCH  15  20
HETATM   20  C   UNL     1     -12.025  14.200  68.450  1.00  0.00    -0.331 C  
HETATM   21  C   UNL     1      -9.869  14.839  67.773  1.00  0.00    -0.214 C  
HETATM   22  O   UNL     1     -11.124  14.318  67.330  1.00  0.00    -0.288 OA 
HETATM   23  C   UNL     1      -8.939  13.700  68.175  1.00  0.00    -0.191 C  
HETATM   24  C   UNL     1     -10.215  15.795  68.909  1.00  0.00    -0.219 C  
HETATM   25  O   UNL     1     -10.297  17.156  68.457  1.00  0.00    -0.318 OA 
HETATM   26  C   UNL     1     -11.600  15.348  69.395  1.00  0.00    -0.340 C  
HETATM   27  H   UNL     1     -10.512  17.752  69.166  1.00  0.00     0.000 HD 
HETATM   28  O   UNL     1     -12.562  16.412  69.344  1.00  0.00    -0.272 OA 
HETATM   29  H   UNL     1     -12.301  17.117  69.925  1.00  0.00     0.000 HD 
ENDBRANCH  15  20
ENDBRANCH   9  11
ENDBRANCH   6   7
ENDBRANCH   5   6
ENDBRANCH   4   5
ENDBRANCH   3   4
ENDBRANCH   2   3
TORSDOF 7
ENDMDL
MODEL      142
REMARK 921   NORMALIZED FREE ENERGY PREDICTED BY IDOCK:   -4.10 KCAL/MOL
REMARK 922        TOTAL FREE ENERGY PREDICTED BY IDOCK:   -6.88 KCAL/MOL
REMARK 923 INTER-LIGAND FREE ENERGY PREDICTED BY IDOCK:   -5.78 KCAL/MOL
REMARK 924 INTRA-LIGAND FREE ENERGY PREDICTED BY IDOCK:   -1.10 KCAL/MOL
REMARK 927      BINDING AFFINITY PREDICTED BY RF-SCORE:    0.00 PKD
ROOT
HETATM    1  C   UNL     1      -5.742   8.751  67.147  1.00  0.00    -0.042 C  
HETATM    2  C   UNL     1      -5.964   7.375  66.530  1.00  0.00    -0.036 C  
ENDROOT
BRANCH   2   3
HETATM    3  C   UNL     1      -7.016   7.440  65.428  1.00  0.00    -0.059 C  
BRANCH   3   4
HETATM    4  C   UNL     1      -6.446   7.845  64.063  1.00  0.00    -0.061 C  
BRANCH   4   5
HETATM    5  C   UNL     1      -7.125   9.138  63.615  1.00  0.00    -0.093 C  
BRANCH   5   6
HETATM    6  O   UNL     1      -8.547   9.026  63.475  1.00  0.00    -0.194 OA 
BRANCH   6   7
HETATM    7  C   UNL     1      -9.223  10.085  63.989  1.00  0.00    -0.272 C  
HETATM    8  O   UNL     1     -10.148  10.642  63.422  1.00  0.00    -0.317 OA 
HETATM    9  N   UNL     1      -8.677  10.416  65.203  1.00  0.00    -0.174 N  
HETATM   10  H   UNL     1      -7.737  10.072  65.400  1.00  0.00     0.000 HD 
BRANCH   9  11
HETATM   11  C   UNL     1      -9.287  11.171  66.175  1.00  0.00    -0.206 C  
HETATM   12  N   UNL     1     -10.553  11.117  66.389  1.00  0.00    -0.260 N  
HETATM   13  C   UNL     1     -11.102  11.951  67.338  1.00  0.00    -0.279 C  
HETATM   14  H   UNL     1     -11.142  10.469  65.866  1.00  0.00     0.000 HD 
HETATM   15  N   UNL     1     -10.342  13.077  67.712  1.00  0.00    -0.222 N  
HETATM   16  O   UNL     1     -12.211  11.712  67.800  1.00  0.00    -0.560 OA 
HETATM   17  F   UNL     1      -7.043  11.890  66.778  1.00  0.00    -0.138 F  
HETATM   18  C   UNL     1      -8.956  12.999  67.634  1.00  0.00    -0.192 C  
HETATM   19  C   UNL     1      -8.370  12.033  66.927  1.00  0.00    -0.159 C  
BRANCH  15  20
HETATM   20  C   UNL     1     -10.983  14.167  68.461  1.00  0.00    -0.254 C  
HETATM   21  C   UNL     1     -10.900  16.126  67.170  1.00  0.00    -0.216 C  
HETATM   22  O   UNL     1     -11.727  15.036  67.583  1.00  0.00    -0.342 OA 
HETATM   23  C   UNL     1     -10.154  15.766  65.891  1.00  0.00    -0.381 C  
HETATM   24  C   UNL     1      -9.995  16.413  68.363  1.00  0.00    -0.238 C  
HETATM   25  O   UNL     1     -10.505  17.481  69.178  1.00  0.00    -0.360 OA 
HETATM   26  C   UNL     1      -9.999  15.116  69.183  1.00  0.00    -0.238 C  
HETATM   27  H   UNL     1      -9.941  17.660  69.921  1.00  0.00     0.000 HD 
HETATM   28  O   UNL     1     -10.424  15.332  70.537  1.00  0.00    -0.484 OA 
HETATM   29  H   UNL     1      -9.820  15.916  70.981  1.00  0.00     0.000 HD 
ENDBRANCH  15  20
ENDBRANCH   9  11
ENDBRANCH   6   7
ENDBRANCH   5   6
ENDBRANCH   4   5
ENDBRANCH   3   4
ENDBRANCH   2   3
TORSDOF 7
ENDMDL
MODEL      143
REMARK 921   NORMALIZED FREE ENERGY PREDICTED BY IDOCK:   -4.10 KCAL/MOL
REMARK 922        TOTAL FREE ENERGY PREDICTED BY IDOCK:   -6.87 KCAL/MOL
REMARK 923 INTER-LIGAND FREE ENERGY PREDICTED BY IDOCK:   -5.76 KCAL/MOL
REMARK 924 INTRA-LIGAND FREE ENERGY PREDICTED BY IDOCK:   -1.11 KCAL/MOL
REMARK 927      BINDING AFFINITY PREDICTED BY RF-SCORE:    0.00 PKD
ROOT
HETATM    1  C   UNL     1     -11.848  12.363  65.817  1.00  0.00    -0.467 C  
HETATM    2  C   UNL     1     -12.273  13.782  66.178  1.00  0.00    -0.499 C  
ENDROOT
BRANCH   2   3
HETATM    3  C   UNL     1     -11.463  14.305  67.360  1.00  0.00    -0.368 C  
BRANCH   3   4
HETATM    4  C   UNL     1     -12.214  14.229  68.695  1.00  0.00    -0.205 C  
BRANCH   4   5
HETATM    5  C   UNL     1     -11.682  13.035  69.486  1.00  0.00    -0.317 C  
BRANCH   5   6
HETATM    6  O   UNL     1     -12.502  12.669  70.603  1.00  0.00    -0.318 OA 
BRANCH   6   7
HETATM    7  C   UNL     1     -12.326  11.383  71.000  1.00  0.00    -0.343 C  
HETATM    8  O   UNL     1     -13.099  10.786  71.731  1.00  0.00    -0.458 OA 
HETATM    9  N   UNL     1     -11.152  10.910  70.472  1.00  0.00    -0.402 N  
HETATM   10  H   UNL     1     -10.476  11.600  70.148  1.00  0.00     0.000 HD 
BRANCH   9  11
HETATM   11  C   UNL     1     -10.811   9.586  70.343  1.00  0.00    -0.282 C  
HETATM   12  N   UNL     1     -10.669   8.813  71.361  1.00  0.00    -0.260 N  
HETATM   13  C   UNL     1     -10.262   7.513  71.156  1.00  0.00    -0.193 C  
HETATM   14  H   UNL     1     -10.853   9.156  72.303  1.00  0.00     0.000 HD 
HETATM   15  N   UNL     1      -9.637   7.228  69.926  1.00  0.00    -0.164 N  
HETATM   16  O   UNL     1     -10.428   6.671  72.031  1.00  0.00    -0.202 OA 
HETATM   17  F   UNL     1     -10.975   9.957  67.945  1.00  0.00    -0.287 F  
HETATM   18  C   UNL     1      -9.982   7.987  68.814  1.00  0.00    -0.189 C  
HETATM   19  C   UNL     1     -10.621   9.148  68.957  1.00  0.00    -0.199 C  
BRANCH  15  20
HETATM   20  C   UNL     1      -8.898   5.968  69.765  1.00  0.00    -0.134 C  
HETATM   21  C   UNL     1      -6.613   6.378  70.116  1.00  0.00    -0.045 C  
HETATM   22  O   UNL     1      -7.813   5.875  70.709  1.00  0.00    -0.098 OA 
HETATM   23  C   UNL     1      -6.481   7.873  70.381  1.00  0.00    -0.037 C  
HETATM   24  C   UNL     1      -6.715   6.010  68.640  1.00  0.00    -0.061 C  
HETATM   25  O   UNL     1      -6.014   4.792  68.342  1.00  0.00    -0.024 OA 
HETATM   26  C   UNL     1      -8.213   5.796  68.389  1.00  0.00    -0.108 C  
HETATM   27  H   UNL     1      -6.077   4.563  67.421  1.00  0.00     0.000 HD 
HETATM   28  O   UNL     1      -8.493   4.492  67.857  1.00  0.00    -0.101 OA 
HETATM   29  H   UNL     1      -8.072   4.386  67.012  1.00  0.00     0.000 HD 
ENDBRANCH  15  20
ENDBRANCH   9  11
ENDBRANCH   6   7
ENDBRANCH   5   6
ENDBRANCH   4   5
ENDBRANCH   3   4
ENDBRANCH   2   3
TORSDOF 7
ENDMDL
MODEL      144
REMARK 921   NORMALIZED FREE ENERGY PREDICTED BY IDOCK:   -4.05 KCAL/MOL
REMARK 922        TOTAL FREE ENERGY PREDICTED BY IDOCK:   -6.80 KCAL/MOL
REMARK 923 INTER-LIGAND FREE ENERGY PREDICTED BY IDOCK:   -6.01 KCAL/MOL
REMARK 924 INTRA-LIGAND FREE ENERGY PREDICTED BY IDOCK:   -0.79 KCAL/MOL
REMARK 927      BINDING AFFINITY PREDICTED BY RF-SCORE:    0.00 PKD
ROOT
HETATM    1  C   UNL     1     -10.321  20.004  66.579  1.00  0.00    -0.572 C  
HETATM    2  C   UNL     1      -8.918  19.574  66.990  1.00  0.00    -0.365 C  
ENDROOT
BRANCH   2   3
HETATM    3  C   UNL     1      -8.841  18.060  67.147  1.00  0.00    -0.249 C  
BRANCH   3   4
HETATM    4  C   UNL     1      -9.919  17.487  68.074  1.00  0.00    -0.310 C  
BRANCH   4   5
HETATM    5  C   UNL     1     -10.654  16.370  67.336  1.00  0.00    -0.306 C  
BRANCH   5   6
HETATM    6  O   UNL     1     -11.605  15.667  68.146  1.00  0.00    -0.353 OA 
BRANCH   6   7
HETATM    7  C   UNL     1     -11.435  14.321  68.129  1.00  0.00    -0.308 C  
HETATM    8  O   UNL     1     -12.223  13.530  68.622  1.00  0.00    -0.323 OA 
HETATM    9  N   UNL     1     -10.248  14.029  67.507  1.00  0.00    -0.243 N  
HETATM   10  H   UNL     1      -9.566  14.783  67.428  1.00  0.00     0.000 HD 
BRANCH   9  11
HETATM   11  C   UNL     1      -9.900  12.808  66.982  1.00  0.00    -0.231 C  
HETATM   12  N   UNL     1     -10.545  12.274  66.007  1.00  0.00    -0.248 N  
HETATM   13  C   UNL     1     -10.177  11.018  65.576  1.00  0.00    -0.268 C  
HETATM   14  H   UNL     1     -11.316  12.770  65.560  1.00  0.00     0.000 HD 
HETATM   15  N   UNL     1      -9.417  10.237  66.469  1.00  0.00    -0.166 N  
HETATM   16  O   UNL     1     -10.529  10.618  64.473  1.00  0.00    -0.345 OA 
HETATM   17  F   UNL     1      -8.010  12.885  68.511  1.00  0.00    -0.137 F  
HETATM   18  C   UNL     1      -8.589  10.884  67.379  1.00  0.00    -0.127 C  
HETATM   19  C   UNL     1      -8.746  12.182  67.635  1.00  0.00    -0.172 C  
BRANCH  15  20
HETATM   20  C   UNL     1      -9.265   8.796  66.220  1.00  0.00    -0.207 C  
HETATM   21  C   UNL     1     -10.123   7.614  68.058  1.00  0.00    -0.187 C  
HETATM   22  O   UNL     1     -10.394   8.057  66.726  1.00  0.00    -0.311 OA 
HETATM   23  C   UNL     1     -10.583   8.661  69.065  1.00  0.00    -0.179 C  
HETATM   24  C   UNL     1      -8.625   7.333  68.086  1.00  0.00    -0.122 C  
HETATM   25  O   UNL     1      -8.337   5.942  67.869  1.00  0.00    -0.111 OA 
HETATM   26  C   UNL     1      -8.048   8.148  66.921  1.00  0.00    -0.104 C  
HETATM   27  H   UNL     1      -7.403   5.767  67.887  1.00  0.00     0.000 HD 
HETATM   28  O   UNL     1      -7.322   7.328  65.992  1.00  0.00    -0.072 OA 
HETATM   29  H   UNL     1      -6.575   6.930  66.423  1.00  0.00     0.000 HD 
ENDBRANCH  15  20
ENDBRANCH   9  11
ENDBRANCH   6   7
ENDBRANCH   5   6
ENDBRANCH   4   5
ENDBRANCH   3   4
ENDBRANCH   2   3
TORSDOF 7
ENDMDL
MODEL      145
REMARK 921   NORMALIZED FREE ENERGY PREDICTED BY IDOCK:   -4.04 KCAL/MOL
REMARK 922        TOTAL FREE ENERGY PREDICTED BY IDOCK:   -6.80 KCAL/MOL
REMARK 923 INTER-LIGAND FREE ENERGY PREDICTED BY IDOCK:   -7.47 KCAL/MOL
REMARK 924 INTRA-LIGAND FREE ENERGY PREDICTED BY IDOCK:    0.67 KCAL/MOL
REMARK 927      BINDING AFFINITY PREDICTED BY RF-SCORE:    0.00 PKD
ROOT
HETATM    1  C   UNL     1     -11.874   8.237  72.195  1.00  0.00    -0.431 C  
HETATM    2  C   UNL     1     -13.144   9.029  72.487  1.00  0.00    -0.450 C  
ENDROOT
BRANCH   2   3
HETATM    3  C   UNL     1     -13.001  10.471  72.015  1.00  0.00    -0.490 C  
BRANCH   3   4
HETATM    4  C   UNL     1     -12.215  10.610  70.705  1.00  0.00    -0.474 C  
BRANCH   4   5
HETATM    5  C   UNL     1     -12.181  12.085  70.311  1.00  0.00    -0.266 C  
BRANCH   5   6
HETATM    6  O   UNL     1     -12.149  12.983  71.427  1.00  0.00     0.009 OA 
BRANCH   6   7
HETATM    7  C   UNL     1     -11.872  14.265  71.079  1.00  0.00    -0.237 C  
HETATM    8  O   UNL     1     -12.161  15.233  71.763  1.00  0.00    -0.311 OA 
HETATM    9  N   UNL     1     -11.258  14.271  69.853  1.00  0.00    -0.427 N  
HETATM   10  H   UNL     1     -11.362  13.437  69.276  1.00  0.00     0.000 HD 
BRANCH   9  11
HETATM   11  C   UNL     1     -10.516  15.305  69.335  1.00  0.00    -0.251 C  
HETATM   12  N   UNL     1      -9.231  15.294  69.339  1.00  0.00    -0.338 N  
HETATM   13  C   UNL     1      -8.556  16.396  68.861  1.00  0.00    -0.250 C  
HETATM   14  H   UNL     1      -8.719  14.485  69.690  1.00  0.00     0.000 HD 
HETATM   15  N   UNL     1      -9.279  17.603  68.788  1.00  0.00    -0.253 N  
HETATM   16  O   UNL     1      -7.376  16.305  68.544  1.00  0.00    -0.153 OA 
HETATM   17  F   UNL     1     -12.647  16.259  68.649  1.00  0.00     0.150 F  
HETATM   18  C   UNL     1     -10.654  17.543  68.591  1.00  0.00    -0.288 C  
HETATM   19  C   UNL     1     -11.319  16.406  68.793  1.00  0.00    -0.277 C  
BRANCH  15  20
HETATM   20  C   UNL     1      -8.557  18.869  68.600  1.00  0.00    -0.340 C  
HETATM   21  C   UNL     1      -9.314  19.890  66.627  1.00  0.00    -0.395 C  
HETATM   22  O   UNL     1      -9.420  19.885  68.052  1.00  0.00    -0.348 OA 
HETATM   23  C   UNL     1     -10.342  18.941  66.020  1.00  0.00    -0.485 C  
HETATM   24  C   UNL     1      -7.866  19.514  66.334  1.00  0.00    -0.306 C  
HETATM   25  O   UNL     1      -7.046  20.673  66.113  1.00  0.00    -0.423 OA 
HETATM   26  C   UNL     1      -7.381  18.795  67.599  1.00  0.00    -0.224 C  
HETATM   27  H   UNL     1      -6.144  20.439  65.930  1.00  0.00     0.000 HD 
HETATM   28  O   UNL     1      -6.214  19.415  68.161  1.00  0.00    -0.213 OA 
HETATM   29  H   UNL     1      -5.491  19.370  67.546  1.00  0.00     0.000 HD 
ENDBRANCH  15  20
ENDBRANCH   9  11
ENDBRANCH   6   7
ENDBRANCH   5   6
ENDBRANCH   4   5
ENDBRANCH   3   4
ENDBRANCH   2   3
TORSDOF 7
ENDMDL
MODEL      146
REMARK 921   NORMALIZED FREE ENERGY PREDICTED BY IDOCK:   -4.04 KCAL/MOL
REMARK 922        TOTAL FREE ENERGY PREDICTED BY IDOCK:   -6.80 KCAL/MOL
REMARK 923 INTER-LIGAND FREE ENERGY PREDICTED BY IDOCK:   -5.70 KCAL/MOL
REMARK 924 INTRA-LIGAND FREE ENERGY PREDICTED BY IDOCK:   -1.09 KCAL/MOL
REMARK 927      BINDING AFFINITY PREDICTED BY RF-SCORE:    0.00 PKD
ROOT
HETATM    1  C   UNL     1      -7.442   5.350  65.404  1.00  0.00    -0.077 C  
HETATM    2  C   UNL     1      -8.156   6.428  64.596  1.00  0.00    -0.100 C  
ENDROOT
BRANCH   2   3
HETATM    3  C   UNL     1      -8.555   7.597  65.490  1.00  0.00    -0.112 C  
BRANCH   3   4
HETATM    4  C   UNL     1      -8.445   8.961  64.797  1.00  0.00    -0.193 C  
BRANCH   4   5
HETATM    5  C   UNL     1      -8.780  10.052  65.811  1.00  0.00    -0.145 C  
BRANCH   5   6
HETATM    6  O   UNL     1     -10.139  10.503  65.750  1.00  0.00    -0.247 OA 
BRANCH   6   7
HETATM    7  C   UNL     1     -10.755  10.519  66.959  1.00  0.00    -0.250 C  
HETATM    8  O   UNL     1     -11.640  11.302  67.261  1.00  0.00    -0.527 OA 
HETATM    9  N   UNL     1     -10.200   9.549  67.755  1.00  0.00    -0.202 N  
HETATM   10  H   UNL     1      -9.285   9.191  67.484  1.00  0.00     0.000 HD 
BRANCH   9  11
HETATM   11  C   UNL     1     -10.773   9.020  68.886  1.00  0.00    -0.123 C  
HETATM   12  N   UNL     1     -11.176   9.757  69.859  1.00  0.00    -0.295 N  
HETATM   13  C   UNL     1     -11.681   9.149  70.987  1.00  0.00    -0.301 C  
HETATM   14  H   UNL     1     -11.123  10.773  69.797  1.00  0.00     0.000 HD 
HETATM   15  N   UNL     1     -11.350   7.794  71.183  1.00  0.00    -0.265 N  
HETATM   16  O   UNL     1     -12.363   9.790  71.778  1.00  0.00    -0.376 OA 
HETATM   17  F   UNL     1     -10.609   6.874  67.752  1.00  0.00    -0.204 F  
HETATM   18  C   UNL     1     -11.110   7.001  70.066  1.00  0.00    -0.278 C  
HETATM   19  C   UNL     1     -10.871   7.557  68.879  1.00  0.00    -0.037 C  
BRANCH  15  20
HETATM   20  C   UNL     1     -11.574   7.177  72.498  1.00  0.00    -0.226 C  
HETATM   21  C   UNL     1      -9.503   6.896  73.567  1.00  0.00    -0.178 C  
HETATM   22  O   UNL     1     -10.672   7.714  73.486  1.00  0.00    -0.348 OA 
HETATM   23  C   UNL     1      -8.445   7.394  72.589  1.00  0.00    -0.138 C  
HETATM   24  C   UNL     1      -9.990   5.478  73.293  1.00  0.00    -0.172 C  
HETATM   25  O   UNL     1     -10.234   4.752  74.510  1.00  0.00    -0.218 OA 
HETATM   26  C   UNL     1     -11.317   5.652  72.544  1.00  0.00    -0.294 C  
HETATM   27  H   UNL     1     -10.537   3.867  74.339  1.00  0.00     0.000 HD 
HETATM   28  O   UNL     1     -12.405   4.988  73.205  1.00  0.00    -0.397 OA 
HETATM   29  H   UNL     1     -12.247   4.051  73.234  1.00  0.00     0.000 HD 
ENDBRANCH  15  20
ENDBRANCH   9  11
ENDBRANCH   6   7
ENDBRANCH   5   6
ENDBRANCH   4   5
ENDBRANCH   3   4
ENDBRANCH   2   3
TORSDOF 7
ENDMDL
MODEL      147
REMARK 921   NORMALIZED FREE ENERGY PREDICTED BY IDOCK:   -4.04 KCAL/MOL
REMARK 922        TOTAL FREE ENERGY PREDICTED BY IDOCK:   -6.79 KCAL/MOL
REMARK 923 INTER-LIGAND FREE ENERGY PREDICTED BY IDOCK:   -5.93 KCAL/MOL
REMARK 924 INTRA-LIGAND FREE ENERGY PREDICTED BY IDOCK:   -0.87 KCAL/MOL
REMARK 927      BINDING AFFINITY PREDICTED BY RF-SCORE:    0.00 PKD
ROOT
HETATM    1  C   UNL     1     -10.410  17.473  69.020  1.00  0.00    -0.303 C  
HETATM    2  C   UNL     1     -10.507  18.754  68.200  1.00  0.00    -0.372 C  
ENDROOT
BRANCH   2   3
HETATM    3  C   UNL     1     -10.065  18.510  66.761  1.00  0.00    -0.406 C  
BRANCH   3   4
HETATM    4  C   UNL     1      -8.709  17.802  66.651  1.00  0.00    -0.281 C  
BRANCH   4   5
HETATM    5  C   UNL     1      -8.943  16.375  66.157  1.00  0.00    -0.332 C  
BRANCH   5   6
HETATM    6  O   UNL     1      -7.876  15.471  66.472  1.00  0.00    -0.135 OA 
BRANCH   6   7
HETATM    7  C   UNL     1      -8.244  14.483  67.327  1.00  0.00    -0.208 C  
HETATM    8  O   UNL     1      -8.381  14.640  68.529  1.00  0.00    -0.149 OA 
HETATM    9  N   UNL     1      -8.397  13.317  66.621  1.00  0.00    -0.405 N  
HETATM   10  H   UNL     1      -7.957  13.268  65.702  1.00  0.00     0.000 HD 
BRANCH   9  11
HETATM   11  C   UNL     1      -9.091  12.211  67.046  1.00  0.00    -0.198 C  
HETATM   12  N   UNL     1      -9.492  12.079  68.261  1.00  0.00    -0.199 N  
HETATM   13  C   UNL     1     -10.127  10.914  68.627  1.00  0.00    -0.191 C  
HETATM   14  H   UNL     1      -9.342  12.824  68.941  1.00  0.00     0.000 HD 
HETATM   15  N   UNL     1      -9.935   9.794  67.793  1.00  0.00    -0.160 N  
HETATM   16  O   UNL     1     -10.801  10.875  69.650  1.00  0.00    -0.245 OA 
HETATM   17  F   UNL     1      -9.046  11.505  64.719  1.00  0.00    -0.162 F  
HETATM   18  C   UNL     1      -9.692  10.008  66.441  1.00  0.00    -0.210 C  
HETATM   19  C   UNL     1      -9.322  11.210  66.000  1.00  0.00    -0.206 C  
BRANCH  15  20
HETATM   20  C   UNL     1     -10.304   8.457  68.279  1.00  0.00    -0.199 C  
HETATM   21  C   UNL     1      -8.346   7.271  68.799  1.00  0.00    -0.129 C  
HETATM   22  O   UNL     1      -9.430   8.029  69.342  1.00  0.00    -0.159 OA 
HETATM   23  C   UNL     1      -7.182   8.192  68.453  1.00  0.00    -0.093 C  
HETATM   24  C   UNL     1      -8.937   6.533  67.604  1.00  0.00    -0.114 C  
HETATM   25  O   UNL     1      -9.329   5.192  67.943  1.00  0.00    -0.113 OA 
HETATM   26  C   UNL     1     -10.187   7.335  67.222  1.00  0.00    -0.253 C  
HETATM   27  H   UNL     1      -9.697   4.731  67.198  1.00  0.00     0.000 HD 
HETATM   28  O   UNL     1     -11.374   6.526  67.228  1.00  0.00    -0.704 OA 
HETATM   29  H   UNL     1     -11.302   5.836  66.578  1.00  0.00     0.000 HD 
ENDBRANCH  15  20
ENDBRANCH   9  11
ENDBRANCH   6   7
ENDBRANCH   5   6
ENDBRANCH   4   5
ENDBRANCH   3   4
ENDBRANCH   2   3
TORSDOF 7
ENDMDL
MODEL      148
REMARK 921   NORMALIZED FREE ENERGY PREDICTED BY IDOCK:   -4.03 KCAL/MOL
REMARK 922        TOTAL FREE ENERGY PREDICTED BY IDOCK:   -6.79 KCAL/MOL
REMARK 923 INTER-LIGAND FREE ENERGY PREDICTED BY IDOCK:   -5.83 KCAL/MOL
REMARK 924 INTRA-LIGAND FREE ENERGY PREDICTED BY IDOCK:   -0.96 KCAL/MOL
REMARK 927      BINDING AFFINITY PREDICTED BY RF-SCORE:    0.00 PKD
ROOT
HETATM    1  C   UNL     1      -7.662   7.664  69.204  1.00  0.00    -0.109 C  
HETATM    2  C   UNL     1      -8.079   6.238  69.543  1.00  0.00    -0.117 C  
ENDROOT
BRANCH   2   3
HETATM    3  C   UNL     1      -8.725   5.563  68.338  1.00  0.00    -0.105 C  
BRANCH   3   4
HETATM    4  C   UNL     1     -10.240   5.375  68.483  1.00  0.00    -0.237 C  
BRANCH   4   5
HETATM    5  C   UNL     1     -10.931   6.056  67.304  1.00  0.00    -0.261 C  
BRANCH   5   6
HETATM    6  O   UNL     1     -10.075   6.931  66.557  1.00  0.00    -0.163 OA 
BRANCH   6   7
HETATM    7  C   UNL     1     -10.226   8.239  66.884  1.00  0.00    -0.318 C  
HETATM    8  O   UNL     1     -10.785   8.627  67.897  1.00  0.00    -0.194 OA 
HETATM    9  N   UNL     1      -9.681   9.013  65.891  1.00  0.00    -0.395 N  
HETATM   10  H   UNL     1      -9.533   8.570  64.985  1.00  0.00     0.000 HD 
BRANCH   9  11
HETATM   11  C   UNL     1      -9.318  10.332  66.014  1.00  0.00    -0.180 C  
HETATM   12  N   UNL     1      -8.378  10.712  66.804  1.00  0.00    -0.129 N  
HETATM   13  C   UNL     1      -8.114  12.059  66.921  1.00  0.00    -0.127 C  
HETATM   14  H   UNL     1      -7.837  10.030  67.335  1.00  0.00     0.000 HD 
HETATM   15  N   UNL     1      -9.129  12.945  66.509  1.00  0.00    -0.181 N  
HETATM   16  O   UNL     1      -7.047  12.439  67.388  1.00  0.00    -0.135 OA 
HETATM   17  F   UNL     1     -10.925  10.758  64.239  1.00  0.00    -0.399 F  
HETATM   18  C   UNL     1     -10.001  12.536  65.507  1.00  0.00    -0.234 C  
HETATM   19  C   UNL     1     -10.098  11.248  65.176  1.00  0.00    -0.275 C  
BRANCH  15  20
HETATM   20  C   UNL     1      -9.055  14.361  66.896  1.00  0.00    -0.251 C  
HETATM   21  C   UNL     1     -10.593  14.756  68.625  1.00  0.00    -0.255 C  
HETATM   22  O   UNL     1      -9.217  14.521  68.320  1.00  0.00    -0.188 OA 
HETATM   23  C   UNL     1     -11.310  13.434  68.872  1.00  0.00    -0.331 C  
HETATM   24  C   UNL     1     -11.133  15.550  67.441  1.00  0.00    -0.285 C  
HETATM   25  O   UNL     1     -11.130  16.964  67.699  1.00  0.00    -0.222 OA 
HETATM   26  C   UNL     1     -10.164  15.252  66.290  1.00  0.00    -0.287 C  
HETATM   27  H   UNL     1     -11.467  17.459  66.961  1.00  0.00     0.000 HD 
HETATM   28  O   UNL     1      -9.591  16.448  65.740  1.00  0.00    -0.452 OA 
HETATM   29  H   UNL     1     -10.273  16.995  65.367  1.00  0.00     0.000 HD 
ENDBRANCH  15  20
ENDBRANCH   9  11
ENDBRANCH   6   7
ENDBRANCH   5   6
ENDBRANCH   4   5
ENDBRANCH   3   4
ENDBRANCH   2   3
TORSDOF 7
ENDMDL
MODEL      149
REMARK 921   NORMALIZED FREE ENERGY PREDICTED BY IDOCK:   -4.02 KCAL/MOL
REMARK 922        TOTAL FREE ENERGY PREDICTED BY IDOCK:   -6.77 KCAL/MOL
REMARK 923 INTER-LIGAND FREE ENERGY PREDICTED BY IDOCK:   -5.73 KCAL/MOL
REMARK 924 INTRA-LIGAND FREE ENERGY PREDICTED BY IDOCK:   -1.04 KCAL/MOL
REMARK 927      BINDING AFFINITY PREDICTED BY RF-SCORE:    0.00 PKD
ROOT
HETATM    1  C   UNL     1      -6.111  17.555  69.529  1.00  0.00    -0.252 C  
HETATM    2  C   UNL     1      -6.382  18.459  68.331  1.00  0.00    -0.202 C  
ENDROOT
BRANCH   2   3
HETATM    3  C   UNL     1      -7.874  18.736  68.189  1.00  0.00    -0.314 C  
BRANCH   3   4
HETATM    4  C   UNL     1      -8.436  18.363  66.812  1.00  0.00    -0.274 C  
BRANCH   4   5
HETATM    5  C   UNL     1      -9.680  17.499  67.009  1.00  0.00    -0.284 C  
BRANCH   5   6
HETATM    6  O   UNL     1     -10.243  17.005  65.787  1.00  0.00    -0.506 OA 
BRANCH   6   7
HETATM    7  C   UNL     1     -10.320  15.652  65.739  1.00  0.00    -0.365 C  
HETATM    8  O   UNL     1     -10.957  15.036  64.900  1.00  0.00    -0.388 OA 
HETATM    9  N   UNL     1      -9.602  15.126  66.783  1.00  0.00    -0.234 N  
HETATM   10  H   UNL     1      -9.388  15.749  67.561  1.00  0.00     0.000 HD 
BRANCH   9  11
HETATM   11  C   UNL     1      -9.146  13.834  66.869  1.00  0.00    -0.242 C  
HETATM   12  N   UNL     1      -9.469  12.935  66.008  1.00  0.00    -0.438 N  
HETATM   13  C   UNL     1      -9.024  11.645  66.197  1.00  0.00    -0.178 C  
HETATM   14  H   UNL     1     -10.045  13.172  65.201  1.00  0.00     0.000 HD 
HETATM   15  N   UNL     1      -8.608  11.299  67.497  1.00  0.00    -0.132 N  
HETATM   16  O   UNL     1      -9.026  10.851  65.263  1.00  0.00    -0.194 OA 
HETATM   17  F   UNL     1      -7.828  14.609  68.761  1.00  0.00    -0.120 F  
HETATM   18  C   UNL     1      -8.087  12.295  68.315  1.00  0.00    -0.166 C  
HETATM   19  C   UNL     1      -8.275  13.581  68.021  1.00  0.00    -0.163 C  
BRANCH  15  20
HETATM   20  C   UNL     1      -8.431   9.882  67.848  1.00  0.00    -0.121 C  
HETATM   21  C   UNL     1     -10.344   9.138  68.986  1.00  0.00    -0.215 C  
HETATM   22  O   UNL     1      -9.671   9.156  67.726  1.00  0.00    -0.146 OA 
HETATM   23  C   UNL     1     -11.268  10.344  69.107  1.00  0.00    -0.301 C  
HETATM   24  C   UNL     1      -9.234   9.093  70.030  1.00  0.00    -0.192 C  
HETATM   25  O   UNL     1      -8.970   7.751  70.473  1.00  0.00    -0.147 OA 
HETATM   26  C   UNL     1      -7.992   9.632  69.309  1.00  0.00    -0.104 C  
HETATM   27  H   UNL     1      -8.278   7.724  71.124  1.00  0.00     0.000 HD 
HETATM   28  O   UNL     1      -6.898   8.702  69.343  1.00  0.00    -0.048 OA 
HETATM   29  H   UNL     1      -6.628   8.548  70.241  1.00  0.00     0.000 HD 
ENDBRANCH  15  20
ENDBRANCH   9  11
ENDBRANCH   6   7
ENDBRANCH   5   6
ENDBRANCH   4   5
ENDBRANCH   3   4
ENDBRANCH   2   3
TORSDOF 7
ENDMDL
MODEL      150
REMARK 921   NORMALIZED FREE ENERGY PREDICTED BY IDOCK:   -4.02 KCAL/MOL
REMARK 922        TOTAL FREE ENERGY PREDICTED BY IDOCK:   -6.76 KCAL/MOL
REMARK 923 INTER-LIGAND FREE ENERGY PREDICTED BY IDOCK:   -5.96 KCAL/MOL
REMARK 924 INTRA-LIGAND FREE ENERGY PREDICTED BY IDOCK:   -0.80 KCAL/MOL
REMARK 927      BINDING AFFINITY PREDICTED BY RF-SCORE:    0.00 PKD
ROOT
HETATM    1  C   UNL     1     -10.429  17.552  68.606  1.00  0.00    -0.338 C  
HETATM    2  C   UNL     1     -10.879  16.113  68.383  1.00  0.00    -0.318 C  
ENDROOT
BRANCH   2   3
HETATM    3  C   UNL     1     -10.684  15.705  66.927  1.00  0.00    -0.307 C  
BRANCH   3   4
HETATM    4  C   UNL     1     -11.525  14.490  66.516  1.00  0.00    -0.366 C  
BRANCH   4   5
HETATM    5  C   UNL     1     -10.916  13.239  67.148  1.00  0.00    -0.272 C  
BRANCH   5   6
HETATM    6  O   UNL     1     -11.782  12.098  67.124  1.00  0.00    -0.465 OA 
BRANCH   6   7
HETATM    7  C   UNL     1     -11.125  10.928  66.923  1.00  0.00    -0.167 C  
HETATM    8  O   UNL     1     -10.432  10.696  65.946  1.00  0.00    -0.236 OA 
HETATM    9  N   UNL     1     -11.396  10.079  67.966  1.00  0.00    -0.521 N  
HETATM   10  H   UNL     1     -12.216  10.288  68.535  1.00  0.00     0.000 HD 
BRANCH   9  11
HETATM   11  C   UNL     1     -10.657   8.973  68.309  1.00  0.00    -0.163 C  
HETATM   12  N   UNL     1     -10.864   7.820  67.779  1.00  0.00    -0.490 N  
HETATM   13  C   UNL     1     -10.126   6.745  68.220  1.00  0.00    -0.161 C  
HETATM   14  H   UNL     1     -11.562   7.704  67.045  1.00  0.00     0.000 HD 
HETATM   15  N   UNL     1      -9.505   6.872  69.478  1.00  0.00    -0.147 N  
HETATM   16  O   UNL     1     -10.052   5.728  67.540  1.00  0.00    -0.142 OA 
HETATM   17  F   UNL     1      -9.348  10.491  69.688  1.00  0.00    -0.206 F  
HETATM   18  C   UNL     1      -9.133   8.140  69.910  1.00  0.00    -0.151 C  
HETATM   19  C   UNL     1      -9.632   9.229  69.326  1.00  0.00    -0.161 C  
BRANCH  15  20
HETATM   20  C   UNL     1      -8.981   5.675  70.151  1.00  0.00    -0.138 C  
HETATM   21  C   UNL     1     -10.396   5.131  71.943  1.00  0.00    -0.212 C  
HETATM   22  O   UNL     1     -10.050   4.815  70.593  1.00  0.00    -0.227 OA 
HETATM   23  C   UNL     1     -11.482   6.200  71.972  1.00  0.00    -0.366 C  
HETATM   24  C   UNL     1      -9.087   5.552  72.601  1.00  0.00    -0.138 C  
HETATM   25  O   UNL     1      -8.473   4.465  73.314  1.00  0.00    -0.097 OA 
HETATM   26  C   UNL     1      -8.174   5.963  71.439  1.00  0.00    -0.123 C  
HETATM   27  H   UNL     1      -7.657   4.728  73.724  1.00  0.00     0.000 HD 
HETATM   28  O   UNL     1      -6.944   5.223  71.427  1.00  0.00    -0.050 OA 
HETATM   29  H   UNL     1      -6.448   5.400  72.218  1.00  0.00     0.000 HD 
ENDBRANCH  15  20
ENDBRANCH   9  11
ENDBRANCH   6   7
ENDBRANCH   5   6
ENDBRANCH   4   5
ENDBRANCH   3   4
ENDBRANCH   2   3
TORSDOF 7
ENDMDL
MODEL      151
REMARK 921   NORMALIZED FREE ENERGY PREDICTED BY IDOCK:   -3.99 KCAL/MOL
REMARK 922        TOTAL FREE ENERGY PREDICTED BY IDOCK:   -6.72 KCAL/MOL
REMARK 923 INTER-LIGAND FREE ENERGY PREDICTED BY IDOCK:   -5.60 KCAL/MOL
REMARK 924 INTRA-LIGAND FREE ENERGY PREDICTED BY IDOCK:   -1.13 KCAL/MOL
REMARK 927      BINDING AFFINITY PREDICTED BY RF-SCORE:    0.00 PKD
ROOT
HETATM    1  C   UNL     1     -12.018  12.057  70.086  1.00  0.00    -0.401 C  
HETATM    2  C   UNL     1     -11.079  12.467  68.957  1.00  0.00    -0.288 C  
ENDROOT
BRANCH   2   3
HETATM    3  C   UNL     1     -11.559  13.753  68.294  1.00  0.00    -0.373 C  
BRANCH   3   4
HETATM    4  C   UNL     1     -12.089  13.545  66.870  1.00  0.00    -0.417 C  
BRANCH   4   5
HETATM    5  C   UNL     1     -11.602  12.189  66.362  1.00  0.00    -0.364 C  
BRANCH   5   6
HETATM    6  O   UNL     1     -10.416  12.262  65.560  1.00  0.00    -0.250 OA 
BRANCH   6   7
HETATM    7  C   UNL     1      -9.763  11.077  65.458  1.00  0.00    -0.229 C  
HETATM    8  O   UNL     1      -8.840  10.874  64.686  1.00  0.00    -0.171 OA 
HETATM    9  N   UNL     1     -10.328  10.179  66.328  1.00  0.00    -0.207 N  
HETATM   10  H   UNL     1     -11.264  10.391  66.672  1.00  0.00     0.000 HD 
BRANCH   9  11
HETATM   11  C   UNL     1      -9.740   9.021  66.774  1.00  0.00    -0.216 C  
HETATM   12  N   UNL     1      -9.926   7.890  66.190  1.00  0.00    -0.457 N  
HETATM   13  C   UNL     1      -9.354   6.761  66.734  1.00  0.00    -0.160 C  
HETATM   14  H   UNL     1     -10.485   7.830  65.340  1.00  0.00     0.000 HD 
HETATM   15  N   UNL     1      -8.964   6.833  68.086  1.00  0.00    -0.120 N  
HETATM   16  O   UNL     1      -9.227   5.748  66.056  1.00  0.00    -0.161 OA 
HETATM   17  F   UNL     1      -8.602  10.430  68.398  1.00  0.00    -0.113 F  
HETATM   18  C   UNL     1      -8.591   8.068  68.605  1.00  0.00    -0.128 C  
HETATM   19  C   UNL     1      -8.901   9.194  67.964  1.00  0.00    -0.129 C  
BRANCH  15  20
HETATM   20  C   UNL     1      -8.652   5.596  68.816  1.00  0.00    -0.104 C  
HETATM   21  C   UNL     1     -10.408   5.131  70.303  1.00  0.00    -0.261 C  
HETATM   22  O   UNL     1      -9.839   4.806  69.033  1.00  0.00    -0.169 OA 
HETATM   23  C   UNL     1     -11.409   6.271  70.155  1.00  0.00    -0.476 C  
HETATM   24  C   UNL     1      -9.219   5.454  71.201  1.00  0.00    -0.145 C  
HETATM   25  O   UNL     1      -8.820   4.321  71.989  1.00  0.00    -0.109 OA 
HETATM   26  C   UNL     1      -8.082   5.815  70.237  1.00  0.00    -0.105 C  
HETATM   27  H   UNL     1      -8.079   4.523  72.549  1.00  0.00     0.000 HD 
HETATM   28  O   UNL     1      -6.921   4.993  70.435  1.00  0.00    -0.046 OA 
HETATM   29  H   UNL     1      -6.571   5.127  71.308  1.00  0.00     0.000 HD 
ENDBRANCH  15  20
ENDBRANCH   9  11
ENDBRANCH   6   7
ENDBRANCH   5   6
ENDBRANCH   4   5
ENDBRANCH   3   4
ENDBRANCH   2   3
TORSDOF 7
ENDMDL
MODEL      152
REMARK 921   NORMALIZED FREE ENERGY PREDICTED BY IDOCK:   -3.99 KCAL/MOL
REMARK 922        TOTAL FREE ENERGY PREDICTED BY IDOCK:   -6.72 KCAL/MOL
REMARK 923 INTER-LIGAND FREE ENERGY PREDICTED BY IDOCK:   -5.73 KCAL/MOL
REMARK 924 INTRA-LIGAND FREE ENERGY PREDICTED BY IDOCK:   -0.99 KCAL/MOL
REMARK 927      BINDING AFFINITY PREDICTED BY RF-SCORE:    0.00 PKD
ROOT
HETATM    1  C   UNL     1     -12.056  15.569  72.479  1.00  0.00    -0.536 C  
HETATM    2  C   UNL     1     -11.993  14.860  71.131  1.00  0.00    -0.389 C  
ENDROOT
BRANCH   2   3
HETATM    3  C   UNL     1     -12.363  15.814  70.000  1.00  0.00    -0.248 C  
BRANCH   3   4
HETATM    4  C   UNL     1     -11.148  16.360  69.240  1.00  0.00    -0.297 C  
BRANCH   4   5
HETATM    5  C   UNL     1     -11.020  15.604  67.919  1.00  0.00    -0.319 C  
BRANCH   5   6
HETATM    6  O   UNL     1      -9.778  14.904  67.771  1.00  0.00    -0.210 OA 
BRANCH   6   7
HETATM    7  C   UNL     1      -9.933  13.577  67.535  1.00  0.00    -0.230 C  
HETATM    8  O   UNL     1      -9.969  13.085  66.419  1.00  0.00    -0.263 OA 
HETATM    9  N   UNL     1     -10.065  12.923  68.733  1.00  0.00    -0.421 N  
HETATM   10  H   UNL     1     -10.321  13.485  69.545  1.00  0.00     0.000 HD 
BRANCH   9  11
HETATM   11  C   UNL     1      -9.880  11.577  68.934  1.00  0.00    -0.075 C  
HETATM   12  N   UNL     1      -8.722  11.072  69.174  1.00  0.00    -0.368 N  
HETATM   13  C   UNL     1      -8.607   9.706  69.300  1.00  0.00    -0.153 C  
HETATM   14  H   UNL     1      -7.904  11.673  69.268  1.00  0.00     0.000 HD 
HETATM   15  N   UNL     1      -9.649   8.926  68.760  1.00  0.00    -0.155 N  
HETATM   16  O   UNL     1      -7.621   9.219  69.840  1.00  0.00    -0.073 OA 
HETATM   17  F   UNL     1     -12.302  11.401  68.783  1.00  0.00    -0.372 F  
HETATM   18  C   UNL     1     -10.926   9.471  68.705  1.00  0.00    -0.072 C  
HETATM   19  C   UNL     1     -11.110  10.784  68.843  1.00  0.00    -0.253 C  
BRANCH  15  20
HETATM   20  C   UNL     1      -9.448   7.483  68.569  1.00  0.00    -0.146 C  
HETATM   21  C   UNL     1      -9.152   7.054  66.280  1.00  0.00    -0.147 C  
HETATM   22  O   UNL     1      -8.482   7.224  67.531  1.00  0.00    -0.119 OA 
HETATM   23  C   UNL     1      -9.290   8.397  65.571  1.00  0.00     0.026 C  
HETATM   24  C   UNL     1     -10.480   6.391  66.626  1.00  0.00    -0.170 C  
HETATM   25  O   UNL     1     -10.424   4.964  66.464  1.00  0.00    -0.276 OA 
HETATM   26  C   UNL     1     -10.709   6.715  68.108  1.00  0.00    -0.258 C  
HETATM   27  H   UNL     1     -11.252   4.550  66.680  1.00  0.00     0.000 HD 
HETATM   28  O   UNL     1     -10.883   5.530  68.902  1.00  0.00    -0.211 OA 
HETATM   29  H   UNL     1     -11.657   5.058  68.619  1.00  0.00     0.000 HD 
ENDBRANCH  15  20
ENDBRANCH   9  11
ENDBRANCH   6   7
ENDBRANCH   5   6
ENDBRANCH   4   5
ENDBRANCH   3   4
ENDBRANCH   2   3
TORSDOF 7
ENDMDL
MODEL      153
REMARK 921   NORMALIZED FREE ENERGY PREDICTED BY IDOCK:   -3.99 KCAL/MOL
REMARK 922        TOTAL FREE ENERGY PREDICTED BY IDOCK:   -6.72 KCAL/MOL
REMARK 923 INTER-LIGAND FREE ENERGY PREDICTED BY IDOCK:   -5.95 KCAL/MOL
REMARK 924 INTRA-LIGAND FREE ENERGY PREDICTED BY IDOCK:   -0.77 KCAL/MOL
REMARK 927      BINDING AFFINITY PREDICTED BY RF-SCORE:    0.00 PKD
ROOT
HETATM    1  C   UNL     1      -6.641   8.318  70.288  1.00  0.00    -0.036 C  
HETATM    2  C   UNL     1      -7.589   7.129  70.394  1.00  0.00    -0.089 C  
ENDROOT
BRANCH   2   3
HETATM    3  C   UNL     1      -8.873   7.391  69.614  1.00  0.00    -0.141 C  
BRANCH   3   4
HETATM    4  C   UNL     1      -9.235   8.877  69.515  1.00  0.00    -0.150 C  
BRANCH   4   5
HETATM    5  C   UNL     1      -9.287   9.270  68.040  1.00  0.00    -0.133 C  
BRANCH   5   6
HETATM    6  O   UNL     1     -10.570   9.746  67.612  1.00  0.00    -0.242 OA 
BRANCH   6   7
HETATM    7  C   UNL     1     -10.632  11.096  67.499  1.00  0.00    -0.221 C  
HETATM    8  O   UNL     1     -11.513  11.780  67.994  1.00  0.00    -0.274 OA 
HETATM    9  N   UNL     1      -9.581  11.529  66.732  1.00  0.00    -0.184 N  
HETATM   10  H   UNL     1      -9.117  10.837  66.144  1.00  0.00     0.000 HD 
BRANCH   9  11
HETATM   11  C   UNL     1      -9.098  12.814  66.689  1.00  0.00    -0.187 C  
HETATM   12  N   UNL     1      -8.028  13.165  67.309  1.00  0.00    -0.296 N  
HETATM   13  C   UNL     1      -7.642  14.486  67.271  1.00  0.00    -0.121 C  
HETATM   14  H   UNL     1      -7.474  12.478  67.819  1.00  0.00     0.000 HD 
HETATM   15  N   UNL     1      -8.630  15.429  66.924  1.00  0.00    -0.239 N  
HETATM   16  O   UNL     1      -6.492  14.800  67.555  1.00  0.00    -0.248 OA 
HETATM   17  F   UNL     1     -10.902  13.253  65.116  1.00  0.00    -0.283 F  
HETATM   18  C   UNL     1      -9.666  15.027  66.089  1.00  0.00    -0.306 C  
HETATM   19  C   UNL     1      -9.912  13.734  65.887  1.00  0.00    -0.293 C  
BRANCH  15  20
HETATM   20  C   UNL     1      -8.388  16.857  67.173  1.00  0.00    -0.193 C  
HETATM   21  C   UNL     1      -9.858  17.596  68.847  1.00  0.00    -0.293 C  
HETATM   22  O   UNL     1      -8.521  17.172  68.573  1.00  0.00    -0.246 OA 
HETATM   23  C   UNL     1     -10.724  16.397  69.217  1.00  0.00    -0.325 C  
HETATM   24  C   UNL     1     -10.308  18.329  67.589  1.00  0.00    -0.396 C  
HETATM   25  O   UNL     1     -10.137  19.751  67.708  1.00  0.00    -0.369 OA 
HETATM   26  C   UNL     1      -9.388  17.809  66.477  1.00  0.00    -0.279 C  
HETATM   27  H   UNL     1     -10.418  20.209  66.924  1.00  0.00     0.000 HD 
HETATM   28  O   UNL     1      -8.682  18.871  65.816  1.00  0.00    -0.407 OA 
HETATM   29  H   UNL     1      -9.297  19.456  65.389  1.00  0.00     0.000 HD 
ENDBRANCH  15  20
ENDBRANCH   9  11
ENDBRANCH   6   7
ENDBRANCH   5   6
ENDBRANCH   4   5
ENDBRANCH   3   4
ENDBRANCH   2   3
TORSDOF 7
ENDMDL
MODEL      154
REMARK 921   NORMALIZED FREE ENERGY PREDICTED BY IDOCK:   -3.99 KCAL/MOL
REMARK 922        TOTAL FREE ENERGY PREDICTED BY IDOCK:   -6.72 KCAL/MOL
REMARK 923 INTER-LIGAND FREE ENERGY PREDICTED BY IDOCK:   -6.84 KCAL/MOL
REMARK 924 INTRA-LIGAND FREE ENERGY PREDICTED BY IDOCK:    0.12 KCAL/MOL
REMARK 927      BINDING AFFINITY PREDICTED BY RF-SCORE:    0.00 PKD
ROOT
HETATM    1  C   UNL     1      -7.782   8.281  70.857  1.00  0.00    -0.082 C  
HETATM    2  C   UNL     1      -8.843   9.249  71.367  1.00  0.00     0.030 C  
ENDROOT
BRANCH   2   3
HETATM    3  C   UNL     1     -10.051   8.492  71.906  1.00  0.00    -0.367 C  
BRANCH   3   4
HETATM    4  C   UNL     1     -10.864   7.783  70.816  1.00  0.00    -0.245 C  
BRANCH   4   5
HETATM    5  C   UNL     1     -11.092   8.760  69.664  1.00  0.00    -0.028 C  
BRANCH   5   6
HETATM    6  O   UNL     1     -10.560   8.313  68.411  1.00  0.00    -0.186 OA 
BRANCH   6   7
HETATM    7  C   UNL     1     -10.233   9.329  67.572  1.00  0.00    -0.242 C  
HETATM    8  O   UNL     1     -10.152   9.211  66.361  1.00  0.00    -0.283 OA 
HETATM    9  N   UNL     1      -9.991  10.458  68.313  1.00  0.00    -0.148 N  
HETATM   10  H   UNL     1      -9.796  10.331  69.306  1.00  0.00     0.000 HD 
BRANCH   9  11
HETATM   11  C   UNL     1      -9.988  11.744  67.831  1.00  0.00    -0.181 C  
HETATM   12  N   UNL     1     -11.056  12.316  67.401  1.00  0.00    -0.266 N  
HETATM   13  C   UNL     1     -10.963  13.585  66.874  1.00  0.00    -0.288 C  
HETATM   14  H   UNL     1     -11.956  11.839  67.449  1.00  0.00     0.000 HD 
HETATM   15  N   UNL     1      -9.685  14.009  66.458  1.00  0.00    -0.286 N  
HETATM   16  O   UNL     1     -11.965  14.280  66.761  1.00  0.00    -0.414 OA 
HETATM   17  F   UNL     1      -7.647  11.800  68.489  1.00  0.00    -0.102 F  
HETATM   18  C   UNL     1      -8.569  13.486  67.101  1.00  0.00    -0.195 C  
HETATM   19  C   UNL     1      -8.671  12.388  67.849  1.00  0.00    -0.175 C  
BRANCH  15  20
HETATM   20  C   UNL     1      -9.560  15.199  65.604  1.00  0.00    -0.260 C  
HETATM   21  C   UNL     1      -8.996  17.041  66.946  1.00  0.00    -0.229 C  
HETATM   22  O   UNL     1      -8.486  16.050  66.050  1.00  0.00    -0.302 OA 
HETATM   23  C   UNL     1      -8.947  16.527  68.380  1.00  0.00    -0.219 C  
HETATM   24  C   UNL     1     -10.399  17.350  66.439  1.00  0.00    -0.317 C  
HETATM   25  O   UNL     1     -10.420  18.513  65.595  1.00  0.00    -0.615 OA 
HETATM   26  C   UNL     1     -10.798  16.125  65.606  1.00  0.00    -0.238 C  
HETATM   27  H   UNL     1     -11.295  18.707  65.279  1.00  0.00     0.000 HD 
HETATM   28  O   UNL     1     -11.155  16.476  64.260  1.00  0.00    -1.199 OA 
HETATM   29  H   UNL     1     -11.916  17.045  64.262  1.00  0.00     0.000 HD 
ENDBRANCH  15  20
ENDBRANCH   9  11
ENDBRANCH   6   7
ENDBRANCH   5   6
ENDBRANCH   4   5
ENDBRANCH   3   4
ENDBRANCH   2   3
TORSDOF 7
ENDMDL
MODEL      155
REMARK 921   NORMALIZED FREE ENERGY PREDICTED BY IDOCK:   -3.96 KCAL/MOL
REMARK 922        TOTAL FREE ENERGY PREDICTED BY IDOCK:   -6.68 KCAL/MOL
REMARK 923 INTER-LIGAND FREE ENERGY PREDICTED BY IDOCK:   -5.72 KCAL/MOL
REMARK 924 INTRA-LIGAND FREE ENERGY PREDICTED BY IDOCK:   -0.96 KCAL/MOL
REMARK 927      BINDING AFFINITY PREDICTED BY RF-SCORE:    0.00 PKD
ROOT
HETATM    1  C   UNL     1     -11.816  11.724  63.904  1.00  0.00    -0.449 C  
HETATM    2  C   UNL     1     -11.729  13.236  63.733  1.00  0.00    -0.475 C  
ENDROOT
BRANCH   2   3
HETATM    3  C   UNL     1     -10.540  13.800  64.504  1.00  0.00    -0.405 C  
BRANCH   3   4
HETATM    4  C   UNL     1     -10.941  14.779  65.614  1.00  0.00    -0.345 C  
BRANCH   4   5
HETATM    5  C   UNL     1     -10.881  14.049  66.954  1.00  0.00    -0.290 C  
BRANCH   5   6
HETATM    6  O   UNL     1     -11.942  13.104  67.146  1.00  0.00    -0.371 OA 
BRANCH   6   7
HETATM    7  C   UNL     1     -11.511  11.893  67.580  1.00  0.00    -0.317 C  
HETATM    8  O   UNL     1     -12.241  11.048  68.071  1.00  0.00    -0.520 OA 
HETATM    9  N   UNL     1     -10.154  11.811  67.398  1.00  0.00    -0.194 N  
HETATM   10  H   UNL     1      -9.647  12.687  67.272  1.00  0.00     0.000 HD 
BRANCH   9  11
HETATM   11  C   UNL     1      -9.420  10.650  67.372  1.00  0.00    -0.154 C  
HETATM   12  N   UNL     1      -8.955  10.158  66.279  1.00  0.00    -0.146 N  
HETATM   13  C   UNL     1      -8.283   8.957  66.324  1.00  0.00    -0.111 C  
HETATM   14  H   UNL     1      -9.082  10.648  65.394  1.00  0.00     0.000 HD 
HETATM   15  N   UNL     1      -8.499   8.149  67.458  1.00  0.00    -0.126 N  
HETATM   16  O   UNL     1      -7.557   8.623  65.396  1.00  0.00    -0.084 OA 
HETATM   17  F   UNL     1      -9.572  10.705  69.799  1.00  0.00    -0.191 F  
HETATM   18  C   UNL     1      -8.815   8.767  68.663  1.00  0.00    -0.138 C  
HETATM   19  C   UNL     1      -9.226  10.034  68.688  1.00  0.00    -0.152 C  
BRANCH  15  20
HETATM   20  C   UNL     1      -8.083   6.740  67.433  1.00  0.00    -0.118 C  
HETATM   21  C   UNL     1      -9.969   5.399  67.044  1.00  0.00    -0.179 C  
HETATM   22  O   UNL     1      -8.820   5.997  66.442  1.00  0.00    -0.127 OA 
HETATM   23  C   UNL     1     -11.160   6.347  66.961  1.00  0.00    -0.405 C  
HETATM   24  C   UNL     1      -9.540   5.056  68.466  1.00  0.00    -0.146 C  
HETATM   25  O   UNL     1      -9.120   3.686  68.583  1.00  0.00    -0.117 OA 
HETATM   26  C   UNL     1      -8.341   5.970  68.749  1.00  0.00    -0.106 C  
HETATM   27  H   UNL     1      -8.853   3.473  69.470  1.00  0.00     0.000 HD 
HETATM   28  O   UNL     1      -7.171   5.228  69.125  1.00  0.00    -0.055 OA 
HETATM   29  H   UNL     1      -7.330   4.755  69.933  1.00  0.00     0.000 HD 
ENDBRANCH  15  20
ENDBRANCH   9  11
ENDBRANCH   6   7
ENDBRANCH   5   6
ENDBRANCH   4   5
ENDBRANCH   3   4
ENDBRANCH   2   3
TORSDOF 7
ENDMDL
MODEL      156
REMARK 921   NORMALIZED FREE ENERGY PREDICTED BY IDOCK:   -3.93 KCAL/MOL
REMARK 922        TOTAL FREE ENERGY PREDICTED BY IDOCK:   -6.64 KCAL/MOL
REMARK 923 INTER-LIGAND FREE ENERGY PREDICTED BY IDOCK:   -5.67 KCAL/MOL
REMARK 924 INTRA-LIGAND FREE ENERGY PREDICTED BY IDOCK:   -0.98 KCAL/MOL
REMARK 927      BINDING AFFINITY PREDICTED BY RF-SCORE:    0.00 PKD
ROOT
HETATM    1  C   UNL     1      -7.503  19.820  66.120  1.00  0.00    -0.321 C  
HETATM    2  C   UNL     1      -7.492  19.084  67.455  1.00  0.00    -0.247 C  
ENDROOT
BRANCH   2   3
HETATM    3  C   UNL     1      -8.274  17.778  67.357  1.00  0.00    -0.221 C  
BRANCH   3   4
HETATM    4  C   UNL     1      -9.322  17.609  68.464  1.00  0.00    -0.291 C  
BRANCH   4   5
HETATM    5  C   UNL     1     -10.659  17.252  67.818  1.00  0.00    -0.367 C  
BRANCH   5   6
HETATM    6  O   UNL     1     -10.547  16.337  66.721  1.00  0.00    -0.305 OA 
BRANCH   6   7
HETATM    7  C   UNL     1     -10.800  15.050  67.066  1.00  0.00    -0.311 C  
HETATM    8  O   UNL     1     -11.920  14.601  67.247  1.00  0.00    -0.391 OA 
HETATM    9  N   UNL     1      -9.609  14.381  67.197  1.00  0.00    -0.243 N  
HETATM   10  H   UNL     1      -8.769  14.946  67.319  1.00  0.00     0.000 HD 
BRANCH   9  11
HETATM   11  C   UNL     1      -9.452  13.017  67.179  1.00  0.00    -0.230 C  
HETATM   12  N   UNL     1     -10.141  12.259  66.401  1.00  0.00    -0.222 N  
HETATM   13  C   UNL     1      -9.973  10.895  66.485  1.00  0.00    -0.211 C  
HETATM   14  H   UNL     1     -10.800  12.661  65.735  1.00  0.00     0.000 HD 
HETATM   15  N   UNL     1      -9.390  10.396  67.667  1.00  0.00    -0.148 N  
HETATM   16  O   UNL     1     -10.346  10.171  65.569  1.00  0.00    -0.248 OA 
HETATM   17  F   UNL     1      -7.635  13.380  68.754  1.00  0.00    -0.115 F  
HETATM   18  C   UNL     1      -8.500  11.207  68.362  1.00  0.00    -0.151 C  
HETATM   19  C   UNL     1      -8.445  12.517  68.120  1.00  0.00    -0.180 C  
BRANCH  15  20
HETATM   20  C   UNL     1      -9.473   8.959  67.965  1.00  0.00    -0.143 C  
HETATM   21  C   UNL     1     -10.802   8.656  69.877  1.00  0.00    -0.208 C  
HETATM   22  O   UNL     1     -10.783   8.602  68.449  1.00  0.00    -0.160 OA 
HETATM   23  C   UNL     1     -11.203  10.050  70.345  1.00  0.00    -0.393 C  
HETATM   24  C   UNL     1      -9.403   8.230  70.309  1.00  0.00    -0.159 C  
HETATM   25  O   UNL     1      -9.350   6.834  70.647  1.00  0.00    -0.161 OA 
HETATM   26  C   UNL     1      -8.517   8.479  69.082  1.00  0.00    -0.125 C  
HETATM   27  H   UNL     1      -8.478   6.568  70.917  1.00  0.00     0.000 HD 
HETATM   28  O   UNL     1      -7.826   7.292  68.662  1.00  0.00    -0.117 OA 
HETATM   29  H   UNL     1      -7.238   6.996  69.348  1.00  0.00     0.000 HD 
ENDBRANCH  15  20
ENDBRANCH   9  11
ENDBRANCH   6   7
ENDBRANCH   5   6
ENDBRANCH   4   5
ENDBRANCH   3   4
ENDBRANCH   2   3
TORSDOF 7
ENDMDL
MODEL      157
REMARK 921   NORMALIZED FREE ENERGY PREDICTED BY IDOCK:   -3.91 KCAL/MOL
REMARK 922        TOTAL FREE ENERGY PREDICTED BY IDOCK:   -6.61 KCAL/MOL
REMARK 923 INTER-LIGAND FREE ENERGY PREDICTED BY IDOCK:   -7.14 KCAL/MOL
REMARK 924 INTRA-LIGAND FREE ENERGY PREDICTED BY IDOCK:    0.53 KCAL/MOL
REMARK 927      BINDING AFFINITY PREDICTED BY RF-SCORE:    0.00 PKD
ROOT
HETATM    1  C   UNL     1     -12.005  15.676  72.034  1.00  0.00    -0.544 C  
HETATM    2  C   UNL     1     -12.497  14.827  70.868  1.00  0.00    -0.396 C  
ENDROOT
BRANCH   2   3
HETATM    3  C   UNL     1     -12.278  15.549  69.543  1.00  0.00    -0.264 C  
BRANCH   3   4
HETATM    4  C   UNL     1     -11.063  15.035  68.761  1.00  0.00    -0.269 C  
BRANCH   4   5
HETATM    5  C   UNL     1     -11.539  13.990  67.754  1.00  0.00    -0.345 C  
BRANCH   5   6
HETATM    6  O   UNL     1     -10.699  12.830  67.681  1.00  0.00    -0.215 OA 
BRANCH   6   7
HETATM    7  C   UNL     1     -11.332  11.685  68.040  1.00  0.00    -0.296 C  
HETATM    8  O   UNL     1     -11.778  10.877  67.242  1.00  0.00    -0.458 OA 
HETATM    9  N   UNL     1     -11.400  11.622  69.408  1.00  0.00    -0.281 N  
HETATM   10  H   UNL     1     -11.268  12.493  69.922  1.00  0.00     0.000 HD 
BRANCH   9  11
HETATM   11  C   UNL     1     -11.631  10.486  70.145  1.00  0.00    -0.326 C  
HETATM   12  N   UNL     1     -12.612  10.393  70.971  1.00  0.00    -0.359 N  
HETATM   13  C   UNL     1     -12.741   9.246  71.722  1.00  0.00    -0.381 C  
HETATM   14  H   UNL     1     -13.283  11.155  71.068  1.00  0.00     0.000 HD 
HETATM   15  N   UNL     1     -11.594   8.437  71.852  1.00  0.00    -0.306 N  
HETATM   16  O   UNL     1     -13.809   8.979  72.260  1.00  0.00    -0.445 OA 
HETATM   17  F   UNL     1      -9.786   9.510  68.895  1.00  0.00    -0.153 F  
HETATM   18  C   UNL     1     -10.657   8.443  70.825  1.00  0.00    -0.207 C  
HETATM   19  C   UNL     1     -10.662   9.411  69.908  1.00  0.00    -0.234 C  
BRANCH  15  20
HETATM   20  C   UNL     1     -11.560   7.389  72.882  1.00  0.00    -0.152 C  
HETATM   21  C   UNL     1      -9.334   7.049  73.545  1.00  0.00    -0.179 C  
HETATM   22  O   UNL     1     -10.570   7.679  73.888  1.00  0.00    -0.195 OA 
HETATM   23  C   UNL     1      -8.485   7.985  72.694  1.00  0.00    -0.231 C  
HETATM   24  C   UNL     1      -9.730   5.753  72.846  1.00  0.00    -0.155 C  
HETATM   25  O   UNL     1      -9.721   4.634  73.748  1.00  0.00    -0.132 OA 
HETATM   26  C   UNL     1     -11.165   5.988  72.359  1.00  0.00    -0.292 C  
HETATM   27  H   UNL     1      -9.967   3.826  73.313  1.00  0.00     0.000 HD 
HETATM   28  O   UNL     1     -12.077   4.999  72.861  1.00  0.00    -0.328 OA 
HETATM   29  H   UNL     1     -11.834   4.138  72.541  1.00  0.00     0.000 HD 
ENDBRANCH  15  20
ENDBRANCH   9  11
ENDBRANCH   6   7
ENDBRANCH   5   6
ENDBRANCH   4   5
ENDBRANCH   3   4
ENDBRANCH   2   3
TORSDOF 7
ENDMDL
MODEL      158
REMARK 921   NORMALIZED FREE ENERGY PREDICTED BY IDOCK:   -3.90 KCAL/MOL
REMARK 922        TOTAL FREE ENERGY PREDICTED BY IDOCK:   -6.60 KCAL/MOL
REMARK 923 INTER-LIGAND FREE ENERGY PREDICTED BY IDOCK:   -5.52 KCAL/MOL
REMARK 924 INTRA-LIGAND FREE ENERGY PREDICTED BY IDOCK:   -1.08 KCAL/MOL
REMARK 927      BINDING AFFINITY PREDICTED BY RF-SCORE:    0.00 PKD
ROOT
HETATM    1  C   UNL     1     -10.722  11.432  63.616  1.00  0.00    -0.470 C  
HETATM    2  C   UNL     1     -11.429  12.783  63.626  1.00  0.00    -0.544 C  
ENDROOT
BRANCH   2   3
HETATM    3  C   UNL     1     -10.674  13.782  64.496  1.00  0.00    -0.405 C  
BRANCH   3   4
HETATM    4  C   UNL     1     -11.593  14.682  65.330  1.00  0.00    -0.354 C  
BRANCH   4   5
HETATM    5  C   UNL     1     -11.678  14.115  66.745  1.00  0.00    -0.410 C  
BRANCH   5   6
HETATM    6  O   UNL     1     -10.624  13.197  67.066  1.00  0.00    -0.256 OA 
BRANCH   6   7
HETATM    7  C   UNL     1     -11.071  12.024  67.580  1.00  0.00    -0.264 C  
HETATM    8  O   UNL     1     -12.216  11.622  67.464  1.00  0.00    -0.501 OA 
HETATM    9  N   UNL     1     -10.043  11.412  68.253  1.00  0.00    -0.189 N  
HETATM   10  H   UNL     1      -9.252  11.995  68.525  1.00  0.00     0.000 HD 
BRANCH   9  11
HETATM   11  C   UNL     1      -9.990  10.082  68.591  1.00  0.00    -0.165 C  
HETATM   12  N   UNL     1     -10.787   9.562  69.455  1.00  0.00    -0.253 N  
HETATM   13  C   UNL     1     -10.630   8.236  69.789  1.00  0.00    -0.228 C  
HETATM   14  H   UNL     1     -11.522  10.122  69.886  1.00  0.00     0.000 HD 
HETATM   15  N   UNL     1      -9.384   7.648  69.494  1.00  0.00    -0.153 N  
HETATM   16  O   UNL     1     -11.541   7.627  70.339  1.00  0.00    -0.231 OA 
HETATM   17  F   UNL     1      -8.288   9.891  66.862  1.00  0.00    -0.120 F  
HETATM   18  C   UNL     1      -8.655   8.140  68.418  1.00  0.00    -0.130 C  
HETATM   19  C   UNL     1      -8.948   9.326  67.887  1.00  0.00    -0.127 C  
BRANCH  15  20
HETATM   20  C   UNL     1      -9.031   6.356  70.101  1.00  0.00    -0.154 C  
HETATM   21  C   UNL     1      -7.590   6.738  71.915  1.00  0.00    -0.095 C  
HETATM   22  O   UNL     1      -8.940   6.462  71.536  1.00  0.00    -0.144 OA 
HETATM   23  C   UNL     1      -7.356   8.243  71.967  1.00  0.00    -0.117 C  
HETATM   24  C   UNL     1      -6.732   6.007  70.889  1.00  0.00    -0.061 C  
HETATM   25  O   UNL     1      -6.303   4.722  71.369  1.00  0.00    -0.018 OA 
HETATM   26  C   UNL     1      -7.650   5.803  69.678  1.00  0.00    -0.076 C  
HETATM   27  H   UNL     1      -5.767   4.266  70.730  1.00  0.00     0.000 HD 
HETATM   28  O   UNL     1      -7.764   4.420  69.309  1.00  0.00    -0.055 OA 
HETATM   29  H   UNL     1      -6.916   4.080  69.049  1.00  0.00     0.000 HD 
ENDBRANCH  15  20
ENDBRANCH   9  11
ENDBRANCH   6   7
ENDBRANCH   5   6
ENDBRANCH   4   5
ENDBRANCH   3   4
ENDBRANCH   2   3
TORSDOF 7
ENDMDL
MODEL      159
REMARK 921   NORMALIZED FREE ENERGY PREDICTED BY IDOCK:   -3.90 KCAL/MOL
REMARK 922        TOTAL FREE ENERGY PREDICTED BY IDOCK:   -6.59 KCAL/MOL
REMARK 923 INTER-LIGAND FREE ENERGY PREDICTED BY IDOCK:   -6.84 KCAL/MOL
REMARK 924 INTRA-LIGAND FREE ENERGY PREDICTED BY IDOCK:    0.25 KCAL/MOL
REMARK 927      BINDING AFFINITY PREDICTED BY RF-SCORE:    0.00 PKD
ROOT
HETATM    1  C   UNL     1      -7.504   8.084  73.586  1.00  0.00    -0.195 C  
HETATM    2  C   UNL     1      -7.831   6.595  73.627  1.00  0.00    -0.095 C  
ENDROOT
BRANCH   2   3
HETATM    3  C   UNL     1      -9.164   6.354  74.326  1.00  0.00    -0.191 C  
BRANCH   3   4
HETATM    4  C   UNL     1     -10.271   5.870  73.381  1.00  0.00    -0.225 C  
BRANCH   4   5
HETATM    5  C   UNL     1     -10.474   6.919  72.290  1.00  0.00    -0.207 C  
BRANCH   5   6
HETATM    6  O   UNL     1     -11.814   7.422  72.213  1.00  0.00    -0.291 OA 
BRANCH   6   7
HETATM    7  C   UNL     1     -11.918   8.570  71.496  1.00  0.00    -0.303 C  
HETATM    8  O   UNL     1     -12.508   9.563  71.886  1.00  0.00    -0.369 OA 
HETATM    9  N   UNL     1     -11.287   8.401  70.290  1.00  0.00    -0.427 N  
HETATM   10  H   UNL     1     -11.115   7.443  69.984  1.00  0.00     0.000 HD 
BRANCH   9  11
HETATM   11  C   UNL     1     -10.867   9.411  69.460  1.00  0.00    -0.213 C  
HETATM   12  N   UNL     1     -11.656   9.976  68.616  1.00  0.00    -0.506 N  
HETATM   13  C   UNL     1     -11.146  10.938  67.772  1.00  0.00    -0.309 C  
HETATM   14  H   UNL     1     -12.641   9.716  68.571  1.00  0.00     0.000 HD 
HETATM   15  N   UNL     1      -9.749  10.951  67.593  1.00  0.00    -0.169 N  
HETATM   16  O   UNL     1     -11.899  11.716  67.199  1.00  0.00    -0.608 OA 
HETATM   17  F   UNL     1      -8.751   9.275  70.652  1.00  0.00    -0.188 F  
HETATM   18  C   UNL     1      -8.941  10.499  68.630  1.00  0.00    -0.162 C  
HETATM   19  C   UNL     1      -9.455   9.772  69.622  1.00  0.00    -0.219 C  
BRANCH  15  20
HETATM   20  C   UNL     1      -9.169  11.719  66.481  1.00  0.00    -0.201 C  
HETATM   21  C   UNL     1      -8.975  13.967  67.132  1.00  0.00    -0.235 C  
HETATM   22  O   UNL     1      -8.268  12.736  66.964  1.00  0.00    -0.169 OA 
HETATM   23  C   UNL     1      -9.549  14.056  68.541  1.00  0.00    -0.201 C  
HETATM   24  C   UNL     1     -10.026  13.975  66.027  1.00  0.00    -0.315 C  
HETATM   25  O   UNL     1      -9.586  14.715  64.876  1.00  0.00    -0.338 OA 
HETATM   26  C   UNL     1     -10.200  12.503  65.635  1.00  0.00    -0.267 C  
HETATM   27  H   UNL     1     -10.241  14.721  64.188  1.00  0.00     0.000 HD 
HETATM   28  O   UNL     1      -9.961  12.281  64.237  1.00  0.00    -0.442 OA 
HETATM   29  H   UNL     1     -10.594  12.763  63.717  1.00  0.00     0.000 HD 
ENDBRANCH  15  20
ENDBRANCH   9  11
ENDBRANCH   6   7
ENDBRANCH   5   6
ENDBRANCH   4   5
ENDBRANCH   3   4
ENDBRANCH   2   3
TORSDOF 7
ENDMDL
MODEL      160
REMARK 921   NORMALIZED FREE ENERGY PREDICTED BY IDOCK:   -3.90 KCAL/MOL
REMARK 922        TOTAL FREE ENERGY PREDICTED BY IDOCK:   -6.59 KCAL/MOL
REMARK 923 INTER-LIGAND FREE ENERGY PREDICTED BY IDOCK:   -7.07 KCAL/MOL
REMARK 924 INTRA-LIGAND FREE ENERGY PREDICTED BY IDOCK:    0.48 KCAL/MOL
REMARK 927      BINDING AFFINITY PREDICTED BY RF-SCORE:    0.00 PKD
ROOT
HETATM    1  C   UNL     1     -11.045  16.444  70.072  1.00  0.00    -0.300 C  
HETATM    2  C   UNL     1     -11.660  15.318  70.893  1.00  0.00    -0.382 C  
ENDROOT
BRANCH   2   3
HETATM    3  C   UNL     1     -13.158  15.537  71.073  1.00  0.00    -0.551 C  
BRANCH   3   4
HETATM    4  C   UNL     1     -13.718  14.907  72.355  1.00  0.00    -0.576 C  
BRANCH   4   5
HETATM    5  C   UNL     1     -13.167  13.488  72.481  1.00  0.00    -0.448 C  
BRANCH   5   6
HETATM    6  O   UNL     1     -13.222  12.735  71.263  1.00  0.00    -0.220 OA 
BRANCH   6   7
HETATM    7  C   UNL     1     -12.825  11.446  71.410  1.00  0.00    -0.397 C  
HETATM    8  O   UNL     1     -13.373  10.646  72.151  1.00  0.00    -0.444 OA 
HETATM    9  N   UNL     1     -11.723  11.225  70.624  1.00  0.00    -0.441 N  
HETATM   10  H   UNL     1     -11.204  12.045  70.310  1.00  0.00     0.000 HD 
BRANCH   9  11
HETATM   11  C   UNL     1     -11.258   9.996  70.226  1.00  0.00    -0.313 C  
HETATM   12  N   UNL     1     -11.832   8.900  70.578  1.00  0.00    -0.463 N  
HETATM   13  C   UNL     1     -11.271   7.703  70.191  1.00  0.00    -0.180 C  
HETATM   14  H   UNL     1     -12.687   8.917  71.133  1.00  0.00     0.000 HD 
HETATM   15  N   UNL     1      -9.916   7.731  69.805  1.00  0.00    -0.186 N  
HETATM   16  O   UNL     1     -11.936   6.675  70.216  1.00  0.00    -0.387 OA 
HETATM   17  F   UNL     1      -9.638  11.233  68.898  1.00  0.00    -0.191 F  
HETATM   18  C   UNL     1      -9.406   8.900  69.251  1.00  0.00    -0.149 C  
HETATM   19  C   UNL     1     -10.062  10.053  69.380  1.00  0.00    -0.219 C  
BRANCH  15  20
HETATM   20  C   UNL     1      -9.169   6.470  69.694  1.00  0.00    -0.143 C  
HETATM   21  C   UNL     1      -9.432   5.622  67.521  1.00  0.00    -0.114 C  
HETATM   22  O   UNL     1      -8.558   6.339  68.395  1.00  0.00    -0.114 OA 
HETATM   23  C   UNL     1     -10.357   6.590  66.792  1.00  0.00    -0.279 C  
HETATM   24  C   UNL     1     -10.154   4.620  68.415  1.00  0.00    -0.001 C  
HETATM   25  O   UNL     1      -9.528   3.326  68.384  1.00  0.00    -0.181 OA 
HETATM   26  C   UNL     1     -10.035   5.196  69.831  1.00  0.00    -0.246 C  
HETATM   27  H   UNL     1      -9.978   2.702  68.941  1.00  0.00     0.000 HD 
HETATM   28  O   UNL     1      -9.417   4.274  70.742  1.00  0.00    -0.141 OA 
HETATM   29  H   UNL     1      -9.949   3.491  70.826  1.00  0.00     0.000 HD 
ENDBRANCH  15  20
ENDBRANCH   9  11
ENDBRANCH   6   7
ENDBRANCH   5   6
ENDBRANCH   4   5
ENDBRANCH   3   4
ENDBRANCH   2   3
TORSDOF 7
ENDMDL
MODEL      161
REMARK 921   NORMALIZED FREE ENERGY PREDICTED BY IDOCK:   -3.89 KCAL/MOL
REMARK 922        TOTAL FREE ENERGY PREDICTED BY IDOCK:   -6.59 KCAL/MOL
REMARK 923 INTER-LIGAND FREE ENERGY PREDICTED BY IDOCK:   -5.60 KCAL/MOL
REMARK 924 INTRA-LIGAND FREE ENERGY PREDICTED BY IDOCK:   -0.99 KCAL/MOL
REMARK 927      BINDING AFFINITY PREDICTED BY RF-SCORE:    0.00 PKD
ROOT
HETATM    1  C   UNL     1     -12.787  11.861  63.588  1.00  0.00    -0.429 C  
HETATM    2  C   UNL     1     -11.977  13.129  63.345  1.00  0.00    -0.552 C  
ENDROOT
BRANCH   2   3
HETATM    3  C   UNL     1     -10.627  13.051  64.050  1.00  0.00    -0.371 C  
BRANCH   3   4
HETATM    4  C   UNL     1     -10.308  14.289  64.897  1.00  0.00    -0.429 C  
BRANCH   4   5
HETATM    5  C   UNL     1     -10.128  13.853  66.349  1.00  0.00    -0.295 C  
BRANCH   5   6
HETATM    6  O   UNL     1     -11.353  13.503  67.005  1.00  0.00    -0.302 OA 
BRANCH   6   7
HETATM    7  C   UNL     1     -11.172  12.736  68.110  1.00  0.00    -0.272 C  
HETATM    8  O   UNL     1     -11.804  12.873  69.144  1.00  0.00    -0.296 OA 
HETATM    9  N   UNL     1     -10.167  11.834  67.867  1.00  0.00    -0.187 N  
HETATM   10  H   UNL     1      -9.536  12.038  67.092  1.00  0.00     0.000 HD 
BRANCH   9  11
HETATM   11  C   UNL     1      -9.938  10.682  68.579  1.00  0.00    -0.167 C  
HETATM   12  N   UNL     1      -9.194  10.661  69.627  1.00  0.00    -0.404 N  
HETATM   13  C   UNL     1      -8.960   9.455  70.250  1.00  0.00    -0.240 C  
HETATM   14  H   UNL     1      -8.785  11.521  69.991  1.00  0.00     0.000 HD 
HETATM   15  N   UNL     1      -9.191   8.291  69.492  1.00  0.00    -0.157 N  
HETATM   16  O   UNL     1      -8.547   9.428  71.403  1.00  0.00    -0.292 OA 
HETATM   17  F   UNL     1     -11.519   9.635  67.054  1.00  0.00    -0.014 F  
HETATM   18  C   UNL     1     -10.154   8.331  68.489  1.00  0.00    -0.197 C  
HETATM   19  C   UNL     1     -10.608   9.497  68.032  1.00  0.00    -0.230 C  
BRANCH  15  20
HETATM   20  C   UNL     1      -8.666   7.002  69.965  1.00  0.00    -0.142 C  
HETATM   21  C   UNL     1      -6.876   6.361  68.588  1.00  0.00    -0.074 C  
HETATM   22  O   UNL     1      -7.231   6.948  69.842  1.00  0.00    -0.072 OA 
HETATM   23  C   UNL     1      -6.748   7.440  67.520  1.00  0.00    -0.069 C  
HETATM   24  C   UNL     1      -7.963   5.330  68.310  1.00  0.00    -0.088 C  
HETATM   25  O   UNL     1      -7.566   4.010  68.716  1.00  0.00    -0.055 OA 
HETATM   26  C   UNL     1      -9.158   5.774  69.164  1.00  0.00    -0.117 C  
HETATM   27  H   UNL     1      -8.244   3.367  68.542  1.00  0.00     0.000 HD 
HETATM   28  O   UNL     1      -9.597   4.743  70.061  1.00  0.00    -0.152 OA 
HETATM   29  H   UNL     1      -9.899   3.988  69.569  1.00  0.00     0.000 HD 
ENDBRANCH  15  20
ENDBRANCH   9  11
ENDBRANCH   6   7
ENDBRANCH   5   6
ENDBRANCH   4   5
ENDBRANCH   3   4
ENDBRANCH   2   3
TORSDOF 7
ENDMDL
MODEL      162
REMARK 921   NORMALIZED FREE ENERGY PREDICTED BY IDOCK:   -3.89 KCAL/MOL
REMARK 922        TOTAL FREE ENERGY PREDICTED BY IDOCK:   -6.59 KCAL/MOL
REMARK 923 INTER-LIGAND FREE ENERGY PREDICTED BY IDOCK:   -5.66 KCAL/MOL
REMARK 924 INTRA-LIGAND FREE ENERGY PREDICTED BY IDOCK:   -0.92 KCAL/MOL
REMARK 927      BINDING AFFINITY PREDICTED BY RF-SCORE:    0.00 PKD
ROOT
HETATM    1  C   UNL     1     -12.522  16.682  74.509  1.00  0.00    -0.288 C  
HETATM    2  C   UNL     1     -12.125  15.457  73.693  1.00  0.00    -0.637 C  
ENDROOT
BRANCH   2   3
HETATM    3  C   UNL     1     -12.490  15.644  72.225  1.00  0.00    -0.512 C  
BRANCH   3   4
HETATM    4  C   UNL     1     -11.339  15.323  71.264  1.00  0.00    -0.416 C  
BRANCH   4   5
HETATM    5  C   UNL     1     -11.929  14.914  69.916  1.00  0.00    -0.330 C  
BRANCH   5   6
HETATM    6  O   UNL     1     -11.218  13.850  69.271  1.00  0.00    -0.252 OA 
BRANCH   6   7
HETATM    7  C   UNL     1     -11.717  12.620  69.553  1.00  0.00    -0.308 C  
HETATM    8  O   UNL     1     -12.886  12.409  69.832  1.00  0.00     0.305 OA 
HETATM    9  N   UNL     1     -10.700  11.702  69.499  1.00  0.00    -0.449 N  
HETATM   10  H   UNL     1      -9.747  12.059  69.561  1.00  0.00     0.000 HD 
BRANCH   9  11
HETATM   11  C   UNL     1     -10.855  10.344  69.368  1.00  0.00    -0.248 C  
HETATM   12  N   UNL     1     -11.195   9.595  70.357  1.00  0.00    -0.265 N  
HETATM   13  C   UNL     1     -11.269   8.234  70.164  1.00  0.00    -0.132 C  
HETATM   14  H   UNL     1     -11.406  10.002  71.268  1.00  0.00     0.000 HD 
HETATM   15  N   UNL     1     -10.582   7.711  69.050  1.00  0.00    -0.204 N  
HETATM   16  O   UNL     1     -11.889   7.533  70.955  1.00  0.00    -0.292 OA 
HETATM   17  F   UNL     1     -10.436  10.700  66.999  1.00  0.00    -0.237 F  
HETATM   18  C   UNL     1     -10.416   8.520  67.933  1.00  0.00    -0.201 C  
HETATM   19  C   UNL     1     -10.594   9.838  68.017  1.00  0.00    -0.243 C  
BRANCH  15  20
HETATM   20  C   UNL     1     -10.346   6.263  68.960  1.00  0.00    -0.206 C  
HETATM   21  C   UNL     1      -8.083   5.834  69.413  1.00  0.00    -0.101 C  
HETATM   22  O   UNL     1      -9.404   5.825  69.959  1.00  0.00    -0.143 OA 
HETATM   23  C   UNL     1      -7.427   7.190  69.643  1.00  0.00    -0.098 C  
HETATM   24  C   UNL     1      -8.258   5.464  67.944  1.00  0.00    -0.099 C  
HETATM   25  O   UNL     1      -8.037   4.063  67.714  1.00  0.00    -0.089 OA 
HETATM   26  C   UNL     1      -9.722   5.795  67.625  1.00  0.00    -0.119 C  
HETATM   27  H   UNL     1      -8.146   3.833  66.798  1.00  0.00     0.000 HD 
HETATM   28  O   UNL     1     -10.437   4.659  67.116  1.00  0.00    -0.099 OA 
HETATM   29  H   UNL     1     -10.053   4.371  66.296  1.00  0.00     0.000 HD 
ENDBRANCH  15  20
ENDBRANCH   9  11
ENDBRANCH   6   7
ENDBRANCH   5   6
ENDBRANCH   4   5
ENDBRANCH   3   4
ENDBRANCH   2   3
TORSDOF 7
ENDMDL
MODEL      163
REMARK 921   NORMALIZED FREE ENERGY PREDICTED BY IDOCK:   -3.88 KCAL/MOL
REMARK 922        TOTAL FREE ENERGY PREDICTED BY IDOCK:   -6.57 KCAL/MOL
REMARK 923 INTER-LIGAND FREE ENERGY PREDICTED BY IDOCK:   -5.34 KCAL/MOL
REMARK 924 INTRA-LIGAND FREE ENERGY PREDICTED BY IDOCK:   -1.23 KCAL/MOL
REMARK 927      BINDING AFFINITY PREDICTED BY RF-SCORE:    0.00 PKD
ROOT
HETATM    1  C   UNL     1      -8.051  12.807  67.576  1.00  0.00    -0.180 C  
HETATM    2  C   UNL     1      -8.270  14.290  67.300  1.00  0.00    -0.212 C  
ENDROOT
BRANCH   2   3
HETATM    3  C   UNL     1      -9.759  14.617  67.260  1.00  0.00    -0.231 C  
BRANCH   3   4
HETATM    4  C   UNL     1     -10.614  13.495  66.660  1.00  0.00    -0.280 C  
BRANCH   4   5
HETATM    5  C   UNL     1     -11.893  13.364  67.485  1.00  0.00    -0.366 C  
BRANCH   5   6
HETATM    6  O   UNL     1     -11.740  13.746  68.858  1.00  0.00    -0.290 OA 
BRANCH   6   7
HETATM    7  C   UNL     1     -11.921  12.719  69.726  1.00  0.00    -0.292 C  
HETATM    8  O   UNL     1     -12.844  12.655  70.520  1.00  0.00    -0.035 OA 
HETATM    9  N   UNL     1     -10.898  11.818  69.570  1.00  0.00    -0.462 N  
HETATM   10  H   UNL     1     -10.054  12.147  69.102  1.00  0.00     0.000 HD 
BRANCH   9  11
HETATM   11  C   UNL     1     -10.914  10.510  69.991  1.00  0.00    -0.286 C  
HETATM   12  N   UNL     1     -11.012  10.192  71.233  1.00  0.00    -0.180 N  
HETATM   13  C   UNL     1     -10.956   8.861  71.583  1.00  0.00    -0.345 C  
HETATM   14  H   UNL     1     -11.127  10.912  71.946  1.00  0.00     0.000 HD 
HETATM   15  N   UNL     1     -10.391   7.978  70.642  1.00  0.00    -0.200 N  
HETATM   16  O   UNL     1     -11.365   8.496  72.679  1.00  0.00    -0.343 OA 
HETATM   17  F   UNL     1     -10.902   9.933  67.628  1.00  0.00    -0.281 F  
HETATM   18  C   UNL     1     -10.490   8.294  69.291  1.00  0.00    -0.210 C  
HETATM   19  C   UNL     1     -10.805   9.530  68.906  1.00  0.00    -0.150 C  
BRANCH  15  20
HETATM   20  C   UNL     1     -10.006   6.623  71.061  1.00  0.00    -0.183 C  
HETATM   21  C   UNL     1      -7.687   6.570  71.421  1.00  0.00    -0.099 C  
HETATM   22  O   UNL     1      -8.965   6.661  72.056  1.00  0.00    -0.139 OA 
HETATM   23  C   UNL     1      -7.169   7.963  71.081  1.00  0.00    -0.058 C  
HETATM   24  C   UNL     1      -7.908   5.672  70.210  1.00  0.00    -0.098 C  
HETATM   25  O   UNL     1      -7.551   4.307  70.484  1.00  0.00    -0.050 OA 
HETATM   26  C   UNL     1      -9.415   5.745  69.933  1.00  0.00    -0.150 C  
HETATM   27  H   UNL     1      -7.689   3.746  69.729  1.00  0.00     0.000 HD 
HETATM   28  O   UNL     1     -10.033   4.449  69.941  1.00  0.00    -0.222 OA 
HETATM   29  H   UNL     1      -9.669   3.909  69.249  1.00  0.00     0.000 HD 
ENDBRANCH  15  20
ENDBRANCH   9  11
ENDBRANCH   6   7
ENDBRANCH   5   6
ENDBRANCH   4   5
ENDBRANCH   3   4
ENDBRANCH   2   3
TORSDOF 7
ENDMDL
MODEL      164
REMARK 921   NORMALIZED FREE ENERGY PREDICTED BY IDOCK:   -3.88 KCAL/MOL
REMARK 922        TOTAL FREE ENERGY PREDICTED BY IDOCK:   -6.57 KCAL/MOL
REMARK 923 INTER-LIGAND FREE ENERGY PREDICTED BY IDOCK:   -6.51 KCAL/MOL
REMARK 924 INTRA-LIGAND FREE ENERGY PREDICTED BY IDOCK:   -0.05 KCAL/MOL
REMARK 927      BINDING AFFINITY PREDICTED BY RF-SCORE:    0.00 PKD
ROOT
HETATM    1  C   UNL     1     -12.694  11.836  63.753  1.00  0.00    -0.369 C  
HETATM    2  C   UNL     1     -11.921  13.124  63.493  1.00  0.00    -0.580 C  
ENDROOT
BRANCH   2   3
HETATM    3  C   UNL     1     -10.607  13.130  64.267  1.00  0.00    -0.432 C  
BRANCH   3   4
HETATM    4  C   UNL     1     -10.319  14.463  64.968  1.00  0.00    -0.449 C  
BRANCH   4   5
HETATM    5  C   UNL     1     -10.206  14.210  66.470  1.00  0.00    -0.278 C  
BRANCH   5   6
HETATM    6  O   UNL     1     -11.458  13.912  67.102  1.00  0.00    -0.315 OA 
BRANCH   6   7
HETATM    7  C   UNL     1     -11.349  13.015  68.115  1.00  0.00    -0.294 C  
HETATM    8  O   UNL     1     -12.065  13.014  69.102  1.00  0.00    -0.276 OA 
HETATM    9  N   UNL     1     -10.307  12.165  67.847  1.00  0.00    -0.201 N  
HETATM   10  H   UNL     1      -9.620  12.472  67.158  1.00  0.00     0.000 HD 
BRANCH   9  11
HETATM   11  C   UNL     1     -10.110  10.935  68.426  1.00  0.00    -0.183 C  
HETATM   12  N   UNL     1      -9.747  10.807  69.653  1.00  0.00    -0.432 N  
HETATM   13  C   UNL     1      -9.507   9.543  70.146  1.00  0.00    -0.246 C  
HETATM   14  H   UNL     1      -9.639  11.625  70.251  1.00  0.00     0.000 HD 
HETATM   15  N   UNL     1      -9.268   8.526  69.200  1.00  0.00    -0.149 N  
HETATM   16  O   UNL     1      -9.485   9.348  71.355  1.00  0.00    -0.254 OA 
HETATM   17  F   UNL     1     -10.904  10.010  66.321  1.00  0.00    -0.198 F  
HETATM   18  C   UNL     1      -9.852   8.637  67.944  1.00  0.00    -0.173 C  
HETATM   19  C   UNL     1     -10.342   9.803  67.524  1.00  0.00    -0.237 C  
BRANCH  15  20
HETATM   20  C   UNL     1      -8.695   7.247  69.642  1.00  0.00    -0.141 C  
HETATM   21  C   UNL     1     -10.437   5.833  70.332  1.00  0.00    -0.273 C  
HETATM   22  O   UNL     1      -9.537   6.140  69.265  1.00  0.00    -0.132 OA 
HETATM   23  C   UNL     1     -11.725   6.634  70.182  1.00  0.00    -0.412 C  
HETATM   24  C   UNL     1      -9.658   6.134  71.607  1.00  0.00    -0.151 C  
HETATM   25  O   UNL     1      -9.053   4.951  72.157  1.00  0.00    -0.129 OA 
HETATM   26  C   UNL     1      -8.550   7.103  71.175  1.00  0.00    -0.129 C  
HETATM   27  H   UNL     1      -8.568   5.139  72.953  1.00  0.00     0.000 HD 
HETATM   28  O   UNL     1      -7.241   6.613  71.504  1.00  0.00    -0.079 OA 
HETATM   29  H   UNL     1      -7.153   6.525  72.446  1.00  0.00     0.000 HD 
ENDBRANCH  15  20
ENDBRANCH   9  11
ENDBRANCH   6   7
ENDBRANCH   5   6
ENDBRANCH   4   5
ENDBRANCH   3   4
ENDBRANCH   2   3
TORSDOF 7
ENDMDL
MODEL      165
REMARK 921   NORMALIZED FREE ENERGY PREDICTED BY IDOCK:   -3.86 KCAL/MOL
REMARK 922        TOTAL FREE ENERGY PREDICTED BY IDOCK:   -6.54 KCAL/MOL
REMARK 923 INTER-LIGAND FREE ENERGY PREDICTED BY IDOCK:   -5.77 KCAL/MOL
REMARK 924 INTRA-LIGAND FREE ENERGY PREDICTED BY IDOCK:   -0.77 KCAL/MOL
REMARK 927      BINDING AFFINITY PREDICTED BY RF-SCORE:    0.00 PKD
ROOT
HETATM    1  C   UNL     1     -13.099  15.778  72.956  1.00  0.00    -0.645 C  
HETATM    2  C   UNL     1     -12.553  14.593  72.169  1.00  0.00    -0.404 C  
ENDROOT
BRANCH   2   3
HETATM    3  C   UNL     1     -13.614  13.509  72.019  1.00  0.00    -0.589 C  
BRANCH   3   4
HETATM    4  C   UNL     1     -13.045  12.086  72.067  1.00  0.00    -0.456 C  
BRANCH   4   5
HETATM    5  C   UNL     1     -12.889  11.574  70.636  1.00  0.00    -0.067 C  
BRANCH   5   6
HETATM    6  O   UNL     1     -11.546  11.642  70.139  1.00  0.00    -0.289 OA 
BRANCH   6   7
HETATM    7  C   UNL     1     -10.893  10.453  70.191  1.00  0.00    -0.271 C  
HETATM    8  O   UNL     1     -10.719   9.818  71.218  1.00  0.00    -0.304 OA 
HETATM    9  N   UNL     1     -10.458  10.128  68.932  1.00  0.00    -0.198 N  
HETATM   10  H   UNL     1     -10.405  10.883  68.248  1.00  0.00     0.000 HD 
BRANCH   9  11
HETATM   11  C   UNL     1     -10.088   8.873  68.513  1.00  0.00    -0.188 C  
HETATM   12  N   UNL     1     -10.929   8.048  67.999  1.00  0.00    -0.460 N  
HETATM   13  C   UNL     1     -10.497   6.784  67.662  1.00  0.00    -0.229 C  
HETATM   14  H   UNL     1     -11.898   8.323  67.843  1.00  0.00     0.000 HD 
HETATM   15  N   UNL     1      -9.305   6.336  68.266  1.00  0.00    -0.114 N  
HETATM   16  O   UNL     1     -11.151   6.095  66.889  1.00  0.00    -0.334 OA 
HETATM   17  F   UNL     1      -7.818   9.546  69.073  1.00  0.00    -0.072 F  
HETATM   18  C   UNL     1      -8.349   7.279  68.628  1.00  0.00    -0.125 C  
HETATM   19  C   UNL     1      -8.667   8.570  68.713  1.00  0.00    -0.139 C  
BRANCH  15  20
HETATM   20  C   UNL     1      -8.958   4.909  68.212  1.00  0.00    -0.109 C  
HETATM   21  C   UNL     1      -9.403   3.940  70.304  1.00  0.00    -0.168 C  
HETATM   22  O   UNL     1      -9.892   4.116  68.972  1.00  0.00    -0.154 OA 
HETATM   23  C   UNL     1      -9.903   5.067  71.201  1.00  0.00    -0.254 C  
HETATM   24  C   UNL     1      -7.887   3.876  70.165  1.00  0.00    -0.048 C  
HETATM   25  O   UNL     1      -7.410   2.521  70.116  1.00  0.00    -0.039 OA 
HETATM   26  C   UNL     1      -7.582   4.559  68.826  1.00  0.00    -0.064 C  
HETATM   27  H   UNL     1      -6.464   2.481  70.031  1.00  0.00     0.000 HD 
HETATM   28  O   UNL     1      -6.848   3.705  67.936  1.00  0.00    -0.048 OA 
HETATM   29  H   UNL     1      -6.003   3.489  68.313  1.00  0.00     0.000 HD 
ENDBRANCH  15  20
ENDBRANCH   9  11
ENDBRANCH   6   7
ENDBRANCH   5   6
ENDBRANCH   4   5
ENDBRANCH   3   4
ENDBRANCH   2   3
TORSDOF 7
ENDMDL
MODEL      166
REMARK 921   NORMALIZED FREE ENERGY PREDICTED BY IDOCK:   -3.85 KCAL/MOL
REMARK 922        TOTAL FREE ENERGY PREDICTED BY IDOCK:   -6.52 KCAL/MOL
REMARK 923 INTER-LIGAND FREE ENERGY PREDICTED BY IDOCK:   -5.60 KCAL/MOL
REMARK 924 INTRA-LIGAND FREE ENERGY PREDICTED BY IDOCK:   -0.92 KCAL/MOL
REMARK 927      BINDING AFFINITY PREDICTED BY RF-SCORE:    0.00 PKD
ROOT
HETATM    1  C   UNL     1     -11.315  12.934  68.915  1.00  0.00    -0.335 C  
HETATM    2  C   UNL     1     -11.894  12.733  67.520  1.00  0.00    -0.402 C  
ENDROOT
BRANCH   2   3
HETATM    3  C   UNL     1     -10.835  12.988  66.453  1.00  0.00    -0.294 C  
BRANCH   3   4
HETATM    4  C   UNL     1     -10.782  11.900  65.373  1.00  0.00    -0.330 C  
BRANCH   4   5
HETATM    5  C   UNL     1     -10.768  10.534  66.057  1.00  0.00    -0.016 C  
BRANCH   5   6
HETATM    6  O   UNL     1      -9.452  10.037  66.330  1.00  0.00    -0.172 OA 
BRANCH   6   7
HETATM    7  C   UNL     1      -9.426   9.085  67.297  1.00  0.00    -0.149 C  
HETATM    8  O   UNL     1      -8.420   8.481  67.629  1.00  0.00    -0.127 OA 
HETATM    9  N   UNL     1     -10.695   8.916  67.790  1.00  0.00    -0.453 N  
HETATM   10  H   UNL     1     -11.466   9.255  67.216  1.00  0.00     0.000 HD 
BRANCH   9  11
HETATM   11  C   UNL     1     -11.014   8.329  68.989  1.00  0.00     0.124 C  
HETATM   12  N   UNL     1     -11.358   9.018  70.019  1.00  0.00    -0.422 N  
HETATM   13  C   UNL     1     -11.602   8.362  71.205  1.00  0.00    -0.283 C  
HETATM   14  H   UNL     1     -11.449  10.032  69.958  1.00  0.00     0.000 HD 
HETATM   15  N   UNL     1     -11.070   7.064  71.336  1.00  0.00    -0.240 N  
HETATM   16  O   UNL     1     -12.234   8.917  72.096  1.00  0.00    -0.356 OA 
HETATM   17  F   UNL     1     -10.745   6.210  67.825  1.00  0.00    -0.210 F  
HETATM   18  C   UNL     1     -10.901   6.297  70.189  1.00  0.00    -0.313 C  
HETATM   19  C   UNL     1     -10.920   6.866  68.984  1.00  0.00    -0.181 C  
BRANCH  15  20
HETATM   20  C   UNL     1     -11.009   6.438  72.664  1.00  0.00    -0.253 C  
HETATM   21  C   UNL     1      -8.803   6.556  73.458  1.00  0.00    -0.124 C  
HETATM   22  O   UNL     1     -10.103   7.146  73.533  1.00  0.00    -0.259 OA 
HETATM   23  C   UNL     1      -7.986   7.223  72.357  1.00  0.00    -0.105 C  
HETATM   24  C   UNL     1      -9.053   5.069  73.239  1.00  0.00    -0.125 C  
HETATM   25  O   UNL     1      -9.004   4.330  74.471  1.00  0.00    -0.100 OA 
HETATM   26  C   UNL     1     -10.474   4.987  72.666  1.00  0.00    -0.209 C  
HETATM   27  H   UNL     1      -9.160   3.403  74.334  1.00  0.00     0.000 HD 
HETATM   28  O   UNL     1     -11.329   4.146  73.456  1.00  0.00    -0.270 OA 
HETATM   29  H   UNL     1     -11.000   3.255  73.457  1.00  0.00     0.000 HD 
ENDBRANCH  15  20
ENDBRANCH   9  11
ENDBRANCH   6   7
ENDBRANCH   5   6
ENDBRANCH   4   5
ENDBRANCH   3   4
ENDBRANCH   2   3
TORSDOF 7
ENDMDL
MODEL      167
REMARK 921   NORMALIZED FREE ENERGY PREDICTED BY IDOCK:   -3.85 KCAL/MOL
REMARK 922        TOTAL FREE ENERGY PREDICTED BY IDOCK:   -6.52 KCAL/MOL
REMARK 923 INTER-LIGAND FREE ENERGY PREDICTED BY IDOCK:   -5.53 KCAL/MOL
REMARK 924 INTRA-LIGAND FREE ENERGY PREDICTED BY IDOCK:   -0.99 KCAL/MOL
REMARK 927      BINDING AFFINITY PREDICTED BY RF-SCORE:    0.00 PKD
ROOT
HETATM    1  C   UNL     1      -9.185   3.226  68.361  1.00  0.00    -0.235 C  
HETATM    2  C   UNL     1      -8.981   4.708  68.071  1.00  0.00    -0.131 C  
ENDROOT
BRANCH   2   3
HETATM    3  C   UNL     1      -9.502   5.064  66.683  1.00  0.00    -0.148 C  
BRANCH   3   4
HETATM    4  C   UNL     1     -10.829   5.832  66.707  1.00  0.00    -0.327 C  
BRANCH   4   5
HETATM    5  C   UNL     1     -10.526   7.329  66.677  1.00  0.00    -0.134 C  
BRANCH   5   6
HETATM    6  O   UNL     1      -9.290   7.657  66.031  1.00  0.00    -0.125 OA 
BRANCH   6   7
HETATM    7  C   UNL     1      -9.134   8.987  65.809  1.00  0.00    -0.219 C  
HETATM    8  O   UNL     1      -8.509   9.451  64.871  1.00  0.00    -0.143 OA 
HETATM    9  N   UNL     1      -9.761   9.682  66.811  1.00  0.00    -0.185 N  
HETATM   10  H   UNL     1      -9.969   9.174  67.671  1.00  0.00     0.000 HD 
BRANCH   9  11
HETATM   11  C   UNL     1     -10.134  11.003  66.756  1.00  0.00    -0.220 C  
HETATM   12  N   UNL     1     -10.163  11.660  65.651  1.00  0.00    -0.233 N  
HETATM   13  C   UNL     1     -10.485  12.998  65.683  1.00  0.00    -0.279 C  
HETATM   14  H   UNL     1      -9.951  11.199  64.767  1.00  0.00     0.000 HD 
HETATM   15  N   UNL     1     -10.357  13.655  66.924  1.00  0.00    -0.260 N  
HETATM   16  O   UNL     1     -10.841  13.571  64.660  1.00  0.00    -0.361 OA 
HETATM   17  F   UNL     1     -10.615  10.786  69.130  1.00  0.00    -0.184 F  
HETATM   18  C   UNL     1     -10.527  12.914  68.087  1.00  0.00    -0.237 C  
HETATM   19  C   UNL     1     -10.483  11.583  68.057  1.00  0.00    -0.189 C  
BRANCH  15  20
HETATM   20  C   UNL     1     -10.368  15.124  66.970  1.00  0.00    -0.271 C  
HETATM   21  C   UNL     1      -8.183  15.887  67.363  1.00  0.00    -0.168 C  
HETATM   22  O   UNL     1      -9.181  15.673  66.363  1.00  0.00    -0.256 OA 
HETATM   23  C   UNL     1      -7.315  14.643  67.514  1.00  0.00    -0.220 C  
HETATM   24  C   UNL     1      -8.955  16.267  68.621  1.00  0.00    -0.232 C  
HETATM   25  O   UNL     1      -9.027  17.692  68.795  1.00  0.00    -0.276 OA 
HETATM   26  C   UNL     1     -10.371  15.721  68.396  1.00  0.00    -0.233 C  
HETATM   27  H   UNL     1      -9.508  17.929  69.580  1.00  0.00     0.000 HD 
HETATM   28  O   UNL     1     -11.370  16.747  68.499  1.00  0.00    -0.268 OA 
HETATM   29  H   UNL     1     -11.372  17.115  69.376  1.00  0.00     0.000 HD 
ENDBRANCH  15  20
ENDBRANCH   9  11
ENDBRANCH   6   7
ENDBRANCH   5   6
ENDBRANCH   4   5
ENDBRANCH   3   4
ENDBRANCH   2   3
TORSDOF 7
ENDMDL
MODEL      168
REMARK 921   NORMALIZED FREE ENERGY PREDICTED BY IDOCK:   -3.84 KCAL/MOL
REMARK 922        TOTAL FREE ENERGY PREDICTED BY IDOCK:   -6.51 KCAL/MOL
REMARK 923 INTER-LIGAND FREE ENERGY PREDICTED BY IDOCK:   -6.81 KCAL/MOL
REMARK 924 INTRA-LIGAND FREE ENERGY PREDICTED BY IDOCK:    0.30 KCAL/MOL
REMARK 927      BINDING AFFINITY PREDICTED BY RF-SCORE:    0.00 PKD
ROOT
HETATM    1  C   UNL     1      -9.664  18.988  68.352  1.00  0.00    -0.442 C  
HETATM    2  C   UNL     1      -8.791  18.569  67.174  1.00  0.00    -0.274 C  
ENDROOT
BRANCH   2   3
HETATM    3  C   UNL     1      -9.191  17.187  66.670  1.00  0.00    -0.280 C  
BRANCH   3   4
HETATM    4  C   UNL     1     -10.533  17.173  65.927  1.00  0.00    -0.265 C  
BRANCH   4   5
HETATM    5  C   UNL     1     -10.711  15.806  65.269  1.00  0.00    -0.428 C  
BRANCH   5   6
HETATM    6  O   UNL     1     -11.539  14.907  66.018  1.00  0.00    -0.323 OA 
BRANCH   6   7
HETATM    7  C   UNL     1     -10.903  13.763  66.377  1.00  0.00    -0.287 C  
HETATM    8  O   UNL     1      -9.738  13.520  66.108  1.00  0.00    -0.284 OA 
HETATM    9  N   UNL     1     -11.785  12.953  67.045  1.00  0.00    -0.371 N  
HETATM   10  H   UNL     1     -12.779  13.147  66.924  1.00  0.00     0.000 HD 
BRANCH   9  11
HETATM   11  C   UNL     1     -11.444  11.903  67.862  1.00  0.00    -0.316 C  
HETATM   12  N   UNL     1     -11.183  10.732  67.400  1.00  0.00    -0.296 N  
HETATM   13  C   UNL     1     -10.912   9.714  68.286  1.00  0.00    -0.121 C  
HETATM   14  H   UNL     1     -11.177  10.560  66.395  1.00  0.00     0.000 HD 
HETATM   15  N   UNL     1     -11.334   9.899  69.617  1.00  0.00    -0.206 N  
HETATM   16  O   UNL     1     -10.349   8.696  67.901  1.00  0.00    -0.215 OA 
HETATM   17  F   UNL     1     -11.506  13.522  69.676  1.00  0.00    -0.299 F  
HETATM   18  C   UNL     1     -11.412  11.194  70.115  1.00  0.00    -0.272 C  
HETATM   19  C   UNL     1     -11.413  12.239  69.289  1.00  0.00    -0.292 C  
BRANCH  15  20
HETATM   20  C   UNL     1     -11.372   8.748  70.531  1.00  0.00    -0.227 C  
HETATM   21  C   UNL     1      -9.221   8.400  71.402  1.00  0.00    -0.186 C  
HETATM   22  O   UNL     1     -10.510   8.956  71.667  1.00  0.00    -0.284 OA 
HETATM   23  C   UNL     1      -8.321   9.444  70.753  1.00  0.00    -0.180 C  
HETATM   24  C   UNL     1      -9.487   7.175  70.534  1.00  0.00    -0.162 C  
HETATM   25  O   UNL     1      -9.533   5.967  71.312  1.00  0.00    -0.162 OA 
HETATM   26  C   UNL     1     -10.869   7.422  69.916  1.00  0.00    -0.246 C  
HETATM   27  H   UNL     1      -9.698   5.204  70.770  1.00  0.00     0.000 HD 
HETATM   28  O   UNL     1     -11.791   6.360  70.207  1.00  0.00    -0.396 OA 
HETATM   29  H   UNL     1     -11.481   5.545  69.829  1.00  0.00     0.000 HD 
ENDBRANCH  15  20
ENDBRANCH   9  11
ENDBRANCH   6   7
ENDBRANCH   5   6
ENDBRANCH   4   5
ENDBRANCH   3   4
ENDBRANCH   2   3
TORSDOF 7
ENDMDL
MODEL      169
REMARK 921   NORMALIZED FREE ENERGY PREDICTED BY IDOCK:   -3.83 KCAL/MOL
REMARK 922        TOTAL FREE ENERGY PREDICTED BY IDOCK:   -6.50 KCAL/MOL
REMARK 923 INTER-LIGAND FREE ENERGY PREDICTED BY IDOCK:   -7.56 KCAL/MOL
REMARK 924 INTRA-LIGAND FREE ENERGY PREDICTED BY IDOCK:    1.06 KCAL/MOL
REMARK 927      BINDING AFFINITY PREDICTED BY RF-SCORE:    0.00 PKD
ROOT
HETATM    1  C   UNL     1     -13.007   6.889  71.519  1.00  0.00    -0.362 C  
HETATM    2  C   UNL     1     -14.350   7.609  71.484  1.00  0.00    -0.589 C  
ENDROOT
BRANCH   2   3
HETATM    3  C   UNL     1     -14.193   9.067  71.902  1.00  0.00    -0.357 C  
BRANCH   3   4
HETATM    4  C   UNL     1     -12.731   9.518  72.005  1.00  0.00    -0.479 C  
BRANCH   4   5
HETATM    5  C   UNL     1     -12.522  10.711  71.074  1.00  0.00    -0.413 C  
BRANCH   5   6
HETATM    6  O   UNL     1     -13.217  11.895  71.485  1.00  0.00    -0.358 OA 
BRANCH   6   7
HETATM    7  C   UNL     1     -12.544  13.039  71.204  1.00  0.00    -0.297 C  
HETATM    8  O   UNL     1     -12.289  13.899  72.031  1.00  0.00    -0.177 OA 
HETATM    9  N   UNL     1     -12.242  13.062  69.866  1.00  0.00    -0.248 N  
HETATM   10  H   UNL     1     -12.776  12.443  69.258  1.00  0.00     0.000 HD 
BRANCH   9  11
HETATM   11  C   UNL     1     -11.281  13.848  69.277  1.00  0.00    -0.251 C  
HETATM   12  N   UNL     1     -10.241  13.348  68.711  1.00  0.00    -0.396 N  
HETATM   13  C   UNL     1      -9.290  14.202  68.198  1.00  0.00    -0.206 C  
HETATM   14  H   UNL     1     -10.122  12.338  68.643  1.00  0.00     0.000 HD 
HETATM   15  N   UNL     1      -9.298  15.526  68.678  1.00  0.00    -0.192 N  
HETATM   16  O   UNL     1      -8.472  13.793  67.382  1.00  0.00    -0.181 OA 
HETATM   17  F   UNL     1     -12.745  15.721  69.793  1.00  0.00    -0.327 F  
HETATM   18  C   UNL     1     -10.505  16.072  69.101  1.00  0.00    -0.251 C  
HETATM   19  C   UNL     1     -11.550  15.287  69.361  1.00  0.00    -0.330 C  
BRANCH  15  20
HETATM   20  C   UNL     1      -8.138  16.394  68.430  1.00  0.00    -0.188 C  
HETATM   21  C   UNL     1      -8.875  18.375  67.409  1.00  0.00    -0.257 C  
HETATM   22  O   UNL     1      -8.468  17.780  68.643  1.00  0.00    -0.298 OA 
HETATM   23  C   UNL     1     -10.381  18.228  67.226  1.00  0.00    -0.407 C  
HETATM   24  C   UNL     1      -8.044  17.677  66.339  1.00  0.00    -0.267 C  
HETATM   25  O   UNL     1      -6.875  18.437  65.989  1.00  0.00    -0.230 OA 
HETATM   26  C   UNL     1      -7.605  16.354  66.979  1.00  0.00    -0.205 C  
HETATM   27  H   UNL     1      -6.357  18.002  65.322  1.00  0.00     0.000 HD 
HETATM   28  O   UNL     1      -6.177  16.200  66.981  1.00  0.00    -0.292 OA 
HETATM   29  H   UNL     1      -5.849  16.176  66.090  1.00  0.00     0.000 HD 
ENDBRANCH  15  20
ENDBRANCH   9  11
ENDBRANCH   6   7
ENDBRANCH   5   6
ENDBRANCH   4   5
ENDBRANCH   3   4
ENDBRANCH   2   3
TORSDOF 7
ENDMDL
MODEL      170
REMARK 921   NORMALIZED FREE ENERGY PREDICTED BY IDOCK:   -3.82 KCAL/MOL
REMARK 922        TOTAL FREE ENERGY PREDICTED BY IDOCK:   -6.48 KCAL/MOL
REMARK 923 INTER-LIGAND FREE ENERGY PREDICTED BY IDOCK:   -5.55 KCAL/MOL
REMARK 924 INTRA-LIGAND FREE ENERGY PREDICTED BY IDOCK:   -0.93 KCAL/MOL
REMARK 927      BINDING AFFINITY PREDICTED BY RF-SCORE:    0.00 PKD
ROOT
HETATM    1  C   UNL     1      -6.560   3.739  70.155  1.00  0.00    -0.033 C  
HETATM    2  C   UNL     1      -7.675   2.858  69.603  1.00  0.00    -0.045 C  
ENDROOT
BRANCH   2   3
HETATM    3  C   UNL     1      -9.040   3.383  70.034  1.00  0.00    -0.199 C  
BRANCH   3   4
HETATM    4  C   UNL     1      -9.266   4.858  69.683  1.00  0.00    -0.172 C  
BRANCH   4   5
HETATM    5  C   UNL     1      -9.457   4.977  68.172  1.00  0.00    -0.132 C  
BRANCH   5   6
HETATM    6  O   UNL     1      -8.391   5.665  67.506  1.00  0.00    -0.102 OA 
BRANCH   6   7
HETATM    7  C   UNL     1      -8.816   6.468  66.498  1.00  0.00    -0.138 C  
HETATM    8  O   UNL     1      -9.098   6.066  65.382  1.00  0.00    -0.050 OA 
HETATM    9  N   UNL     1      -8.840   7.766  66.942  1.00  0.00    -0.126 N  
HETATM   10  H   UNL     1      -8.294   7.983  67.776  1.00  0.00     0.000 HD 
BRANCH   9  11
HETATM   11  C   UNL     1      -9.536   8.797  66.359  1.00  0.00    -0.228 C  
HETATM   12  N   UNL     1      -9.346   9.146  65.137  1.00  0.00    -0.445 N  
HETATM   13  C   UNL     1     -10.035  10.230  64.642  1.00  0.00    -0.307 C  
HETATM   14  H   UNL     1      -8.697   8.629  64.544  1.00  0.00     0.000 HD 
HETATM   15  N   UNL     1     -10.572  11.128  65.585  1.00  0.00    -0.248 N  
HETATM   16  O   UNL     1     -10.138  10.394  63.432  1.00  0.00    -0.200 OA 
HETATM   17  F   UNL     1     -10.774   8.911  68.450  1.00  0.00    -0.239 F  
HETATM   18  C   UNL     1     -10.935  10.639  66.835  1.00  0.00    -0.161 C  
HETATM   19  C   UNL     1     -10.494   9.454  67.254  1.00  0.00    -0.264 C  
BRANCH  15  20
HETATM   20  C   UNL     1     -11.031  12.454  65.145  1.00  0.00    -0.302 C  
HETATM   21  C   UNL     1      -9.768  14.098  66.246  1.00  0.00    -0.297 C  
HETATM   22  O   UNL     1      -9.927  13.373  65.025  1.00  0.00    -0.253 OA 
HETATM   23  C   UNL     1      -8.817  13.356  67.178  1.00  0.00    -0.225 C  
HETATM   24  C   UNL     1     -11.180  14.264  66.796  1.00  0.00    -0.332 C  
HETATM   25  O   UNL     1     -11.744  15.539  66.446  1.00  0.00     0.074 OA 
HETATM   26  C   UNL     1     -12.000  13.156  66.123  1.00  0.00    -0.422 C  
HETATM   27  H   UNL     1     -12.624  15.643  66.790  1.00  0.00     0.000 HD 
HETATM   28  O   UNL     1     -13.132  13.677  65.409  1.00  0.00    -0.704 OA 
HETATM   29  H   UNL     1     -13.727  14.109  66.010  1.00  0.00     0.000 HD 
ENDBRANCH  15  20
ENDBRANCH   9  11
ENDBRANCH   6   7
ENDBRANCH   5   6
ENDBRANCH   4   5
ENDBRANCH   3   4
ENDBRANCH   2   3
TORSDOF 7
ENDMDL
MODEL      171
REMARK 921   NORMALIZED FREE ENERGY PREDICTED BY IDOCK:   -3.80 KCAL/MOL
REMARK 922        TOTAL FREE ENERGY PREDICTED BY IDOCK:   -6.45 KCAL/MOL
REMARK 923 INTER-LIGAND FREE ENERGY PREDICTED BY IDOCK:   -5.85 KCAL/MOL
REMARK 924 INTRA-LIGAND FREE ENERGY PREDICTED BY IDOCK:   -0.60 KCAL/MOL
REMARK 927      BINDING AFFINITY PREDICTED BY RF-SCORE:    0.00 PKD
ROOT
HETATM    1  C   UNL     1     -10.673   7.387  67.688  1.00  0.00    -0.278 C  
HETATM    2  C   UNL     1      -9.985   8.650  68.193  1.00  0.00    -0.210 C  
ENDROOT
BRANCH   2   3
HETATM    3  C   UNL     1      -9.715   9.614  67.043  1.00  0.00    -0.232 C  
BRANCH   3   4
HETATM    4  C   UNL     1     -10.668  10.815  67.017  1.00  0.00    -0.320 C  
BRANCH   4   5
HETATM    5  C   UNL     1     -11.101  11.125  68.449  1.00  0.00    -0.247 C  
BRANCH   5   6
HETATM    6  O   UNL     1     -11.762  12.389  68.593  1.00  0.00    -0.292 OA 
BRANCH   6   7
HETATM    7  C   UNL     1     -11.281  13.346  67.760  1.00  0.00    -0.279 C  
HETATM    8  O   UNL     1     -11.763  13.602  66.669  1.00  0.00    -0.348 OA 
HETATM    9  N   UNL     1     -10.181  13.928  68.337  1.00  0.00    -0.239 N  
HETATM   10  H   UNL     1      -9.722  13.413  69.088  1.00  0.00     0.000 HD 
BRANCH   9  11
HETATM   11  C   UNL     1      -9.646  15.144  67.990  1.00  0.00    -0.204 C  
HETATM   12  N   UNL     1      -8.907  15.295  66.948  1.00  0.00    -0.235 N  
HETATM   13  C   UNL     1      -8.353  16.531  66.701  1.00  0.00    -0.262 C  
HETATM   14  H   UNL     1      -8.733  14.513  66.317  1.00  0.00     0.000 HD 
HETATM   15  N   UNL     1      -8.281  17.425  67.787  1.00  0.00    -0.213 N  
HETATM   16  O   UNL     1      -7.930  16.803  65.583  1.00  0.00    -0.155 OA 
HETATM   17  F   UNL     1     -10.917  16.041  69.860  1.00  0.00    -0.250 F  
HETATM   18  C   UNL     1      -9.235  17.327  68.793  1.00  0.00    -0.238 C  
HETATM   19  C   UNL     1      -9.987  16.234  68.910  1.00  0.00    -0.248 C  
BRANCH  15  20
HETATM   20  C   UNL     1      -7.427  18.618  67.687  1.00  0.00    -0.229 C  
HETATM   21  C   UNL     1      -5.571  18.343  69.098  1.00  0.00    -0.210 C  
HETATM   22  O   UNL     1      -6.030  18.265  67.747  1.00  0.00    -0.160 OA 
HETATM   23  C   UNL     1      -5.758  17.000  69.795  1.00  0.00    -0.213 C  
HETATM   24  C   UNL     1      -6.363  19.486  69.722  1.00  0.00    -0.310 C  
HETATM   25  O   UNL     1      -5.626  20.721  69.702  1.00  0.00    -0.351 OA 
HETATM   26  C   UNL     1      -7.607  19.635  68.837  1.00  0.00    -0.309 C  
HETATM   27  H   UNL     1      -6.120  21.433  70.091  1.00  0.00     0.000 HD 
HETATM   28  O   UNL     1      -7.739  20.963  68.306  1.00  0.00     0.177 OA 
HETATM   29  H   UNL     1      -7.850  21.588  69.013  1.00  0.00     0.000 HD 
ENDBRANCH  15  20
ENDBRANCH   9  11
ENDBRANCH   6   7
ENDBRANCH   5   6
ENDBRANCH   4   5
ENDBRANCH   3   4
ENDBRANCH   2   3
TORSDOF 7
ENDMDL
MODEL      172
REMARK 921   NORMALIZED FREE ENERGY PREDICTED BY IDOCK:   -3.78 KCAL/MOL
REMARK 922        TOTAL FREE ENERGY PREDICTED BY IDOCK:   -6.43 KCAL/MOL
REMARK 923 INTER-LIGAND FREE ENERGY PREDICTED BY IDOCK:   -6.62 KCAL/MOL
REMARK 924 INTRA-LIGAND FREE ENERGY PREDICTED BY IDOCK:    0.20 KCAL/MOL
REMARK 927      BINDING AFFINITY PREDICTED BY RF-SCORE:    0.00 PKD
ROOT
HETATM    1  C   UNL     1     -12.400  15.424  74.223  1.00  0.00    -0.807 C  
HETATM    2  C   UNL     1     -12.222  16.031  72.836  1.00  0.00    -0.621 C  
ENDROOT
BRANCH   2   3
HETATM    3  C   UNL     1     -12.811  15.117  71.767  1.00  0.00    -0.432 C  
BRANCH   3   4
HETATM    4  C   UNL     1     -13.468  13.855  72.337  1.00  0.00    -0.661 C  
BRANCH   4   5
HETATM    5  C   UNL     1     -13.048  12.659  71.486  1.00  0.00    -0.278 C  
BRANCH   5   6
HETATM    6  O   UNL     1     -12.129  12.989  70.436  1.00  0.00    -0.359 OA 
BRANCH   6   7
HETATM    7  C   UNL     1     -11.838  11.940  69.627  1.00  0.00    -0.337 C  
HETATM    8  O   UNL     1     -12.657  11.110  69.267  1.00  0.00    -0.336 OA 
HETATM    9  N   UNL     1     -10.501  11.967  69.324  1.00  0.00    -0.430 N  
HETATM   10  H   UNL     1      -9.897  12.522  69.931  1.00  0.00     0.000 HD 
BRANCH   9  11
HETATM   11  C   UNL     1      -9.905  11.312  68.274  1.00  0.00    -0.197 C  
HETATM   12  N   UNL     1     -10.202  10.100  67.966  1.00  0.00    -0.164 N  
HETATM   13  C   UNL     1      -9.516   9.489  66.940  1.00  0.00    -0.158 C  
HETATM   14  H   UNL     1     -10.932   9.600  68.472  1.00  0.00     0.000 HD 
HETATM   15  N   UNL     1      -8.280  10.056  66.574  1.00  0.00    -0.118 N  
HETATM   16  O   UNL     1      -9.973   8.485  66.406  1.00  0.00    -0.269 OA 
HETATM   17  F   UNL     1      -8.796  13.428  67.812  1.00  0.00    -0.161 F  
HETATM   18  C   UNL     1      -8.094  11.421  66.761  1.00  0.00    -0.161 C  
HETATM   19  C   UNL     1      -8.910  12.114  67.555  1.00  0.00    -0.175 C  
BRANCH  15  20
HETATM   20  C   UNL     1      -7.354   9.290  65.727  1.00  0.00    -0.094 C  
HETATM   21  C   UNL     1      -7.880   9.688  63.474  1.00  0.00    -0.136 C  
HETATM   22  O   UNL     1      -6.996  10.031  64.544  1.00  0.00    -0.130 OA 
HETATM   23  C   UNL     1      -9.089  10.616  63.473  1.00  0.00    -0.252 C  
HETATM   24  C   UNL     1      -8.219   8.218  63.695  1.00  0.00    -0.082 C  
HETATM   25  O   UNL     1      -7.388   7.352  62.905  1.00  0.00    -0.079 OA 
HETATM   26  C   UNL     1      -7.932   7.964  65.180  1.00  0.00    -0.132 C  
HETATM   27  H   UNL     1      -7.599   6.436  63.042  1.00  0.00     0.000 HD 
HETATM   28  O   UNL     1      -6.991   6.897  65.376  1.00  0.00    -0.056 OA 
HETATM   29  H   UNL     1      -7.346   6.083  65.039  1.00  0.00     0.000 HD 
ENDBRANCH  15  20
ENDBRANCH   9  11
ENDBRANCH   6   7
ENDBRANCH   5   6
ENDBRANCH   4   5
ENDBRANCH   3   4
ENDBRANCH   2   3
TORSDOF 7
ENDMDL
MODEL      173
REMARK 921   NORMALIZED FREE ENERGY PREDICTED BY IDOCK:   -3.77 KCAL/MOL
REMARK 922        TOTAL FREE ENERGY PREDICTED BY IDOCK:   -6.41 KCAL/MOL
REMARK 923 INTER-LIGAND FREE ENERGY PREDICTED BY IDOCK:   -5.29 KCAL/MOL
REMARK 924 INTRA-LIGAND FREE ENERGY PREDICTED BY IDOCK:   -1.12 KCAL/MOL
REMARK 927      BINDING AFFINITY PREDICTED BY RF-SCORE:    0.00 PKD
ROOT
HETATM    1  C   UNL     1     -12.052  11.002  69.688  1.00  0.00    -0.411 C  
HETATM    2  C   UNL     1     -12.544  11.691  70.956  1.00  0.00    -0.431 C  
ENDROOT
BRANCH   2   3
HETATM    3  C   UNL     1     -13.151  10.678  71.920  1.00  0.00    -0.563 C  
BRANCH   3   4
HETATM    4  C   UNL     1     -13.760   9.457  71.220  1.00  0.00    -0.248 C  
BRANCH   4   5
HETATM    5  C   UNL     1     -13.167   8.194  71.840  1.00  0.00    -0.325 C  
BRANCH   5   6
HETATM    6  O   UNL     1     -12.056   8.442  72.711  1.00  0.00    -0.354 OA 
BRANCH   6   7
HETATM    7  C   UNL     1     -10.933   7.767  72.357  1.00  0.00    -0.311 C  
HETATM    8  O   UNL     1     -10.342   6.997  73.095  1.00  0.00    -0.224 OA 
HETATM    9  N   UNL     1     -10.585   8.120  71.079  1.00  0.00    -0.208 N  
HETATM   10  H   UNL     1     -10.981   8.985  70.710  1.00  0.00     0.000 HD 
BRANCH   9  11
HETATM   11  C   UNL     1      -9.749   7.409  70.253  1.00  0.00    -0.172 C  
HETATM   12  N   UNL     1      -8.469   7.522  70.313  1.00  0.00    -0.137 N  
HETATM   13  C   UNL     1      -7.699   6.825  69.409  1.00  0.00    -0.105 C  
HETATM   14  H   UNL     1      -8.033   8.116  71.017  1.00  0.00     0.000 HD 
HETATM   15  N   UNL     1      -8.341   6.374  68.239  1.00  0.00    -0.116 N  
HETATM   16  O   UNL     1      -6.507   6.642  69.628  1.00  0.00    -0.040 OA 
HETATM   17  F   UNL     1     -11.765   6.322  69.436  1.00  0.00    -0.486 F  
HETATM   18  C   UNL     1      -9.700   6.088  68.295  1.00  0.00    -0.124 C  
HETATM   19  C   UNL     1     -10.445   6.530  69.308  1.00  0.00    -0.219 C  
BRANCH  15  20
HETATM   20  C   UNL     1      -7.532   5.917  67.100  1.00  0.00    -0.084 C  
HETATM   21  C   UNL     1      -7.867   7.381  65.295  1.00  0.00    -0.121 C  
HETATM   22  O   UNL     1      -6.987   7.031  66.366  1.00  0.00    -0.065 OA 
HETATM   23  C   UNL     1      -8.883   8.415  65.765  1.00  0.00    -0.204 C  
HETATM   24  C   UNL     1      -8.481   6.062  64.840  1.00  0.00    -0.059 C  
HETATM   25  O   UNL     1      -7.786   5.510  63.709  1.00  0.00    -0.089 OA 
HETATM   26  C   UNL     1      -8.318   5.115  66.035  1.00  0.00    -0.116 C  
HETATM   27  H   UNL     1      -8.170   4.688  63.425  1.00  0.00     0.000 HD 
HETATM   28  O   UNL     1      -7.600   3.921  65.688  1.00  0.00    -0.080 OA 
HETATM   29  H   UNL     1      -8.082   3.429  65.033  1.00  0.00     0.000 HD 
ENDBRANCH  15  20
ENDBRANCH   9  11
ENDBRANCH   6   7
ENDBRANCH   5   6
ENDBRANCH   4   5
ENDBRANCH   3   4
ENDBRANCH   2   3
TORSDOF 7
ENDMDL
MODEL      174
REMARK 921   NORMALIZED FREE ENERGY PREDICTED BY IDOCK:   -3.75 KCAL/MOL
REMARK 922        TOTAL FREE ENERGY PREDICTED BY IDOCK:   -6.38 KCAL/MOL
REMARK 923 INTER-LIGAND FREE ENERGY PREDICTED BY IDOCK:   -5.29 KCAL/MOL
REMARK 924 INTRA-LIGAND FREE ENERGY PREDICTED BY IDOCK:   -1.09 KCAL/MOL
REMARK 927      BINDING AFFINITY PREDICTED BY RF-SCORE:    0.00 PKD
ROOT
HETATM    1  C   UNL     1     -12.014  12.399  69.753  1.00  0.00    -0.359 C  
HETATM    2  C   UNL     1     -10.988  12.781  68.693  1.00  0.00    -0.295 C  
ENDROOT
BRANCH   2   3
HETATM    3  C   UNL     1     -11.045  14.276  68.399  1.00  0.00    -0.274 C  
BRANCH   3   4
HETATM    4  C   UNL     1     -11.576  14.604  66.999  1.00  0.00    -0.385 C  
BRANCH   4   5
HETATM    5  C   UNL     1     -11.648  13.311  66.189  1.00  0.00    -0.348 C  
BRANCH   5   6
HETATM    6  O   UNL     1     -10.894  13.348  64.971  1.00  0.00    -0.298 OA 
BRANCH   6   7
HETATM    7  C   UNL     1     -10.571  12.117  64.501  1.00  0.00    -0.310 C  
HETATM    8  O   UNL     1     -10.701  11.778  63.337  1.00  0.00    -0.391 OA 
HETATM    9  N   UNL     1     -10.117  11.347  65.542  1.00  0.00    -0.236 N  
HETATM   10  H   UNL     1     -10.352  11.654  66.486  1.00  0.00     0.000 HD 
BRANCH   9  11
HETATM   11  C   UNL     1      -9.373  10.198  65.422  1.00  0.00    -0.216 C  
HETATM   12  N   UNL     1      -9.203   9.608  64.292  1.00  0.00    -0.385 N  
HETATM   13  C   UNL     1      -8.498   8.426  64.261  1.00  0.00    -0.019 C  
HETATM   14  H   UNL     1      -9.583  10.008  63.435  1.00  0.00     0.000 HD 
HETATM   15  N   UNL     1      -8.368   7.729  65.479  1.00  0.00    -0.143 N  
HETATM   16  O   UNL     1      -8.037   8.011  63.204  1.00  0.00    -0.157 OA 
HETATM   17  F   UNL     1      -8.866  10.488  67.783  1.00  0.00    -0.123 F  
HETATM   18  C   UNL     1      -8.370   8.457  66.664  1.00  0.00    -0.110 C  
HETATM   19  C   UNL     1      -8.808   9.716  66.686  1.00  0.00    -0.138 C  
BRANCH  15  20
HETATM   20  C   UNL     1      -7.921   6.329  65.469  1.00  0.00    -0.115 C  
HETATM   21  C   UNL     1      -9.638   4.978  66.326  1.00  0.00    -0.166 C  
HETATM   22  O   UNL     1      -9.003   5.439  65.132  1.00  0.00    -0.147 OA 
HETATM   23  C   UNL     1     -10.770   5.920  66.717  1.00  0.00    -0.371 C  
HETATM   24  C   UNL     1      -8.520   4.880  67.358  1.00  0.00    -0.105 C  
HETATM   25  O   UNL     1      -8.000   3.545  67.460  1.00  0.00    -0.080 OA 
HETATM   26  C   UNL     1      -7.416   5.806  66.834  1.00  0.00    -0.084 C  
HETATM   27  H   UNL     1      -7.303   3.484  68.103  1.00  0.00     0.000 HD 
HETATM   28  O   UNL     1      -6.165   5.119  66.667  1.00  0.00    -0.033 OA 
HETATM   29  H   UNL     1      -5.855   4.798  67.506  1.00  0.00     0.000 HD 
ENDBRANCH  15  20
ENDBRANCH   9  11
ENDBRANCH   6   7
ENDBRANCH   5   6
ENDBRANCH   4   5
ENDBRANCH   3   4
ENDBRANCH   2   3
TORSDOF 7
ENDMDL
MODEL      175
REMARK 921   NORMALIZED FREE ENERGY PREDICTED BY IDOCK:   -3.74 KCAL/MOL
REMARK 922        TOTAL FREE ENERGY PREDICTED BY IDOCK:   -6.38 KCAL/MOL
REMARK 923 INTER-LIGAND FREE ENERGY PREDICTED BY IDOCK:   -6.37 KCAL/MOL
REMARK 924 INTRA-LIGAND FREE ENERGY PREDICTED BY IDOCK:   -0.01 KCAL/MOL
REMARK 927      BINDING AFFINITY PREDICTED BY RF-SCORE:    0.00 PKD
ROOT
HETATM    1  C   UNL     1      -7.318   9.722  68.923  1.00  0.00    -0.073 C  
HETATM    2  C   UNL     1      -7.355   8.416  68.137  1.00  0.00    -0.096 C  
ENDROOT
BRANCH   2   3
HETATM    3  C   UNL     1      -8.791   7.940  67.949  1.00  0.00    -0.123 C  
BRANCH   3   4
HETATM    4  C   UNL     1      -9.298   8.083  66.509  1.00  0.00    -0.261 C  
BRANCH   4   5
HETATM    5  C   UNL     1     -10.379   9.162  66.478  1.00  0.00    -0.199 C  
BRANCH   5   6
HETATM    6  O   UNL     1     -10.923   9.475  67.766  1.00  0.00    -0.244 OA 
BRANCH   6   7
HETATM    7  C   UNL     1     -11.281  10.778  67.897  1.00  0.00    -0.318 C  
HETATM    8  O   UNL     1     -12.221  11.159  68.574  1.00  0.00    -0.600 OA 
HETATM    9  N   UNL     1     -10.441  11.550  67.136  1.00  0.00    -0.215 N  
HETATM   10  H   UNL     1      -9.915  11.079  66.400  1.00  0.00     0.000 HD 
BRANCH   9  11
HETATM   11  C   UNL     1     -10.248  12.902  67.280  1.00  0.00    -0.234 C  
HETATM   12  N   UNL     1     -11.198  13.696  67.626  1.00  0.00    -0.269 N  
HETATM   13  C   UNL     1     -10.944  15.048  67.688  1.00  0.00    -0.305 C  
HETATM   14  H   UNL     1     -12.123  13.332  67.851  1.00  0.00     0.000 HD 
HETATM   15  N   UNL     1      -9.816  15.516  66.984  1.00  0.00    -0.230 N  
HETATM   16  O   UNL     1     -11.694  15.788  68.313  1.00  0.00    -0.345 OA 
HETATM   17  F   UNL     1      -7.902  12.438  66.834  1.00  0.00    -0.162 F  
HETATM   18  C   UNL     1      -8.738  14.657  66.810  1.00  0.00    -0.203 C  
HETATM   19  C   UNL     1      -8.879  13.345  66.999  1.00  0.00    -0.211 C  
BRANCH  15  20
HETATM   20  C   UNL     1      -9.665  16.957  66.737  1.00  0.00    -0.266 C  
HETATM   21  C   UNL     1      -7.930  17.781  68.087  1.00  0.00    -0.263 C  
HETATM   22  O   UNL     1      -8.278  17.349  66.770  1.00  0.00    -0.220 OA 
HETATM   23  C   UNL     1      -7.432  16.601  68.913  1.00  0.00    -0.232 C  
HETATM   24  C   UNL     1      -9.190  18.441  68.634  1.00  0.00    -0.306 C  
HETATM   25  O   UNL     1      -9.162  19.869  68.468  1.00  0.00    -0.287 OA 
HETATM   26  C   UNL     1     -10.336  17.865  67.794  1.00  0.00    -0.387 C  
HETATM   27  H   UNL     1      -9.947  20.280  68.810  1.00  0.00     0.000 HD 
HETATM   28  O   UNL     1     -11.104  18.891  67.147  1.00  0.00    -0.321 OA 
HETATM   29  H   UNL     1     -11.516  19.449  67.797  1.00  0.00     0.000 HD 
ENDBRANCH  15  20
ENDBRANCH   9  11
ENDBRANCH   6   7
ENDBRANCH   5   6
ENDBRANCH   4   5
ENDBRANCH   3   4
ENDBRANCH   2   3
TORSDOF 7
ENDMDL
MODEL      176
REMARK 921   NORMALIZED FREE ENERGY PREDICTED BY IDOCK:   -3.74 KCAL/MOL
REMARK 922        TOTAL FREE ENERGY PREDICTED BY IDOCK:   -6.37 KCAL/MOL
REMARK 923 INTER-LIGAND FREE ENERGY PREDICTED BY IDOCK:   -5.30 KCAL/MOL
REMARK 924 INTRA-LIGAND FREE ENERGY PREDICTED BY IDOCK:   -1.07 KCAL/MOL
REMARK 927      BINDING AFFINITY PREDICTED BY RF-SCORE:    0.00 PKD
ROOT
HETATM    1  C   UNL     1      -9.332   9.265  70.455  1.00  0.00    -0.295 C  
HETATM    2  C   UNL     1     -10.625   9.519  71.220  1.00  0.00    -0.358 C  
ENDROOT
BRANCH   2   3
HETATM    3  C   UNL     1     -11.461  10.590  70.528  1.00  0.00    -0.433 C  
BRANCH   3   4
HETATM    4  C   UNL     1     -10.776  11.199  69.299  1.00  0.00    -0.241 C  
BRANCH   4   5
HETATM    5  C   UNL     1     -11.216  12.656  69.167  1.00  0.00    -0.243 C  
BRANCH   5   6
HETATM    6  O   UNL     1     -11.796  13.196  70.361  1.00  0.00    -0.290 OA 
BRANCH   6   7
HETATM    7  C   UNL     1     -11.493  14.503  70.563  1.00  0.00    -0.185 C  
HETATM    8  O   UNL     1     -11.729  15.104  71.598  1.00  0.00    -0.346 OA 
HETATM    9  N   UNL     1     -10.923  15.010  69.423  1.00  0.00    -0.255 N  
HETATM   10  H   UNL     1     -11.072  14.491  68.557  1.00  0.00     0.000 HD 
BRANCH   9  11
HETATM   11  C   UNL     1     -10.170  16.156  69.347  1.00  0.00    -0.266 C  
HETATM   12  N   UNL     1     -10.601  17.288  69.777  1.00  0.00    -0.233 N  
HETATM   13  C   UNL     1      -9.813  18.405  69.609  1.00  0.00     0.443 C  
HETATM   14  H   UNL     1     -11.510  17.359  70.234  1.00  0.00     0.000 HD 
HETATM   15  N   UNL     1      -8.800  18.329  68.632  1.00  0.00    -0.304 N  
HETATM   16  O   UNL     1     -10.023  19.413  70.274  1.00  0.00     0.435 OA 
HETATM   17  F   UNL     1      -8.399  14.726  68.489  1.00  0.00    -0.133 F  
HETATM   18  C   UNL     1      -8.241  17.087  68.351  1.00  0.00    -0.250 C  
HETATM   19  C   UNL     1      -8.851  15.967  68.734  1.00  0.00    -0.213 C  
BRANCH  15  20
HETATM   20  C   UNL     1      -8.142  19.561  68.174  1.00  0.00    -0.319 C  
HETATM   21  C   UNL     1      -9.103  20.221  66.137  1.00  0.00    -0.132 C  
HETATM   22  O   UNL     1      -9.084  20.453  67.547  1.00  0.00    -0.353 OA 
HETATM   23  C   UNL     1     -10.144  19.164  65.791  1.00  0.00    -0.174 C  
HETATM   24  C   UNL     1      -7.673  19.832  65.779  1.00  0.00    -0.258 C  
HETATM   25  O   UNL     1      -6.917  20.955  65.297  1.00  0.00    -0.519 OA 
HETATM   26  C   UNL     1      -7.055  19.345  67.096  1.00  0.00    -0.199 C  
HETATM   27  H   UNL     1      -6.026  20.712  65.073  1.00  0.00     0.000 HD 
HETATM   28  O   UNL     1      -5.866  20.075  67.440  1.00  0.00    -0.178 OA 
HETATM   29  H   UNL     1      -5.198  19.942  66.777  1.00  0.00     0.000 HD 
ENDBRANCH  15  20
ENDBRANCH   9  11
ENDBRANCH   6   7
ENDBRANCH   5   6
ENDBRANCH   4   5
ENDBRANCH   3   4
ENDBRANCH   2   3
TORSDOF 7
ENDMDL
MODEL      177
REMARK 921   NORMALIZED FREE ENERGY PREDICTED BY IDOCK:   -3.73 KCAL/MOL
REMARK 922        TOTAL FREE ENERGY PREDICTED BY IDOCK:   -6.36 KCAL/MOL
REMARK 923 INTER-LIGAND FREE ENERGY PREDICTED BY IDOCK:   -5.43 KCAL/MOL
REMARK 924 INTRA-LIGAND FREE ENERGY PREDICTED BY IDOCK:   -0.93 KCAL/MOL
REMARK 927      BINDING AFFINITY PREDICTED BY RF-SCORE:    0.00 PKD
ROOT
HETATM    1  C   UNL     1     -13.063   7.408  72.015  1.00  0.00    -0.192 C  
HETATM    2  C   UNL     1     -13.262   8.892  72.301  1.00  0.00    -0.498 C  
ENDROOT
BRANCH   2   3
HETATM    3  C   UNL     1     -12.837   9.735  71.103  1.00  0.00    -0.434 C  
BRANCH   3   4
HETATM    4  C   UNL     1     -11.692   9.113  70.295  1.00  0.00    -0.047 C  
BRANCH   4   5
HETATM    5  C   UNL     1     -11.427   9.989  69.072  1.00  0.00    -0.012 C  
BRANCH   5   6
HETATM    6  O   UNL     1     -11.659  11.385  69.298  1.00  0.00    -0.257 OA 
BRANCH   6   7
HETATM    7  C   UNL     1     -11.022  12.187  68.408  1.00  0.00    -0.235 C  
HETATM    8  O   UNL     1     -11.106  12.060  67.197  1.00  0.00    -0.257 OA 
HETATM    9  N   UNL     1     -10.276  13.111  69.094  1.00  0.00    -0.420 N  
HETATM   10  H   UNL     1     -10.062  12.905  70.069  1.00  0.00     0.000 HD 
BRANCH   9  11
HETATM   11  C   UNL     1      -9.792  14.289  68.580  1.00  0.00    -0.231 C  
HETATM   12  N   UNL     1      -9.060  14.325  67.523  1.00  0.00    -0.185 N  
HETATM   13  C   UNL     1      -8.559  15.538  67.104  1.00  0.00    -0.215 C  
HETATM   14  H   UNL     1      -8.854  13.472  67.005  1.00  0.00     0.000 HD 
HETATM   15  N   UNL     1      -8.524  16.576  68.057  1.00  0.00    -0.182 N  
HETATM   16  O   UNL     1      -8.148  15.671  65.958  1.00  0.00     0.168 OA 
HETATM   17  F   UNL     1     -11.100  15.381  70.316  1.00  0.00    -0.236 F  
HETATM   18  C   UNL     1      -9.474  16.577  69.072  1.00  0.00    -0.249 C  
HETATM   19  C   UNL     1     -10.179  15.480  69.342  1.00  0.00    -0.262 C  
BRANCH  15  20
HETATM   20  C   UNL     1      -7.721  17.777  67.789  1.00  0.00    -0.214 C  
HETATM   21  C   UNL     1      -5.744  17.666  69.050  1.00  0.00    -0.183 C  
HETATM   22  O   UNL     1      -6.314  17.467  67.754  1.00  0.00    -0.144 OA 
HETATM   23  C   UNL     1      -5.827  16.379  69.863  1.00  0.00    -0.199 C  
HETATM   24  C   UNL     1      -6.517  18.835  69.648  1.00  0.00    -0.188 C  
HETATM   25  O   UNL     1      -5.825  20.082  69.467  1.00  0.00    -0.260 OA 
HETATM   26  C   UNL     1      -7.836  18.880  68.867  1.00  0.00    -0.279 C  
HETATM   27  H   UNL     1      -6.307  20.812  69.841  1.00  0.00     0.000 HD 
HETATM   28  O   UNL     1      -8.057  20.156  68.247  1.00  0.00    -0.215 OA 
HETATM   29  H   UNL     1      -8.127  20.834  68.909  1.00  0.00     0.000 HD 
ENDBRANCH  15  20
ENDBRANCH   9  11
ENDBRANCH   6   7
ENDBRANCH   5   6
ENDBRANCH   4   5
ENDBRANCH   3   4
ENDBRANCH   2   3
TORSDOF 7
ENDMDL
MODEL      178
REMARK 921   NORMALIZED FREE ENERGY PREDICTED BY IDOCK:   -3.73 KCAL/MOL
REMARK 922        TOTAL FREE ENERGY PREDICTED BY IDOCK:   -6.35 KCAL/MOL
REMARK 923 INTER-LIGAND FREE ENERGY PREDICTED BY IDOCK:   -6.92 KCAL/MOL
REMARK 924 INTRA-LIGAND FREE ENERGY PREDICTED BY IDOCK:    0.57 KCAL/MOL
REMARK 927      BINDING AFFINITY PREDICTED BY RF-SCORE:    0.00 PKD
ROOT
HETATM    1  C   UNL     1     -10.111  17.911  67.428  1.00  0.00    -0.341 C  
HETATM    2  C   UNL     1      -8.851  18.065  66.585  1.00  0.00    -0.280 C  
ENDROOT
BRANCH   2   3
HETATM    3  C   UNL     1      -8.224  16.705  66.297  1.00  0.00    -0.365 C  
BRANCH   3   4
HETATM    4  C   UNL     1      -7.684  16.004  67.549  1.00  0.00    -0.176 C  
BRANCH   4   5
HETATM    5  C   UNL     1      -8.348  14.634  67.666  1.00  0.00    -0.177 C  
BRANCH   5   6
HETATM    6  O   UNL     1      -7.433  13.536  67.559  1.00  0.00    -0.163 OA 
BRANCH   6   7
HETATM    7  C   UNL     1      -7.719  12.513  68.405  1.00  0.00    -0.136 C  
HETATM    8  O   UNL     1      -7.035  12.220  69.371  1.00  0.00    -0.050 OA 
HETATM    9  N   UNL     1      -8.855  11.880  67.971  1.00  0.00    -0.170 N  
HETATM   10  H   UNL     1      -9.134  12.035  67.003  1.00  0.00     0.000 HD 
BRANCH   9  11
HETATM   11  C   UNL     1      -9.650  11.056  68.730  1.00  0.00    -0.187 C  
HETATM   12  N   UNL     1     -10.786  11.439  69.196  1.00  0.00    -0.306 N  
HETATM   13  C   UNL     1     -11.497  10.578  70.002  1.00  0.00    -0.316 C  
HETATM   14  H   UNL     1     -11.154  12.363  68.972  1.00  0.00     0.000 HD 
HETATM   15  N   UNL     1     -10.777   9.524  70.599  1.00  0.00    -0.284 N  
HETATM   16  O   UNL     1     -12.694  10.759  70.192  1.00  0.00    -0.301 OA 
HETATM   17  F   UNL     1      -7.991   9.334  68.282  1.00  0.00    -0.098 F  
HETATM   18  C   UNL     1      -9.658   9.028  69.941  1.00  0.00    -0.183 C  
HETATM   19  C   UNL     1      -9.084   9.723  68.959  1.00  0.00    -0.157 C  
BRANCH  15  20
HETATM   20  C   UNL     1     -11.382   8.771  71.707  1.00  0.00    -0.339 C  
HETATM   21  C   UNL     1     -11.976   6.635  70.937  1.00  0.00    -0.355 C  
HETATM   22  O   UNL     1     -10.999   7.382  71.664  1.00  0.00    -0.224 OA 
HETATM   23  C   UNL     1     -11.616   6.597  69.456  1.00  0.00    -0.257 C  
HETATM   24  C   UNL     1     -13.305   7.318  71.240  1.00  0.00    -0.268 C  
HETATM   25  O   UNL     1     -14.012   6.663  72.306  1.00  0.00    -0.547 OA 
HETATM   26  C   UNL     1     -12.928   8.735  71.690  1.00  0.00    -0.349 C  
HETATM   27  H   UNL     1     -14.841   7.088  72.495  1.00  0.00     0.000 HD 
HETATM   28  O   UNL     1     -13.443   9.045  72.994  1.00  0.00    -0.888 OA 
HETATM   29  H   UNL     1     -14.393   9.022  72.984  1.00  0.00     0.000 HD 
ENDBRANCH  15  20
ENDBRANCH   9  11
ENDBRANCH   6   7
ENDBRANCH   5   6
ENDBRANCH   4   5
ENDBRANCH   3   4
ENDBRANCH   2   3
TORSDOF 7
ENDMDL
MODEL      179
REMARK 921   NORMALIZED FREE ENERGY PREDICTED BY IDOCK:   -3.72 KCAL/MOL
REMARK 922        TOTAL FREE ENERGY PREDICTED BY IDOCK:   -6.34 KCAL/MOL
REMARK 923 INTER-LIGAND FREE ENERGY PREDICTED BY IDOCK:   -5.58 KCAL/MOL
REMARK 924 INTRA-LIGAND FREE ENERGY PREDICTED BY IDOCK:   -0.77 KCAL/MOL
REMARK 927      BINDING AFFINITY PREDICTED BY RF-SCORE:    0.00 PKD
ROOT
HETATM    1  C   UNL     1     -10.024  18.586  66.435  1.00  0.00    -0.399 C  
HETATM    2  C   UNL     1      -9.808  18.806  67.928  1.00  0.00    -0.382 C  
ENDROOT
BRANCH   2   3
HETATM    3  C   UNL     1      -9.872  17.484  68.684  1.00  0.00    -0.338 C  
BRANCH   3   4
HETATM    4  C   UNL     1      -8.534  16.736  68.720  1.00  0.00    -0.253 C  
BRANCH   4   5
HETATM    5  C   UNL     1      -8.801  15.248  68.501  1.00  0.00    -0.185 C  
BRANCH   5   6
HETATM    6  O   UNL     1     -10.092  14.967  67.944  1.00  0.00    -0.225 OA 
BRANCH   6   7
HETATM    7  C   UNL     1     -10.395  13.644  67.930  1.00  0.00    -0.249 C  
HETATM    8  O   UNL     1     -10.989  13.093  67.019  1.00  0.00    -0.262 OA 
HETATM    9  N   UNL     1      -9.954  13.073  69.096  1.00  0.00    -0.327 N  
HETATM   10  H   UNL     1      -9.760  13.699  69.878  1.00  0.00     0.000 HD 
BRANCH   9  11
HETATM   11  C   UNL     1      -9.749  11.730  69.301  1.00  0.00     0.429 C  
HETATM   12  N   UNL     1      -8.575  11.207  69.292  1.00  0.00    -0.381 N  
HETATM   13  C   UNL     1      -8.455   9.843  69.441  1.00  0.00    -0.165 C  
HETATM   14  H   UNL     1      -7.747  11.791  69.177  1.00  0.00     0.000 HD 
HETATM   15  N   UNL     1      -9.604   9.070  69.179  1.00  0.00    -0.159 N  
HETATM   16  O   UNL     1      -7.380   9.351  69.763  1.00  0.00    -0.067 OA 
HETATM   17  F   UNL     1     -12.145  11.606  69.707  1.00  0.00    -0.328 F  
HETATM   18  C   UNL     1     -10.852   9.643  69.394  1.00  0.00    -0.217 C  
HETATM   19  C   UNL     1     -10.980  10.963  69.520  1.00  0.00    -0.253 C  
BRANCH  15  20
HETATM   20  C   UNL     1      -9.474   7.617  69.003  1.00  0.00    -0.150 C  
HETATM   21  C   UNL     1      -9.246   7.148  66.714  1.00  0.00    -0.158 C  
HETATM   22  O   UNL     1      -8.543   7.301  67.949  1.00  0.00    -0.121 OA 
HETATM   23  C   UNL     1      -9.336   8.487  65.991  1.00  0.00    -0.266 C  
HETATM   24  C   UNL     1     -10.595   6.551  67.097  1.00  0.00    -0.328 C  
HETATM   25  O   UNL     1     -10.608   5.121  66.952  1.00  0.00    -0.245 OA 
HETATM   26  C   UNL     1     -10.778   6.902  68.578  1.00  0.00    -0.207 C  
HETATM   27  H   UNL     1     -11.449   4.748  67.190  1.00  0.00     0.000 HD 
HETATM   28  O   UNL     1     -10.989   5.737  69.390  1.00  0.00    -0.342 OA 
HETATM   29  H   UNL     1     -11.790   5.297  69.129  1.00  0.00     0.000 HD 
ENDBRANCH  15  20
ENDBRANCH   9  11
ENDBRANCH   6   7
ENDBRANCH   5   6
ENDBRANCH   4   5
ENDBRANCH   3   4
ENDBRANCH   2   3
TORSDOF 7
ENDMDL
MODEL      180
REMARK 921   NORMALIZED FREE ENERGY PREDICTED BY IDOCK:   -3.69 KCAL/MOL
REMARK 922        TOTAL FREE ENERGY PREDICTED BY IDOCK:   -6.31 KCAL/MOL
REMARK 923 INTER-LIGAND FREE ENERGY PREDICTED BY IDOCK:   -5.48 KCAL/MOL
REMARK 924 INTRA-LIGAND FREE ENERGY PREDICTED BY IDOCK:   -0.82 KCAL/MOL
REMARK 927      BINDING AFFINITY PREDICTED BY RF-SCORE:    0.00 PKD
ROOT
HETATM    1  C   UNL     1      -8.002   8.594  70.433  1.00  0.00    -0.101 C  
HETATM    2  C   UNL     1      -9.225   8.483  71.336  1.00  0.00    -0.272 C  
ENDROOT
BRANCH   2   3
HETATM    3  C   UNL     1      -9.881   7.114  71.191  1.00  0.00    -0.180 C  
BRANCH   3   4
HETATM    4  C   UNL     1     -10.667   6.950  69.885  1.00  0.00    -0.278 C  
BRANCH   4   5
HETATM    5  C   UNL     1     -11.032   8.336  69.357  1.00  0.00     0.000 C  
BRANCH   5   6
HETATM    6  O   UNL     1     -10.739   8.522  67.967  1.00  0.00    -0.170 OA 
BRANCH   6   7
HETATM    7  C   UNL     1     -10.722   9.826  67.591  1.00  0.00    -0.274 C  
HETATM    8  O   UNL     1     -11.333  10.265  66.631  1.00  0.00     0.040 OA 
HETATM    9  N   UNL     1      -9.900  10.524  68.438  1.00  0.00    -0.156 N  
HETATM   10  H   UNL     1      -9.230   9.984  68.986  1.00  0.00     0.000 HD 
BRANCH   9  11
HETATM   11  C   UNL     1      -9.902  11.886  68.612  1.00  0.00    -0.131 C  
HETATM   12  N   UNL     1     -10.950  12.527  68.990  1.00  0.00    -0.352 N  
HETATM   13  C   UNL     1     -10.893  13.900  69.080  1.00  0.00    -0.189 C  
HETATM   14  H   UNL     1     -11.810  12.027  69.219  1.00  0.00     0.000 HD 
HETATM   15  N   UNL     1      -9.857  14.542  68.373  1.00  0.00    -0.221 N  
HETATM   16  O   UNL     1     -11.732  14.509  69.733  1.00  0.00    -0.269 OA 
HETATM   17  F   UNL     1      -7.521  11.777  68.124  1.00  0.00    -0.078 F  
HETATM   18  C   UNL     1      -8.669  13.851  68.164  1.00  0.00    -0.182 C  
HETATM   19  C   UNL     1      -8.616  12.529  68.323  1.00  0.00    -0.173 C  
BRANCH  15  20
HETATM   20  C   UNL     1      -9.920  15.994  68.158  1.00  0.00    -0.228 C  
HETATM   21  C   UNL     1     -10.243  16.409  65.870  1.00  0.00    -0.359 C  
HETATM   22  O   UNL     1     -10.887  16.330  67.143  1.00  0.00    -0.290 OA 
HETATM   23  C   UNL     1     -10.261  15.047  65.186  1.00  0.00    -0.399 C  
HETATM   24  C   UNL     1      -8.846  16.943  66.164  1.00  0.00    -0.244 C  
HETATM   25  O   UNL     1      -8.765  18.366  65.974  1.00  0.00    -0.499 OA 
HETATM   26  C   UNL     1      -8.604  16.625  67.645  1.00  0.00    -0.200 C  
HETATM   27  H   UNL     1      -7.894  18.699  66.157  1.00  0.00     0.000 HD 
HETATM   28  O   UNL     1      -8.290  17.800  68.408  1.00  0.00    -0.279 OA 
HETATM   29  H   UNL     1      -7.482  18.188  68.093  1.00  0.00     0.000 HD 
ENDBRANCH  15  20
ENDBRANCH   9  11
ENDBRANCH   6   7
ENDBRANCH   5   6
ENDBRANCH   4   5
ENDBRANCH   3   4
ENDBRANCH   2   3
TORSDOF 7
ENDMDL
MODEL      181
REMARK 921   NORMALIZED FREE ENERGY PREDICTED BY IDOCK:   -3.68 KCAL/MOL
REMARK 922        TOTAL FREE ENERGY PREDICTED BY IDOCK:   -6.28 KCAL/MOL
REMARK 923 INTER-LIGAND FREE ENERGY PREDICTED BY IDOCK:   -5.37 KCAL/MOL
REMARK 924 INTRA-LIGAND FREE ENERGY PREDICTED BY IDOCK:   -0.91 KCAL/MOL
REMARK 927      BINDING AFFINITY PREDICTED BY RF-SCORE:    0.00 PKD
ROOT
HETATM    1  C   UNL     1      -5.665  14.317  70.770  1.00  0.00    -0.187 C  
HETATM    2  C   UNL     1      -6.537  14.332  69.520  1.00  0.00    -0.134 C  
ENDROOT
BRANCH   2   3
HETATM    3  C   UNL     1      -6.728  12.920  68.978  1.00  0.00    -0.095 C  
BRANCH   3   4
HETATM    4  C   UNL     1      -7.059  12.881  67.481  1.00  0.00    -0.153 C  
BRANCH   4   5
HETATM    5  C   UNL     1      -6.338  11.690  66.853  1.00  0.00    -0.142 C  
BRANCH   5   6
HETATM    6  O   UNL     1      -7.221  10.676  66.355  1.00  0.00    -0.120 OA 
BRANCH   6   7
HETATM    7  C   UNL     1      -7.737   9.886  67.330  1.00  0.00    -0.091 C  
HETATM    8  O   UNL     1      -7.061   9.195  68.075  1.00  0.00    -0.076 OA 
HETATM    9  N   UNL     1      -9.105   9.982  67.305  1.00  0.00    -0.138 N  
HETATM   10  H   UNL     1      -9.530  10.343  66.451  1.00  0.00     0.000 HD 
BRANCH   9  11
HETATM   11  C   UNL     1      -9.950   9.634  68.330  1.00  0.00    -0.155 C  
HETATM   12  N   UNL     1     -10.345  10.484  69.210  1.00  0.00    -0.217 N  
HETATM   13  C   UNL     1     -11.140  10.046  70.245  1.00  0.00    -0.318 C  
HETATM   14  H   UNL     1     -10.074  11.465  69.143  1.00  0.00     0.000 HD 
HETATM   15  N   UNL     1     -11.132   8.663  70.514  1.00  0.00    -0.242 N  
HETATM   16  O   UNL     1     -11.795  10.848  70.900  1.00  0.00    -0.323 OA 
HETATM   17  F   UNL     1     -10.050   7.446  67.271  1.00  0.00    -0.198 F  
HETATM   18  C   UNL     1     -10.883   7.784  69.466  1.00  0.00    -0.153 C  
HETATM   19  C   UNL     1     -10.346   8.222  68.327  1.00  0.00    -0.198 C  
BRANCH  15  20
HETATM   20  C   UNL     1     -11.689   8.168  71.781  1.00  0.00    -0.296 C  
HETATM   21  C   UNL     1      -9.945   7.290  73.085  1.00  0.00    -0.249 C  
HETATM   22  O   UNL     1     -10.792   8.424  72.880  1.00  0.00    -0.246 OA 
HETATM   23  C   UNL     1      -8.677   7.423  72.250  1.00  0.00    -0.138 C  
HETATM   24  C   UNL     1     -10.805   6.083  72.729  1.00  0.00    -0.249 C  
HETATM   25  O   UNL     1     -11.402   5.489  73.893  1.00  0.00    -0.390 OA 
HETATM   26  C   UNL     1     -11.916   6.639  71.829  1.00  0.00    -0.345 C  
HETATM   27  H   UNL     1     -11.938   4.736  73.672  1.00  0.00     0.000 HD 
HETATM   28  O   UNL     1     -13.226   6.350  72.343  1.00  0.00    -0.519 OA 
HETATM   29  H   UNL     1     -13.365   5.411  72.373  1.00  0.00     0.000 HD 
ENDBRANCH  15  20
ENDBRANCH   9  11
ENDBRANCH   6   7
ENDBRANCH   5   6
ENDBRANCH   4   5
ENDBRANCH   3   4
ENDBRANCH   2   3
TORSDOF 7
ENDMDL
MODEL      182
REMARK 921   NORMALIZED FREE ENERGY PREDICTED BY IDOCK:   -3.66 KCAL/MOL
REMARK 922        TOTAL FREE ENERGY PREDICTED BY IDOCK:   -6.26 KCAL/MOL
REMARK 923 INTER-LIGAND FREE ENERGY PREDICTED BY IDOCK:   -5.36 KCAL/MOL
REMARK 924 INTRA-LIGAND FREE ENERGY PREDICTED BY IDOCK:   -0.89 KCAL/MOL
REMARK 927      BINDING AFFINITY PREDICTED BY RF-SCORE:    0.00 PKD
ROOT
HETATM    1  C   UNL     1     -10.604  16.457  67.123  1.00  0.00    -0.276 C  
HETATM    2  C   UNL     1     -10.752  17.107  68.494  1.00  0.00    -0.326 C  
ENDROOT
BRANCH   2   3
HETATM    3  C   UNL     1     -10.702  16.056  69.597  1.00  0.00    -0.316 C  
BRANCH   3   4
HETATM    4  C   UNL     1     -12.079  15.489  69.963  1.00  0.00    -0.391 C  
BRANCH   4   5
HETATM    5  C   UNL     1     -12.046  13.973  69.781  1.00  0.00    -0.348 C  
BRANCH   5   6
HETATM    6  O   UNL     1     -11.927  13.556  68.414  1.00  0.00    -0.354 OA 
BRANCH   6   7
HETATM    7  C   UNL     1     -11.538  12.263  68.278  1.00  0.00    -0.331 C  
HETATM    8  O   UNL     1     -12.267  11.308  68.493  1.00  0.00    -0.588 OA 
HETATM    9  N   UNL     1     -10.221  12.230  67.899  1.00  0.00    -0.196 N  
HETATM   10  H   UNL     1      -9.670  13.073  68.057  1.00  0.00     0.000 HD 
BRANCH   9  11
HETATM   11  C   UNL     1      -9.581  11.160  67.323  1.00  0.00    -0.165 C  
HETATM   12  N   UNL     1      -9.919  10.698  66.172  1.00  0.00    -0.220 N  
HETATM   13  C   UNL     1      -9.273   9.582  65.688  1.00  0.00    -0.223 C  
HETATM   14  H   UNL     1     -10.653  11.150  65.626  1.00  0.00     0.000 HD 
HETATM   15  N   UNL     1      -8.595   8.782  66.629  1.00  0.00    -0.111 N  
HETATM   16  O   UNL     1      -9.324   9.310  64.495  1.00  0.00    -0.121 OA 
HETATM   17  F   UNL     1      -8.079  11.253  69.234  1.00  0.00    -0.123 F  
HETATM   18  C   UNL     1      -8.085   9.387  67.772  1.00  0.00    -0.107 C  
HETATM   19  C   UNL     1      -8.498  10.600  68.138  1.00  0.00    -0.122 C  
BRANCH  15  20
HETATM   20  C   UNL     1      -8.165   7.428  66.251  1.00  0.00    -0.126 C  
HETATM   21  C   UNL     1      -9.847   5.903  66.847  1.00  0.00    -0.156 C  
HETATM   22  O   UNL     1      -9.274   6.644  65.768  1.00  0.00    -0.049 OA 
HETATM   23  C   UNL     1     -10.945   6.717  67.521  1.00  0.00    -0.375 C  
HETATM   24  C   UNL     1      -8.675   5.559  67.759  1.00  0.00    -0.106 C  
HETATM   25  O   UNL     1      -8.164   4.240  67.501  1.00  0.00    -0.098 OA 
HETATM   26  C   UNL     1      -7.590   6.588  67.415  1.00  0.00    -0.100 C  
HETATM   27  H   UNL     1      -7.434   4.026  68.069  1.00  0.00     0.000 HD 
HETATM   28  O   UNL     1      -6.359   5.966  67.015  1.00  0.00    -0.035 OA 
HETATM   29  H   UNL     1      -6.007   5.450  67.730  1.00  0.00     0.000 HD 
ENDBRANCH  15  20
ENDBRANCH   9  11
ENDBRANCH   6   7
ENDBRANCH   5   6
ENDBRANCH   4   5
ENDBRANCH   3   4
ENDBRANCH   2   3
TORSDOF 7
ENDMDL
MODEL      183
REMARK 921   NORMALIZED FREE ENERGY PREDICTED BY IDOCK:   -3.66 KCAL/MOL
REMARK 922        TOTAL FREE ENERGY PREDICTED BY IDOCK:   -6.25 KCAL/MOL
REMARK 923 INTER-LIGAND FREE ENERGY PREDICTED BY IDOCK:   -5.09 KCAL/MOL
REMARK 924 INTRA-LIGAND FREE ENERGY PREDICTED BY IDOCK:   -1.16 KCAL/MOL
REMARK 927      BINDING AFFINITY PREDICTED BY RF-SCORE:    0.00 PKD
ROOT
HETATM    1  C   UNL     1      -6.811   2.924  64.238  1.00  0.00    -0.036 C  
HETATM    2  C   UNL     1      -8.308   3.038  63.976  1.00  0.00    -0.086 C  
ENDROOT
BRANCH   2   3
HETATM    3  C   UNL     1      -8.804   4.448  64.277  1.00  0.00    -0.149 C  
BRANCH   3   4
HETATM    4  C   UNL     1      -8.184   5.519  63.372  1.00  0.00    -0.110 C  
BRANCH   4   5
HETATM    5  C   UNL     1      -7.794   6.719  64.232  1.00  0.00    -0.109 C  
BRANCH   5   6
HETATM    6  O   UNL     1      -8.280   7.972  63.734  1.00  0.00    -0.131 OA 
BRANCH   6   7
HETATM    7  C   UNL     1      -8.859   8.743  64.688  1.00  0.00    -0.010 C  
HETATM    8  O   UNL     1      -9.224   9.892  64.505  1.00  0.00    -0.230 OA 
HETATM    9  N   UNL     1      -8.928   8.028  65.857  1.00  0.00    -0.272 N  
HETATM   10  H   UNL     1      -8.318   7.216  65.943  1.00  0.00     0.000 HD 
BRANCH   9  11
HETATM   11  C   UNL     1      -9.749   8.314  66.921  1.00  0.00    -0.225 C  
HETATM   12  N   UNL     1      -9.945   9.517  67.331  1.00  0.00    -0.177 N  
HETATM   13  C   UNL     1     -10.731   9.719  68.443  1.00  0.00    -0.221 C  
HETATM   14  H   UNL     1      -9.527  10.307  66.840  1.00  0.00     0.000 HD 
HETATM   15  N   UNL     1     -10.924   8.613  69.295  1.00  0.00    -0.056 N  
HETATM   16  O   UNL     1     -11.205  10.826  68.669  1.00  0.00    -0.235 OA 
HETATM   17  F   UNL     1     -10.264   5.937  66.937  1.00  0.00    -0.159 F  
HETATM   18  C   UNL     1     -10.887   7.337  68.746  1.00  0.00    -0.086 C  
HETATM   19  C   UNL     1     -10.363   7.134  67.538  1.00  0.00    -0.236 C  
BRANCH  15  20
HETATM   20  C   UNL     1     -11.469   8.826  70.644  1.00  0.00    -0.231 C  
HETATM   21  C   UNL     1      -9.717   8.678  72.201  1.00  0.00    -0.313 C  
HETATM   22  O   UNL     1     -10.551   9.576  71.464  1.00  0.00    -0.323 OA 
HETATM   23  C   UNL     1      -8.460   8.353  71.402  1.00  0.00    -0.195 C  
HETATM   24  C   UNL     1     -10.599   7.471  72.498  1.00  0.00    -0.270 C  
HETATM   25  O   UNL     1     -11.186   7.547  73.808  1.00  0.00    -0.498 OA 
HETATM   26  C   UNL     1     -11.716   7.528  71.449  1.00  0.00    -0.283 C  
HETATM   27  H   UNL     1     -11.735   6.794  73.994  1.00  0.00     0.000 HD 
HETATM   28  O   UNL     1     -13.021   7.559  72.046  1.00  0.00    -0.446 OA 
HETATM   29  H   UNL     1     -13.173   6.762  72.541  1.00  0.00     0.000 HD 
ENDBRANCH  15  20
ENDBRANCH   9  11
ENDBRANCH   6   7
ENDBRANCH   5   6
ENDBRANCH   4   5
ENDBRANCH   3   4
ENDBRANCH   2   3
TORSDOF 7
ENDMDL
MODEL      184
REMARK 921   NORMALIZED FREE ENERGY PREDICTED BY IDOCK:   -3.65 KCAL/MOL
REMARK 922        TOTAL FREE ENERGY PREDICTED BY IDOCK:   -6.25 KCAL/MOL
REMARK 923 INTER-LIGAND FREE ENERGY PREDICTED BY IDOCK:   -6.45 KCAL/MOL
REMARK 924 INTRA-LIGAND FREE ENERGY PREDICTED BY IDOCK:    0.20 KCAL/MOL
REMARK 927      BINDING AFFINITY PREDICTED BY RF-SCORE:    0.00 PKD
ROOT
HETATM    1  C   UNL     1      -8.070   4.426  70.511  1.00  0.00    -0.067 C  
HETATM    2  C   UNL     1      -9.174   3.602  71.164  1.00  0.00    -0.196 C  
ENDROOT
BRANCH   2   3
HETATM    3  C   UNL     1      -9.886   4.411  72.243  1.00  0.00    -0.231 C  
BRANCH   3   4
HETATM    4  C   UNL     1      -9.404   5.864  72.334  1.00  0.00    -0.149 C  
BRANCH   4   5
HETATM    5  C   UNL     1     -10.605   6.789  72.143  1.00  0.00    -0.211 C  
BRANCH   5   6
HETATM    6  O   UNL     1     -11.473   6.399  71.072  1.00  0.00    -0.313 OA 
BRANCH   6   7
HETATM    7  C   UNL     1     -11.212   7.043  69.906  1.00  0.00    -0.246 C  
HETATM    8  O   UNL     1     -11.325   6.529  68.806  1.00  0.00    -0.278 OA 
HETATM    9  N   UNL     1     -10.786   8.316  70.186  1.00  0.00    -0.241 N  
HETATM   10  H   UNL     1     -10.451   8.498  71.132  1.00  0.00     0.000 HD 
BRANCH   9  11
HETATM   11  C   UNL     1     -10.774   9.367  69.302  1.00  0.00    -0.211 C  
HETATM   12  N   UNL     1     -11.791  10.135  69.136  1.00  0.00    -0.495 N  
HETATM   13  C   UNL     1     -11.725  11.129  68.185  1.00  0.00    -0.232 C  
HETATM   14  H   UNL     1     -12.632  10.011  69.699  1.00  0.00     0.000 HD 
HETATM   15  N   UNL     1     -10.742  10.989  67.185  1.00  0.00    -0.250 N  
HETATM   16  O   UNL     1     -12.514  12.066  68.218  1.00  0.00    -0.103 OA 
HETATM   17  F   UNL     1      -8.435   8.805  68.938  1.00  0.00    -0.123 F  
HETATM   18  C   UNL     1      -9.574  10.303  67.495  1.00  0.00    -0.156 C  
HETATM   19  C   UNL     1      -9.511   9.521  68.572  1.00  0.00    -0.141 C  
BRANCH  15  20
HETATM   20  C   UNL     1     -10.818  11.819  65.974  1.00  0.00    -0.296 C  
HETATM   21  C   UNL     1      -9.827  13.900  66.419  1.00  0.00    -0.295 C  
HETATM   22  O   UNL     1      -9.630  12.619  65.816  1.00  0.00    -0.215 OA 
HETATM   23  C   UNL     1      -9.396  13.867  67.880  1.00  0.00    -0.208 C  
HETATM   24  C   UNL     1     -11.304  14.214  66.209  1.00  0.00    -0.338 C  
HETATM   25  O   UNL     1     -11.517  15.042  65.054  1.00  0.00    -0.366 OA 
HETATM   26  C   UNL     1     -11.969  12.852  65.974  1.00  0.00    -0.446 C  
HETATM   27  H   UNL     1     -12.438  15.238  64.923  1.00  0.00     0.000 HD 
HETATM   28  O   UNL     1     -12.677  12.801  64.726  1.00  0.00    -0.644 OA 
HETATM   29  H   UNL     1     -13.384  13.436  64.726  1.00  0.00     0.000 HD 
ENDBRANCH  15  20
ENDBRANCH   9  11
ENDBRANCH   6   7
ENDBRANCH   5   6
ENDBRANCH   4   5
ENDBRANCH   3   4
ENDBRANCH   2   3
TORSDOF 7
ENDMDL
MODEL      185
REMARK 921   NORMALIZED FREE ENERGY PREDICTED BY IDOCK:   -3.65 KCAL/MOL
REMARK 922        TOTAL FREE ENERGY PREDICTED BY IDOCK:   -6.25 KCAL/MOL
REMARK 923 INTER-LIGAND FREE ENERGY PREDICTED BY IDOCK:   -6.42 KCAL/MOL
REMARK 924 INTRA-LIGAND FREE ENERGY PREDICTED BY IDOCK:    0.18 KCAL/MOL
REMARK 927      BINDING AFFINITY PREDICTED BY RF-SCORE:    0.00 PKD
ROOT
HETATM    1  C   UNL     1     -11.847  12.358  65.885  1.00  0.00    -0.467 C  
HETATM    2  C   UNL     1     -11.822  13.881  65.943  1.00  0.00    -0.399 C  
ENDROOT
BRANCH   2   3
HETATM    3  C   UNL     1     -11.164  14.362  67.231  1.00  0.00    -0.334 C  
BRANCH   3   4
HETATM    4  C   UNL     1     -12.127  14.424  68.423  1.00  0.00    -0.278 C  
BRANCH   4   5
HETATM    5  C   UNL     1     -11.668  13.417  69.474  1.00  0.00    -0.324 C  
BRANCH   5   6
HETATM    6  O   UNL     1     -12.715  12.971  70.346  1.00  0.00    -0.126 OA 
BRANCH   6   7
HETATM    7  C   UNL     1     -12.467  11.761  70.909  1.00  0.00    -0.318 C  
HETATM    8  O   UNL     1     -13.159  11.263  71.781  1.00  0.00    -0.472 OA 
HETATM    9  N   UNL     1     -11.324  11.239  70.360  1.00  0.00    -0.470 N  
HETATM   10  H   UNL     1     -10.698  11.888  69.884  1.00  0.00     0.000 HD 
BRANCH   9  11
HETATM   11  C   UNL     1     -10.951   9.918  70.396  1.00  0.00    -0.318 C  
HETATM   12  N   UNL     1     -11.798   8.973  70.602  1.00  0.00    -0.448 N  
HETATM   13  C   UNL     1     -11.340   7.677  70.689  1.00  0.00    -0.272 C  
HETATM   14  H   UNL     1     -12.792   9.178  70.700  1.00  0.00     0.000 HD 
HETATM   15  N   UNL     1      -9.968   7.504  70.961  1.00  0.00    -0.186 N  
HETATM   16  O   UNL     1     -12.116   6.739  70.555  1.00  0.00    -0.386 OA 
HETATM   17  F   UNL     1      -8.732  10.707  69.788  1.00  0.00    -0.124 F  
HETATM   18  C   UNL     1      -9.078   8.485  70.538  1.00  0.00    -0.156 C  
HETATM   19  C   UNL     1      -9.517   9.693  70.188  1.00  0.00    -0.253 C  
BRANCH  15  20
HETATM   20  C   UNL     1      -9.474   6.185  71.382  1.00  0.00    -0.156 C  
HETATM   21  C   UNL     1      -8.553   5.090  69.522  1.00  0.00    -0.091 C  
HETATM   22  O   UNL     1      -8.253   5.843  70.698  1.00  0.00    -0.115 OA 
HETATM   23  C   UNL     1      -8.748   6.025  68.334  1.00  0.00    -0.113 C  
HETATM   24  C   UNL     1      -9.786   4.269  69.880  1.00  0.00    -0.197 C  
HETATM   25  O   UNL     1      -9.440   2.938  70.298  1.00  0.00    -0.154 OA 
HETATM   26  C   UNL     1     -10.426   5.010  71.060  1.00  0.00    -0.141 C  
HETATM   27  H   UNL     1     -10.209   2.425  70.521  1.00  0.00     0.000 HD 
HETATM   28  O   UNL     1     -10.578   4.167  72.213  1.00  0.00    -0.122 OA 
HETATM   29  H   UNL     1     -11.162   3.445  72.015  1.00  0.00     0.000 HD 
ENDBRANCH  15  20
ENDBRANCH   9  11
ENDBRANCH   6   7
ENDBRANCH   5   6
ENDBRANCH   4   5
ENDBRANCH   3   4
ENDBRANCH   2   3
TORSDOF 7
ENDMDL
MODEL      186
REMARK 921   NORMALIZED FREE ENERGY PREDICTED BY IDOCK:   -3.65 KCAL/MOL
REMARK 922        TOTAL FREE ENERGY PREDICTED BY IDOCK:   -6.24 KCAL/MOL
REMARK 923 INTER-LIGAND FREE ENERGY PREDICTED BY IDOCK:   -6.48 KCAL/MOL
REMARK 924 INTRA-LIGAND FREE ENERGY PREDICTED BY IDOCK:    0.24 KCAL/MOL
REMARK 927      BINDING AFFINITY PREDICTED BY RF-SCORE:    0.00 PKD
ROOT
HETATM    1  C   UNL     1     -10.594  19.339  67.055  1.00  0.00    -0.571 C  
HETATM    2  C   UNL     1     -10.618  17.953  67.688  1.00  0.00    -0.398 C  
ENDROOT
BRANCH   2   3
HETATM    3  C   UNL     1     -10.515  16.869  66.620  1.00  0.00    -0.257 C  
BRANCH   3   4
HETATM    4  C   UNL     1      -9.114  16.257  66.505  1.00  0.00    -0.302 C  
BRANCH   4   5
HETATM    5  C   UNL     1      -9.082  14.957  67.307  1.00  0.00    -0.201 C  
BRANCH   5   6
HETATM    6  O   UNL     1      -7.837  14.253  67.219  1.00  0.00    -0.189 OA 
BRANCH   6   7
HETATM    7  C   UNL     1      -7.771  13.174  68.040  1.00  0.00    -0.146 C  
HETATM    8  O   UNL     1      -6.911  13.018  68.891  1.00  0.00    -0.098 OA 
HETATM    9  N   UNL     1      -8.791  12.312  67.726  1.00  0.00    -0.165 N  
HETATM   10  H   UNL     1      -9.229  12.422  66.812  1.00  0.00     0.000 HD 
BRANCH   9  11
HETATM   11  C   UNL     1      -9.272  11.313  68.538  1.00  0.00    -0.181 C  
HETATM   12  N   UNL     1      -8.546  10.756  69.441  1.00  0.00    -0.375 N  
HETATM   13  C   UNL     1      -9.078   9.718  70.173  1.00  0.00    -0.197 C  
HETATM   14  H   UNL     1      -7.593  11.077  69.612  1.00  0.00     0.000 HD 
HETATM   15  N   UNL     1     -10.199   9.063  69.627  1.00  0.00    -0.199 N  
HETATM   16  O   UNL     1      -8.563   9.386  71.234  1.00  0.00    -0.299 OA 
HETATM   17  F   UNL     1     -11.414  11.702  67.453  1.00  0.00    -0.317 F  
HETATM   18  C   UNL     1     -11.054   9.786  68.803  1.00  0.00    -0.095 C  
HETATM   19  C   UNL     1     -10.667  10.946  68.275  1.00  0.00    -0.204 C  
BRANCH  15  20
HETATM   20  C   UNL     1     -10.618   7.765  70.175  1.00  0.00    -0.237 C  
HETATM   21  C   UNL     1     -12.247   8.129  71.826  1.00  0.00    -0.319 C  
HETATM   22  O   UNL     1     -12.030   7.753  70.464  1.00  0.00    -0.143 OA 
HETATM   23  C   UNL     1     -12.420   9.640  71.933  1.00  0.00    -0.459 C  
HETATM   24  C   UNL     1     -11.045   7.581  72.586  1.00  0.00    -0.347 C  
HETATM   25  O   UNL     1     -11.330   6.308  73.191  1.00  0.00    -0.453 OA 
HETATM   26  C   UNL     1      -9.956   7.394  71.522  1.00  0.00    -0.181 C  
HETATM   27  H   UNL     1     -10.580   5.967  73.666  1.00  0.00     0.000 HD 
HETATM   28  O   UNL     1      -9.468   6.044  71.477  1.00  0.00    -0.149 OA 
HETATM   29  H   UNL     1      -9.062   5.815  72.305  1.00  0.00     0.000 HD 
ENDBRANCH  15  20
ENDBRANCH   9  11
ENDBRANCH   6   7
ENDBRANCH   5   6
ENDBRANCH   4   5
ENDBRANCH   3   4
ENDBRANCH   2   3
TORSDOF 7
ENDMDL
MODEL      187
REMARK 921   NORMALIZED FREE ENERGY PREDICTED BY IDOCK:   -3.64 KCAL/MOL
REMARK 922        TOTAL FREE ENERGY PREDICTED BY IDOCK:   -6.23 KCAL/MOL
REMARK 923 INTER-LIGAND FREE ENERGY PREDICTED BY IDOCK:   -5.61 KCAL/MOL
REMARK 924 INTRA-LIGAND FREE ENERGY PREDICTED BY IDOCK:   -0.62 KCAL/MOL
REMARK 927      BINDING AFFINITY PREDICTED BY RF-SCORE:    0.00 PKD
ROOT
HETATM    1  C   UNL     1      -8.181   7.576  73.576  1.00  0.00    -0.179 C  
HETATM    2  C   UNL     1      -8.454   6.083  73.716  1.00  0.00    -0.117 C  
ENDROOT
BRANCH   2   3
HETATM    3  C   UNL     1      -9.825   5.840  74.337  1.00  0.00    -0.238 C  
BRANCH   3   4
HETATM    4  C   UNL     1     -10.782   5.066  73.423  1.00  0.00    -0.330 C  
BRANCH   4   5
HETATM    5  C   UNL     1     -10.981   5.865  72.137  1.00  0.00    -0.266 C  
BRANCH   5   6
HETATM    6  O   UNL     1     -12.281   6.457  72.018  1.00  0.00    -0.341 OA 
BRANCH   6   7
HETATM    7  C   UNL     1     -12.295   7.574  71.248  1.00  0.00    -0.327 C  
HETATM    8  O   UNL     1     -13.123   8.464  71.356  1.00  0.00    -0.299 OA 
HETATM    9  N   UNL     1     -11.266   7.506  70.344  1.00  0.00    -0.288 N  
HETATM   10  H   UNL     1     -10.860   6.587  70.169  1.00  0.00     0.000 HD 
BRANCH   9  11
HETATM   11  C   UNL     1     -10.735   8.570  69.655  1.00  0.00    -0.197 C  
HETATM   12  N   UNL     1     -11.462   9.355  68.944  1.00  0.00    -0.310 N  
HETATM   13  C   UNL     1     -10.850  10.362  68.230  1.00  0.00    -0.254 C  
HETATM   14  H   UNL     1     -12.474   9.236  68.907  1.00  0.00     0.000 HD 
HETATM   15  N   UNL     1      -9.469  10.222  67.989  1.00  0.00    -0.145 N  
HETATM   16  O   UNL     1     -11.506  11.310  67.816  1.00  0.00    -0.373 OA 
HETATM   17  F   UNL     1      -8.626   7.978  70.713  1.00  0.00    -0.119 F  
HETATM   18  C   UNL     1      -8.703   9.513  68.908  1.00  0.00    -0.133 C  
HETATM   19  C   UNL     1      -9.284   8.715  69.803  1.00  0.00    -0.154 C  
BRANCH  15  20
HETATM   20  C   UNL     1      -8.820  11.070  66.979  1.00  0.00    -0.143 C  
HETATM   21  C   UNL     1      -7.480   9.722  65.603  1.00  0.00    -0.110 C  
HETATM   22  O   UNL     1      -8.736  10.396  65.708  1.00  0.00    -0.155 OA 
HETATM   23  C   UNL     1      -7.596   8.303  66.147  1.00  0.00    -0.085 C  
HETATM   24  C   UNL     1      -6.491  10.603  66.358  1.00  0.00    -0.117 C  
HETATM   25  O   UNL     1      -5.772  11.479  65.475  1.00  0.00    -0.466 OA 
HETATM   26  C   UNL     1      -7.356  11.448  67.302  1.00  0.00    -0.130 C  
HETATM   27  H   UNL     1      -5.155  12.028  65.946  1.00  0.00     0.000 HD 
HETATM   28  O   UNL     1      -7.155  12.857  67.107  1.00  0.00    -0.335 OA 
HETATM   29  H   UNL     1      -6.255  13.089  67.305  1.00  0.00     0.000 HD 
ENDBRANCH  15  20
ENDBRANCH   9  11
ENDBRANCH   6   7
ENDBRANCH   5   6
ENDBRANCH   4   5
ENDBRANCH   3   4
ENDBRANCH   2   3
TORSDOF 7
ENDMDL
MODEL      188
REMARK 921   NORMALIZED FREE ENERGY PREDICTED BY IDOCK:   -3.63 KCAL/MOL
REMARK 922        TOTAL FREE ENERGY PREDICTED BY IDOCK:   -6.21 KCAL/MOL
REMARK 923 INTER-LIGAND FREE ENERGY PREDICTED BY IDOCK:   -5.55 KCAL/MOL
REMARK 924 INTRA-LIGAND FREE ENERGY PREDICTED BY IDOCK:   -0.66 KCAL/MOL
REMARK 927      BINDING AFFINITY PREDICTED BY RF-SCORE:    0.00 PKD
ROOT
HETATM    1  C   UNL     1      -9.503   3.737  64.627  1.00  0.00    -0.165 C  
HETATM    2  C   UNL     1      -8.058   4.177  64.833  1.00  0.00    -0.094 C  
ENDROOT
BRANCH   2   3
HETATM    3  C   UNL     1      -7.777   5.477  64.087  1.00  0.00    -0.089 C  
BRANCH   3   4
HETATM    4  C   UNL     1      -8.036   6.732  64.928  1.00  0.00    -0.112 C  
BRANCH   4   5
HETATM    5  C   UNL     1      -6.703   7.435  65.179  1.00  0.00    -0.044 C  
BRANCH   5   6
HETATM    6  O   UNL     1      -6.252   7.353  66.537  1.00  0.00    -0.041 OA 
BRANCH   6   7
HETATM    7  C   UNL     1      -7.264   7.268  67.436  1.00  0.00    -0.090 C  
HETATM    8  O   UNL     1      -7.756   6.216  67.809  1.00  0.00    -0.095 OA 
HETATM    9  N   UNL     1      -7.636   8.534  67.810  1.00  0.00    -0.097 N  
HETATM   10  H   UNL     1      -7.357   9.302  67.199  1.00  0.00     0.000 HD 
BRANCH   9  11
HETATM   11  C   UNL     1      -8.352   8.857  68.937  1.00  0.00    -0.122 C  
HETATM   12  N   UNL     1      -7.935   8.569  70.119  1.00  0.00    -0.101 N  
HETATM   13  C   UNL     1      -8.738   8.867  71.197  1.00  0.00    -0.222 C  
HETATM   14  H   UNL     1      -7.027   8.126  70.256  1.00  0.00     0.000 HD 
HETATM   15  N   UNL     1     -10.106   9.078  70.933  1.00  0.00    -0.239 N  
HETATM   16  O   UNL     1      -8.262   8.916  72.325  1.00  0.00    -0.379 OA 
HETATM   17  F   UNL     1      -9.891   9.982  67.426  1.00  0.00    -0.184 F  
HETATM   18  C   UNL     1     -10.473   9.576  69.688  1.00  0.00    -0.223 C  
HETATM   19  C   UNL     1      -9.618   9.545  68.666  1.00  0.00    -0.146 C  
BRANCH  15  20
HETATM   20  C   UNL     1     -11.066   9.080  72.046  1.00  0.00    -0.301 C  
HETATM   21  C   UNL     1     -12.228   7.040  72.049  1.00  0.00    -0.282 C  
HETATM   22  O   UNL     1     -11.163   7.776  72.653  1.00  0.00    -0.325 OA 
HETATM   23  C   UNL     1     -11.709   6.249  70.853  1.00  0.00    -0.289 C  
HETATM   24  C   UNL     1     -13.283   8.083  71.699  1.00  0.00    -0.330 C  
HETATM   25  O   UNL     1     -14.301   8.174  72.709  1.00  0.00    -0.735 OA 
HETATM   26  C   UNL     1     -12.521   9.413  71.639  1.00  0.00    -0.378 C  
HETATM   27  H   UNL     1     -14.959   8.825  72.491  1.00  0.00     0.000 HD 
HETATM   28  O   UNL     1     -13.071  10.394  72.531  1.00  0.00    -0.470 OA 
HETATM   29  H   UNL     1     -13.965  10.598  72.282  1.00  0.00     0.000 HD 
ENDBRANCH  15  20
ENDBRANCH   9  11
ENDBRANCH   6   7
ENDBRANCH   5   6
ENDBRANCH   4   5
ENDBRANCH   3   4
ENDBRANCH   2   3
TORSDOF 7
ENDMDL
MODEL      189
REMARK 921   NORMALIZED FREE ENERGY PREDICTED BY IDOCK:   -3.62 KCAL/MOL
REMARK 922        TOTAL FREE ENERGY PREDICTED BY IDOCK:   -6.21 KCAL/MOL
REMARK 923 INTER-LIGAND FREE ENERGY PREDICTED BY IDOCK:   -6.67 KCAL/MOL
REMARK 924 INTRA-LIGAND FREE ENERGY PREDICTED BY IDOCK:    0.46 KCAL/MOL
REMARK 927      BINDING AFFINITY PREDICTED BY RF-SCORE:    0.00 PKD
ROOT
HETATM    1  C   UNL     1      -6.671   6.821  68.616  1.00  0.00    -0.064 C  
HETATM    2  C   UNL     1      -7.991   7.536  68.880  1.00  0.00    -0.126 C  
ENDROOT
BRANCH   2   3
HETATM    3  C   UNL     1      -8.303   8.524  67.762  1.00  0.00    -0.130 C  
BRANCH   3   4
HETATM    4  C   UNL     1      -9.661   8.279  67.093  1.00  0.00    -0.255 C  
BRANCH   4   5
HETATM    5  C   UNL     1     -10.549   9.500  67.330  1.00  0.00    -0.248 C  
BRANCH   5   6
HETATM    6  O   UNL     1     -10.235  10.616  66.487  1.00  0.00    -0.219 OA 
BRANCH   6   7
HETATM    7  C   UNL     1     -10.321  11.811  67.124  1.00  0.00    -0.215 C  
HETATM    8  O   UNL     1     -10.415  11.931  68.334  1.00  0.00    -0.203 OA 
HETATM    9  N   UNL     1     -10.311  12.816  66.191  1.00  0.00    -0.264 N  
HETATM   10  H   UNL     1     -10.538  12.561  65.230  1.00  0.00     0.000 HD 
BRANCH   9  11
HETATM   11  C   UNL     1     -10.022  14.135  66.439  1.00  0.00    -0.293 C  
HETATM   12  N   UNL     1      -8.819  14.589  66.417  1.00  0.00    -0.475 N  
HETATM   13  C   UNL     1      -8.602  15.910  66.740  1.00  0.00    -0.266 C  
HETATM   14  H   UNL     1      -8.040  13.982  66.166  1.00  0.00     0.000 HD 
HETATM   15  N   UNL     1      -9.619  16.565  67.463  1.00  0.00    -0.230 N  
HETATM   16  O   UNL     1      -7.553  16.457  66.422  1.00  0.00    -0.259 OA 
HETATM   17  F   UNL     1     -12.430  14.461  66.547  1.00  0.00    -0.457 F  
HETATM   18  C   UNL     1     -10.933  16.142  67.291  1.00  0.00    -0.175 C  
HETATM   19  C   UNL     1     -11.198  14.961  66.734  1.00  0.00    -0.338 C  
BRANCH  15  20
HETATM   20  C   UNL     1      -9.332  17.851  68.114  1.00  0.00    -0.286 C  
HETATM   21  C   UNL     1     -10.347  19.570  66.878  1.00  0.00    -0.454 C  
HETATM   22  O   UNL     1     -10.465  18.739  68.035  1.00  0.00    -0.380 OA 
HETATM   23  C   UNL     1     -11.013  18.902  65.681  1.00  0.00     0.060 C  
HETATM   24  C   UNL     1      -8.851  19.807  66.710  1.00  0.00    -0.347 C  
HETATM   25  O   UNL     1      -8.437  21.053  67.295  1.00  0.00    -0.512 OA 
HETATM   26  C   UNL     1      -8.180  18.654  67.468  1.00  0.00    -0.253 C  
HETATM   27  H   UNL     1      -7.504  21.201  67.190  1.00  0.00     0.000 HD 
HETATM   28  O   UNL     1      -7.277  19.124  68.481  1.00  0.00    -0.279 OA 
HETATM   29  H   UNL     1      -6.569  19.618  68.084  1.00  0.00     0.000 HD 
ENDBRANCH  15  20
ENDBRANCH   9  11
ENDBRANCH   6   7
ENDBRANCH   5   6
ENDBRANCH   4   5
ENDBRANCH   3   4
ENDBRANCH   2   3
TORSDOF 7
ENDMDL
MODEL      190
REMARK 921   NORMALIZED FREE ENERGY PREDICTED BY IDOCK:   -3.61 KCAL/MOL
REMARK 922        TOTAL FREE ENERGY PREDICTED BY IDOCK:   -6.18 KCAL/MOL
REMARK 923 INTER-LIGAND FREE ENERGY PREDICTED BY IDOCK:   -5.78 KCAL/MOL
REMARK 924 INTRA-LIGAND FREE ENERGY PREDICTED BY IDOCK:   -0.40 KCAL/MOL
REMARK 927      BINDING AFFINITY PREDICTED BY RF-SCORE:    0.00 PKD
ROOT
HETATM    1  C   UNL     1     -11.289  14.703  65.139  1.00  0.00    -0.375 C  
HETATM    2  C   UNL     1     -12.353  13.742  64.621  1.00  0.00    -0.410 C  
ENDROOT
BRANCH   2   3
HETATM    3  C   UNL     1     -11.830  12.949  63.428  1.00  0.00    -0.576 C  
BRANCH   3   4
HETATM    4  C   UNL     1     -10.512  12.219  63.710  1.00  0.00    -0.476 C  
BRANCH   4   5
HETATM    5  C   UNL     1     -10.565  11.645  65.124  1.00  0.00    -0.290 C  
BRANCH   5   6
HETATM    6  O   UNL     1      -9.296  11.623  65.789  1.00  0.00    -0.229 OA 
BRANCH   6   7
HETATM    7  C   UNL     1      -9.397  11.532  67.139  1.00  0.00    -0.172 C  
HETATM    8  O   UNL     1      -9.922  12.381  67.840  1.00  0.00    -0.193 OA 
HETATM    9  N   UNL     1      -8.798  10.370  67.554  1.00  0.00    -0.134 N  
HETATM   10  H   UNL     1      -8.146   9.925  66.909  1.00  0.00     0.000 HD 
BRANCH   9  11
HETATM   11  C   UNL     1      -9.002   9.753  68.765  1.00  0.00    -0.133 C  
HETATM   12  N   UNL     1      -8.135   9.802  69.713  1.00  0.00    -0.150 N  
HETATM   13  C   UNL     1      -8.382   9.106  70.875  1.00  0.00    -0.185 C  
HETATM   14  H   UNL     1      -7.280  10.347  69.606  1.00  0.00     0.000 HD 
HETATM   15  N   UNL     1      -9.337   8.072  70.807  1.00  0.00    -0.156 N  
HETATM   16  O   UNL     1      -7.768   9.380  71.899  1.00  0.00    -0.182 OA 
HETATM   17  F   UNL     1     -11.212   9.198  67.912  1.00  0.00    -0.184 F  
HETATM   18  C   UNL     1     -10.365   8.177  69.878  1.00  0.00    -0.214 C  
HETATM   19  C   UNL     1     -10.280   9.041  68.867  1.00  0.00    -0.208 C  
BRANCH  15  20
HETATM   20  C   UNL     1      -9.419   7.090  71.898  1.00  0.00    -0.140 C  
HETATM   21  C   UNL     1      -8.804   4.981  71.068  1.00  0.00    -0.131 C  
HETATM   22  O   UNL     1      -8.356   6.120  71.807  1.00  0.00    -0.123 OA 
HETATM   23  C   UNL     1      -8.517   5.172  69.584  1.00  0.00    -0.093 C  
HETATM   24  C   UNL     1     -10.284   4.845  71.407  1.00  0.00    -0.187 C  
HETATM   25  O   UNL     1     -10.506   3.892  72.460  1.00  0.00    -0.167 OA 
HETATM   26  C   UNL     1     -10.708   6.235  71.897  1.00  0.00    -0.230 C  
HETATM   27  H   UNL     1     -11.429   3.807  72.671  1.00  0.00     0.000 HD 
HETATM   28  O   UNL     1     -11.275   6.196  73.216  1.00  0.00    -0.444 OA 
HETATM   29  H   UNL     1     -12.067   5.671  73.215  1.00  0.00     0.000 HD 
ENDBRANCH  15  20
ENDBRANCH   9  11
ENDBRANCH   6   7
ENDBRANCH   5   6
ENDBRANCH   4   5
ENDBRANCH   3   4
ENDBRANCH   2   3
TORSDOF 7
ENDMDL
MODEL      191
REMARK 921   NORMALIZED FREE ENERGY PREDICTED BY IDOCK:   -3.58 KCAL/MOL
REMARK 922        TOTAL FREE ENERGY PREDICTED BY IDOCK:   -6.14 KCAL/MOL
REMARK 923 INTER-LIGAND FREE ENERGY PREDICTED BY IDOCK:   -6.16 KCAL/MOL
REMARK 924 INTRA-LIGAND FREE ENERGY PREDICTED BY IDOCK:    0.02 KCAL/MOL
REMARK 927      BINDING AFFINITY PREDICTED BY RF-SCORE:    0.00 PKD
ROOT
HETATM    1  C   UNL     1      -7.937   7.982  71.534  1.00  0.00    -0.117 C  
HETATM    2  C   UNL     1      -8.113   6.727  72.382  1.00  0.00    -0.102 C  
ENDROOT
BRANCH   2   3
HETATM    3  C   UNL     1      -9.242   5.861  71.835  1.00  0.00    -0.155 C  
BRANCH   3   4
HETATM    4  C   UNL     1     -10.563   6.030  72.595  1.00  0.00    -0.251 C  
BRANCH   4   5
HETATM    5  C   UNL     1     -11.664   6.365  71.590  1.00  0.00    -0.313 C  
BRANCH   5   6
HETATM    6  O   UNL     1     -12.049   7.745  71.591  1.00  0.00    -0.283 OA 
BRANCH   6   7
HETATM    7  C   UNL     1     -11.408   8.484  70.651  1.00  0.00    -0.241 C  
HETATM    8  O   UNL     1     -10.932   8.019  69.629  1.00  0.00    -0.210 OA 
HETATM    9  N   UNL     1     -11.370   9.792  71.062  1.00  0.00    -0.359 N  
HETATM   10  H   UNL     1     -11.526   9.974  72.053  1.00  0.00     0.000 HD 
BRANCH   9  11
HETATM   11  C   UNL     1     -11.139  10.878  70.252  1.00  0.00    -0.093 C  
HETATM   12  N   UNL     1     -10.168  10.910  69.411  1.00  0.00    -0.400 N  
HETATM   13  C   UNL     1      -9.961  12.058  68.679  1.00  0.00    -0.142 C  
HETATM   14  H   UNL     1      -9.560  10.100  69.287  1.00  0.00     0.000 HD 
HETATM   15  N   UNL     1     -10.541  13.243  69.176  1.00  0.00    -0.057 N  
HETATM   16  O   UNL     1      -9.281  12.025  67.660  1.00  0.00    -0.172 OA 
HETATM   17  F   UNL     1     -13.185  11.796  71.196  1.00  0.00    -0.371 F  
HETATM   18  C   UNL     1     -11.707  13.148  69.926  1.00  0.00    -0.257 C  
HETATM   19  C   UNL     1     -12.088  11.980  70.443  1.00  0.00    -0.321 C  
BRANCH  15  20
HETATM   20  C   UNL     1     -10.105  14.541  68.642  1.00  0.00    -0.244 C  
HETATM   21  C   UNL     1     -11.348  15.021  66.709  1.00  0.00    -0.293 C  
HETATM   22  O   UNL     1     -11.219  15.285  68.108  1.00  0.00    -0.297 OA 
HETATM   23  C   UNL     1     -12.267  13.826  66.482  1.00  0.00    -0.475 C  
HETATM   24  C   UNL     1      -9.923  14.819  66.209  1.00  0.00    -0.291 C  
HETATM   25  O   UNL     1      -9.379  16.022  65.641  1.00  0.00    -0.385 OA 
HETATM   26  C   UNL     1      -9.114  14.449  67.458  1.00  0.00    -0.195 C  
HETATM   27  H   UNL     1      -8.490  15.896  65.329  1.00  0.00     0.000 HD 
HETATM   28  O   UNL     1      -8.007  15.338  67.671  1.00  0.00    -0.136 OA 
HETATM   29  H   UNL     1      -7.398  15.282  66.944  1.00  0.00     0.000 HD 
ENDBRANCH  15  20
ENDBRANCH   9  11
ENDBRANCH   6   7
ENDBRANCH   5   6
ENDBRANCH   4   5
ENDBRANCH   3   4
ENDBRANCH   2   3
TORSDOF 7
ENDMDL
MODEL      192
REMARK 921   NORMALIZED FREE ENERGY PREDICTED BY IDOCK:   -3.57 KCAL/MOL
REMARK 922        TOTAL FREE ENERGY PREDICTED BY IDOCK:   -6.14 KCAL/MOL
REMARK 923 INTER-LIGAND FREE ENERGY PREDICTED BY IDOCK:   -5.23 KCAL/MOL
REMARK 924 INTRA-LIGAND FREE ENERGY PREDICTED BY IDOCK:   -0.90 KCAL/MOL
REMARK 927      BINDING AFFINITY PREDICTED BY RF-SCORE:    0.00 PKD
ROOT
HETATM    1  C   UNL     1      -6.509   2.109  65.300  1.00  0.00    -0.024 C  
HETATM    2  C   UNL     1      -7.372   2.631  66.442  1.00  0.00    -0.066 C  
ENDROOT
BRANCH   2   3
HETATM    3  C   UNL     1      -7.936   4.008  66.108  1.00  0.00    -0.094 C  
BRANCH   3   4
HETATM    4  C   UNL     1      -9.452   4.007  65.876  1.00  0.00    -0.180 C  
BRANCH   4   5
HETATM    5  C   UNL     1     -10.070   5.147  66.683  1.00  0.00    -0.237 C  
BRANCH   5   6
HETATM    6  O   UNL     1     -10.097   6.401  65.988  1.00  0.00     0.114 OA 
BRANCH   6   7
HETATM    7  C   UNL     1      -9.654   7.441  66.737  1.00  0.00    -0.192 C  
HETATM    8  O   UNL     1      -8.976   7.315  67.744  1.00  0.00    -0.127 OA 
HETATM    9  N   UNL     1     -10.116   8.612  66.192  1.00  0.00    -0.441 N  
HETATM   10  H   UNL     1     -10.906   8.547  65.551  1.00  0.00     0.000 HD 
BRANCH   9  11
HETATM   11  C   UNL     1      -9.604   9.863  66.435  1.00  0.00    -0.200 C  
HETATM   12  N   UNL     1      -8.956  10.141  67.510  1.00  0.00    -0.131 N  
HETATM   13  C   UNL     1      -8.529  11.435  67.712  1.00  0.00    -0.128 C  
HETATM   14  H   UNL     1      -8.762   9.417  68.201  1.00  0.00     0.000 HD 
HETATM   15  N   UNL     1      -9.167  12.441  66.960  1.00  0.00    -0.201 N  
HETATM   16  O   UNL     1      -7.649  11.672  68.532  1.00  0.00    -0.114 OA 
HETATM   17  F   UNL     1     -10.381  10.424  64.199  1.00  0.00    -0.405 F  
HETATM   18  C   UNL     1      -9.683  12.111  65.712  1.00  0.00    -0.229 C  
HETATM   19  C   UNL     1      -9.870  10.837  65.371  1.00  0.00    -0.262 C  
BRANCH  15  20
HETATM   20  C   UNL     1      -8.999  13.849  67.346  1.00  0.00    -0.210 C  
HETATM   21  C   UNL     1     -10.906  14.546  68.524  1.00  0.00    -0.249 C  
HETATM   22  O   UNL     1      -9.554  14.102  68.652  1.00  0.00    -0.215 OA 
HETATM   23  C   UNL     1     -11.856  13.354  68.546  1.00  0.00    -0.401 C  
HETATM   24  C   UNL     1     -10.940  15.349  67.228  1.00  0.00    -0.317 C  
HETATM   25  O   UNL     1     -10.800  16.759  67.468  1.00  0.00    -0.307 OA 
HETATM   26  C   UNL     1      -9.727  14.858  66.427  1.00  0.00    -0.285 C  
HETATM   27  H   UNL     1     -10.821  17.259  66.661  1.00  0.00     0.000 HD 
HETATM   28  O   UNL     1      -8.841  15.931  66.072  1.00  0.00    -0.333 OA 
HETATM   29  H   UNL     1      -9.289  16.551  65.508  1.00  0.00     0.000 HD 
ENDBRANCH  15  20
ENDBRANCH   9  11
ENDBRANCH   6   7
ENDBRANCH   5   6
ENDBRANCH   4   5
ENDBRANCH   3   4
ENDBRANCH   2   3
TORSDOF 7
ENDMDL
MODEL      193
REMARK 921   NORMALIZED FREE ENERGY PREDICTED BY IDOCK:   -3.57 KCAL/MOL
REMARK 922        TOTAL FREE ENERGY PREDICTED BY IDOCK:   -6.13 KCAL/MOL
REMARK 923 INTER-LIGAND FREE ENERGY PREDICTED BY IDOCK:   -6.61 KCAL/MOL
REMARK 924 INTRA-LIGAND FREE ENERGY PREDICTED BY IDOCK:    0.48 KCAL/MOL
REMARK 927      BINDING AFFINITY PREDICTED BY RF-SCORE:    0.00 PKD
ROOT
HETATM    1  C   UNL     1     -10.539  16.197  69.034  1.00  0.00    -0.273 C  
HETATM    2  C   UNL     1     -11.056  15.698  70.379  1.00  0.00    -0.369 C  
ENDROOT
BRANCH   2   3
HETATM    3  C   UNL     1     -12.363  14.932  70.205  1.00  0.00    -0.393 C  
BRANCH   3   4
HETATM    4  C   UNL     1     -13.060  14.607  71.531  1.00  0.00    -0.420 C  
BRANCH   4   5
HETATM    5  C   UNL     1     -12.615  13.219  71.989  1.00  0.00     0.015 C  
BRANCH   5   6
HETATM    6  O   UNL     1     -13.628  12.213  71.858  1.00  0.00    -0.307 OA 
BRANCH   6   7
HETATM    7  C   UNL     1     -13.127  10.972  71.635  1.00  0.00    -0.438 C  
HETATM    8  O   UNL     1     -13.618   9.950  72.087  1.00  0.00    -0.409 OA 
HETATM    9  N   UNL     1     -11.997  11.078  70.866  1.00  0.00    -0.318 N  
HETATM   10  H   UNL     1     -11.544  11.990  70.827  1.00  0.00     0.000 HD 
BRANCH   9  11
HETATM   11  C   UNL     1     -11.424  10.060  70.143  1.00  0.00    -0.277 C  
HETATM   12  N   UNL     1     -11.526   9.988  68.863  1.00  0.00    -0.491 N  
HETATM   13  C   UNL     1     -10.979   8.903  68.214  1.00  0.00     0.121 C  
HETATM   14  H   UNL     1     -12.004  10.720  68.338  1.00  0.00     0.000 HD 
HETATM   15  N   UNL     1     -10.717   7.760  68.995  1.00  0.00    -0.157 N  
HETATM   16  O   UNL     1     -10.765   8.951  67.009  1.00  0.00    -0.248 OA 
HETATM   17  F   UNL     1     -10.477   9.325  72.259  1.00  0.00    -0.348 F  
HETATM   18  C   UNL     1     -10.425   7.929  70.343  1.00  0.00    -0.218 C  
HETATM   19  C   UNL     1     -10.703   9.078  70.958  1.00  0.00    -0.269 C  
BRANCH  15  20
HETATM   20  C   UNL     1     -10.443   6.477  68.331  1.00  0.00    -0.218 C  
HETATM   21  C   UNL     1      -8.194   6.435  67.661  1.00  0.00    -0.118 C  
HETATM   22  O   UNL     1      -9.124   5.995  68.653  1.00  0.00    -0.117 OA 
HETATM   23  C   UNL     1      -7.603   7.784  68.055  1.00  0.00    -0.120 C  
HETATM   24  C   UNL     1      -8.983   6.454  66.357  1.00  0.00    -0.153 C  
HETATM   25  O   UNL     1      -8.788   5.250  65.596  1.00  0.00    -0.144 OA 
HETATM   26  C   UNL     1     -10.453   6.539  66.786  1.00  0.00    -0.230 C  
HETATM   27  H   UNL     1      -9.280   5.262  64.783  1.00  0.00     0.000 HD 
HETATM   28  O   UNL     1     -11.237   5.459  66.254  1.00  0.00    -0.709 OA 
HETATM   29  H   UNL     1     -11.243   5.497  65.304  1.00  0.00     0.000 HD 
ENDBRANCH  15  20
ENDBRANCH   9  11
ENDBRANCH   6   7
ENDBRANCH   5   6
ENDBRANCH   4   5
ENDBRANCH   3   4
ENDBRANCH   2   3
TORSDOF 7
ENDMDL
MODEL      194
REMARK 921   NORMALIZED FREE ENERGY PREDICTED BY IDOCK:   -3.56 KCAL/MOL
REMARK 922        TOTAL FREE ENERGY PREDICTED BY IDOCK:   -6.12 KCAL/MOL
REMARK 923 INTER-LIGAND FREE ENERGY PREDICTED BY IDOCK:   -6.51 KCAL/MOL
REMARK 924 INTRA-LIGAND FREE ENERGY PREDICTED BY IDOCK:    0.39 KCAL/MOL
REMARK 927      BINDING AFFINITY PREDICTED BY RF-SCORE:    0.00 PKD
ROOT
HETATM    1  C   UNL     1      -9.634  20.141  66.859  1.00  0.00    -0.564 C  
HETATM    2  C   UNL     1     -10.363  19.542  68.056  1.00  0.00    -0.564 C  
ENDROOT
BRANCH   2   3
HETATM    3  C   UNL     1     -10.413  18.022  67.953  1.00  0.00    -0.408 C  
BRANCH   3   4
HETATM    4  C   UNL     1     -10.269  17.502  66.518  1.00  0.00    -0.342 C  
BRANCH   4   5
HETATM    5  C   UNL     1     -10.768  16.059  66.469  1.00  0.00    -0.238 C  
BRANCH   5   6
HETATM    6  O   UNL     1     -11.345  15.604  67.700  1.00  0.00    -0.313 OA 
BRANCH   6   7
HETATM    7  C   UNL     1     -10.652  14.589  68.275  1.00  0.00    -0.241 C  
HETATM    8  O   UNL     1      -9.878  14.736  69.206  1.00  0.00    -0.197 OA 
HETATM    9  N   UNL     1     -10.951  13.420  67.623  1.00  0.00    -0.254 N  
HETATM   10  H   UNL     1     -11.361  13.497  66.693  1.00  0.00     0.000 HD 
BRANCH   9  11
HETATM   11  C   UNL     1     -10.745  12.154  68.117  1.00  0.00    -0.211 C  
HETATM   12  N   UNL     1     -11.132  11.807  69.293  1.00  0.00    -0.346 N  
HETATM   13  C   UNL     1     -10.834  10.540  69.742  1.00  0.00    -0.281 C  
HETATM   14  H   UNL     1     -11.651  12.457  69.882  1.00  0.00     0.000 HD 
HETATM   15  N   UNL     1      -9.791   9.860  69.082  1.00  0.00    -0.187 N  
HETATM   16  O   UNL     1     -11.447  10.062  70.689  1.00  0.00    -0.293 OA 
HETATM   17  F   UNL     1      -9.850  11.631  65.916  1.00  0.00    -0.222 F  
HETATM   18  C   UNL     1      -9.549  10.152  67.745  1.00  0.00    -0.148 C  
HETATM   19  C   UNL     1     -10.048  11.256  67.191  1.00  0.00    -0.192 C  
BRANCH  15  20
HETATM   20  C   UNL     1      -9.206   8.660  69.698  1.00  0.00    -0.157 C  
HETATM   21  C   UNL     1      -9.875   6.774  68.471  1.00  0.00    -0.141 C  
HETATM   22  O   UNL     1      -8.811   7.700  68.697  1.00  0.00    -0.128 OA 
HETATM   23  C   UNL     1     -10.790   7.285  67.364  1.00  0.00    -0.317 C  
HETATM   24  C   UNL     1     -10.558   6.614  69.824  1.00  0.00    -0.228 C  
HETATM   25  O   UNL     1     -10.083   5.456  70.530  1.00  0.00    -0.202 OA 
HETATM   26  C   UNL     1     -10.172   7.872  70.613  1.00  0.00    -0.196 C  
HETATM   27  H   UNL     1     -10.509   5.356  71.374  1.00  0.00     0.000 HD 
HETATM   28  O   UNL     1      -9.526   7.555  71.856  1.00  0.00    -0.143 OA 
HETATM   29  H   UNL     1     -10.119   7.070  72.418  1.00  0.00     0.000 HD 
ENDBRANCH  15  20
ENDBRANCH   9  11
ENDBRANCH   6   7
ENDBRANCH   5   6
ENDBRANCH   4   5
ENDBRANCH   3   4
ENDBRANCH   2   3
TORSDOF 7
ENDMDL
MODEL      195
REMARK 921   NORMALIZED FREE ENERGY PREDICTED BY IDOCK:   -3.56 KCAL/MOL
REMARK 922        TOTAL FREE ENERGY PREDICTED BY IDOCK:   -6.12 KCAL/MOL
REMARK 923 INTER-LIGAND FREE ENERGY PREDICTED BY IDOCK:   -5.36 KCAL/MOL
REMARK 924 INTRA-LIGAND FREE ENERGY PREDICTED BY IDOCK:   -0.75 KCAL/MOL
REMARK 927      BINDING AFFINITY PREDICTED BY RF-SCORE:    0.00 PKD
ROOT
HETATM    1  C   UNL     1     -12.183  16.016  71.736  1.00  0.00    -0.535 C  
HETATM    2  C   UNL     1     -13.519  15.765  72.425  1.00  0.00    -0.549 C  
ENDROOT
BRANCH   2   3
HETATM    3  C   UNL     1     -14.174  14.497  71.888  1.00  0.00    -0.622 C  
BRANCH   3   4
HETATM    4  C   UNL     1     -13.745  13.227  72.632  1.00  0.00    -0.465 C  
BRANCH   4   5
HETATM    5  C   UNL     1     -12.740  12.470  71.766  1.00  0.00    -0.139 C  
BRANCH   5   6
HETATM    6  O   UNL     1     -13.116  11.114  71.493  1.00  0.00    -0.425 OA 
BRANCH   6   7
HETATM    7  C   UNL     1     -12.067  10.253  71.506  1.00  0.00    -0.314 C  
HETATM    8  O   UNL     1     -11.983   9.295  72.256  1.00  0.00    -0.299 OA 
HETATM    9  N   UNL     1     -11.144  10.660  70.577  1.00  0.00    -0.441 N  
HETATM   10  H   UNL     1     -11.203  11.626  70.254  1.00  0.00     0.000 HD 
BRANCH   9  11
HETATM   11  C   UNL     1     -10.147   9.879  70.045  1.00  0.00    -0.260 C  
HETATM   12  N   UNL     1      -9.028   9.691  70.650  1.00  0.00    -0.297 N  
HETATM   13  C   UNL     1      -8.053   8.947  70.025  1.00  0.00    -0.116 C  
HETATM   14  H   UNL     1      -8.866  10.084  71.577  1.00  0.00     0.000 HD 
HETATM   15  N   UNL     1      -8.166   8.794  68.629  1.00  0.00    -0.116 N  
HETATM   16  O   UNL     1      -7.128   8.474  70.675  1.00  0.00    -0.041 OA 
HETATM   17  F   UNL     1     -11.728   9.381  68.265  1.00  0.00     0.198 F  
HETATM   18  C   UNL     1      -9.433   8.819  68.059  1.00  0.00    -0.143 C  
HETATM   19  C   UNL     1     -10.474   9.297  68.740  1.00  0.00    -0.210 C  
BRANCH  15  20
HETATM   20  C   UNL     1      -7.015   8.300  67.859  1.00  0.00    -0.078 C  
HETATM   21  C   UNL     1      -6.372   9.948  66.315  1.00  0.00    -0.072 C  
HETATM   22  O   UNL     1      -6.078   9.361  67.585  1.00  0.00    -0.052 OA 
HETATM   23  C   UNL     1      -7.356  11.100  66.484  1.00  0.00    -0.129 C  
HETATM   24  C   UNL     1      -6.894   8.800  65.458  1.00  0.00    -0.075 C  
HETATM   25  O   UNL     1      -5.861   8.233  64.636  1.00  0.00    -0.047 OA 
HETATM   26  C   UNL     1      -7.369   7.742  66.461  1.00  0.00    -0.087 C  
HETATM   27  H   UNL     1      -6.186   7.518  64.101  1.00  0.00     0.000 HD 
HETATM   28  O   UNL     1      -6.724   6.474  66.258  1.00  0.00    -0.050 OA 
HETATM   29  H   UNL     1      -6.942   6.131  65.400  1.00  0.00     0.000 HD 
ENDBRANCH  15  20
ENDBRANCH   9  11
ENDBRANCH   6   7
ENDBRANCH   5   6
ENDBRANCH   4   5
ENDBRANCH   3   4
ENDBRANCH   2   3
TORSDOF 7
ENDMDL
MODEL      196
REMARK 921   NORMALIZED FREE ENERGY PREDICTED BY IDOCK:   -3.56 KCAL/MOL
REMARK 922        TOTAL FREE ENERGY PREDICTED BY IDOCK:   -6.11 KCAL/MOL
REMARK 923 INTER-LIGAND FREE ENERGY PREDICTED BY IDOCK:   -5.29 KCAL/MOL
REMARK 924 INTRA-LIGAND FREE ENERGY PREDICTED BY IDOCK:   -0.82 KCAL/MOL
REMARK 927      BINDING AFFINITY PREDICTED BY RF-SCORE:    0.00 PKD
ROOT
HETATM    1  C   UNL     1      -9.801  19.624  68.726  1.00  0.00    -0.519 C  
HETATM    2  C   UNL     1      -9.418  19.003  67.387  1.00  0.00    -0.347 C  
ENDROOT
BRANCH   2   3
HETATM    3  C   UNL     1     -10.406  17.910  66.996  1.00  0.00    -0.366 C  
BRANCH   3   4
HETATM    4  C   UNL     1      -9.871  16.962  65.916  1.00  0.00    -0.241 C  
BRANCH   4   5
HETATM    5  C   UNL     1     -10.473  15.576  66.142  1.00  0.00    -0.313 C  
BRANCH   5   6
HETATM    6  O   UNL     1      -9.670  14.505  65.629  1.00  0.00    -0.316 OA 
BRANCH   6   7
HETATM    7  C   UNL     1     -10.058  13.283  66.072  1.00  0.00    -0.299 C  
HETATM    8  O   UNL     1     -11.102  13.075  66.667  1.00  0.00    -0.278 OA 
HETATM    9  N   UNL     1      -9.083  12.368  65.765  1.00  0.00    -0.432 N  
HETATM   10  H   UNL     1      -8.154  12.730  65.553  1.00  0.00     0.000 HD 
BRANCH   9  11
HETATM   11  C   UNL     1      -9.252  11.005  65.720  1.00  0.00    -0.205 C  
HETATM   12  N   UNL     1      -9.584  10.321  66.757  1.00  0.00    -0.167 N  
HETATM   13  C   UNL     1      -9.672   8.951  66.648  1.00  0.00    -0.237 C  
HETATM   14  H   UNL     1      -9.779  10.785  67.644  1.00  0.00     0.000 HD 
HETATM   15  N   UNL     1      -9.006   8.355  65.559  1.00  0.00    -0.144 N  
HETATM   16  O   UNL     1     -10.287   8.305  67.488  1.00  0.00    -0.229 OA 
HETATM   17  F   UNL     1      -8.862  11.212  63.328  1.00  0.00    -0.191 F  
HETATM   18  C   UNL     1      -8.848   9.093  64.392  1.00  0.00    -0.116 C  
HETATM   19  C   UNL     1      -9.014  10.415  64.399  1.00  0.00    -0.223 C  
BRANCH  15  20
HETATM   20  C   UNL     1      -8.783   6.902  65.555  1.00  0.00    -0.025 C  
HETATM   21  C   UNL     1      -6.594   6.468  66.283  1.00  0.00    -0.048 C  
HETATM   22  O   UNL     1      -7.969   6.496  66.673  1.00  0.00    -0.105 OA 
HETATM   23  C   UNL     1      -5.948   7.825  66.534  1.00  0.00    -0.041 C  
HETATM   24  C   UNL     1      -6.605   6.040  64.820  1.00  0.00    -0.038 C  
HETATM   25  O   UNL     1      -6.379   4.628  64.673  1.00  0.00    -0.032 OA 
HETATM   26  C   UNL     1      -8.016   6.374  64.320  1.00  0.00    -0.102 C  
HETATM   27  H   UNL     1      -6.385   4.362  63.761  1.00  0.00     0.000 HD 
HETATM   28  O   UNL     1      -8.685   5.225  63.778  1.00  0.00    -0.283 OA 
HETATM   29  H   UNL     1      -8.213   4.900  63.020  1.00  0.00     0.000 HD 
ENDBRANCH  15  20
ENDBRANCH   9  11
ENDBRANCH   6   7
ENDBRANCH   5   6
ENDBRANCH   4   5
ENDBRANCH   3   4
ENDBRANCH   2   3
TORSDOF 7
ENDMDL
MODEL      197
REMARK 921   NORMALIZED FREE ENERGY PREDICTED BY IDOCK:   -3.55 KCAL/MOL
REMARK 922        TOTAL FREE ENERGY PREDICTED BY IDOCK:   -6.11 KCAL/MOL
REMARK 923 INTER-LIGAND FREE ENERGY PREDICTED BY IDOCK:   -6.19 KCAL/MOL
REMARK 924 INTRA-LIGAND FREE ENERGY PREDICTED BY IDOCK:    0.08 KCAL/MOL
REMARK 927      BINDING AFFINITY PREDICTED BY RF-SCORE:    0.00 PKD
ROOT
HETATM    1  C   UNL     1     -13.028  13.050  64.589  1.00  0.00    -0.161 C  
HETATM    2  C   UNL     1     -11.873  12.413  65.353  1.00  0.00    -0.460 C  
ENDROOT
BRANCH   2   3
HETATM    3  C   UNL     1     -11.276  11.255  64.561  1.00  0.00    -0.176 C  
BRANCH   3   4
HETATM    4  C   UNL     1      -9.908  10.799  65.084  1.00  0.00    -0.333 C  
BRANCH   4   5
HETATM    5  C   UNL     1     -10.029  10.509  66.579  1.00  0.00    -0.214 C  
BRANCH   5   6
HETATM    6  O   UNL     1      -8.918  10.979  67.352  1.00  0.00    -0.140 OA 
BRANCH   6   7
HETATM    7  C   UNL     1      -8.984  12.303  67.640  1.00  0.00    -0.181 C  
HETATM    8  O   UNL     1      -9.261  12.746  68.742  1.00  0.00    -0.012 OA 
HETATM    9  N   UNL     1      -8.723  13.021  66.501  1.00  0.00    -0.430 N  
HETATM   10  H   UNL     1      -8.815  12.533  65.611  1.00  0.00     0.000 HD 
BRANCH   9  11
HETATM   11  C   UNL     1      -8.347  14.342  66.457  1.00  0.00     0.390 C  
HETATM   12  N   UNL     1      -7.220  14.749  66.925  1.00  0.00    -0.046 N  
HETATM   13  C   UNL     1      -6.941  16.097  66.903  1.00  0.00    -0.152 C  
HETATM   14  H   UNL     1      -6.546  14.086  67.305  1.00  0.00     0.000 HD 
HETATM   15  N   UNL     1      -8.037  16.972  66.764  1.00  0.00    -0.219 N  
HETATM   16  O   UNL     1      -5.787  16.489  67.025  1.00  0.00    -0.213 OA 
HETATM   17  F   UNL     1     -10.401  14.704  65.205  1.00  0.00    -0.314 F  
HETATM   18  C   UNL     1      -9.159  16.527  66.075  1.00  0.00    -0.255 C  
HETATM   19  C   UNL     1      -9.340  15.228  65.842  1.00  0.00    -0.273 C  
BRANCH  15  20
HETATM   20  C   UNL     1      -7.862  18.403  67.053  1.00  0.00    -0.227 C  
HETATM   21  C   UNL     1      -9.617  19.118  68.437  1.00  0.00    -0.378 C  
HETATM   22  O   UNL     1      -8.247  18.712  68.407  1.00  0.00    -0.314 OA 
HETATM   23  C   UNL     1     -10.520  17.907  68.645  1.00  0.00    -0.269 C  
HETATM   24  C   UNL     1      -9.845  19.849  67.119  1.00  0.00    -0.406 C  
HETATM   25  O   UNL     1      -9.717  21.273  67.267  1.00  0.00    -0.590 OA 
HETATM   26  C   UNL     1      -8.734  19.344  66.190  1.00  0.00    -0.279 C  
HETATM   27  H   UNL     1      -9.859  21.728  66.446  1.00  0.00     0.000 HD 
HETATM   28  O   UNL     1      -7.935  20.416  65.666  1.00  0.00    -0.535 OA 
HETATM   29  H   UNL     1      -8.471  20.994  65.136  1.00  0.00     0.000 HD 
ENDBRANCH  15  20
ENDBRANCH   9  11
ENDBRANCH   6   7
ENDBRANCH   5   6
ENDBRANCH   4   5
ENDBRANCH   3   4
ENDBRANCH   2   3
TORSDOF 7
ENDMDL
MODEL      198
REMARK 921   NORMALIZED FREE ENERGY PREDICTED BY IDOCK:   -3.55 KCAL/MOL
REMARK 922        TOTAL FREE ENERGY PREDICTED BY IDOCK:   -6.10 KCAL/MOL
REMARK 923 INTER-LIGAND FREE ENERGY PREDICTED BY IDOCK:   -6.60 KCAL/MOL
REMARK 924 INTRA-LIGAND FREE ENERGY PREDICTED BY IDOCK:    0.50 KCAL/MOL
REMARK 927      BINDING AFFINITY PREDICTED BY RF-SCORE:    0.00 PKD
ROOT
HETATM    1  C   UNL     1      -5.870   6.447  64.195  1.00  0.00    -0.023 C  
HETATM    2  C   UNL     1      -7.338   6.591  63.812  1.00  0.00    -0.074 C  
ENDROOT
BRANCH   2   3
HETATM    3  C   UNL     1      -8.018   7.654  64.668  1.00  0.00    -0.136 C  
BRANCH   3   4
HETATM    4  C   UNL     1      -8.101   9.026  63.987  1.00  0.00    -0.158 C  
BRANCH   4   5
HETATM    5  C   UNL     1      -8.585  10.050  65.011  1.00  0.00    -0.162 C  
BRANCH   5   6
HETATM    6  O   UNL     1     -10.012  10.158  65.092  1.00  0.00    -0.310 OA 
BRANCH   6   7
HETATM    7  C   UNL     1     -10.471  10.289  66.362  1.00  0.00    -0.163 C  
HETATM    8  O   UNL     1     -10.319   9.446  67.230  1.00  0.00    -0.228 OA 
HETATM    9  N   UNL     1     -11.136  11.484  66.475  1.00  0.00    -0.297 N  
HETATM   10  H   UNL     1     -11.444  11.929  65.611  1.00  0.00     0.000 HD 
BRANCH   9  11
HETATM   11  C   UNL     1     -11.420  12.131  67.653  1.00  0.00    -0.331 C  
HETATM   12  N   UNL     1     -11.812  11.502  68.703  1.00  0.00    -0.332 N  
HETATM   13  C   UNL     1     -12.140  12.226  69.827  1.00  0.00    -0.229 C  
HETATM   14  H   UNL     1     -11.879  10.484  68.704  1.00  0.00     0.000 HD 
HETATM   15  N   UNL     1     -12.426  13.594  69.643  1.00  0.00    -0.190 N  
HETATM   16  O   UNL     1     -12.196  11.675  70.920  1.00  0.00    -0.364 OA 
HETATM   17  F   UNL     1     -10.649  14.146  66.528  1.00  0.00    -0.274 F  
HETATM   18  C   UNL     1     -11.814  14.264  68.590  1.00  0.00    -0.344 C  
HETATM   19  C   UNL     1     -11.244  13.586  67.594  1.00  0.00    -0.279 C  
BRANCH  15  20
HETATM   20  C   UNL     1     -13.087  14.347  70.718  1.00  0.00    -0.285 C  
HETATM   21  C   UNL     1     -11.721  16.157  71.327  1.00  0.00    -0.425 C  
HETATM   22  O   UNL     1     -12.869  15.764  70.572  1.00  0.00    -0.423 OA 
HETATM   23  C   UNL     1     -10.467  16.056  70.467  1.00  0.00     0.100 C  
HETATM   24  C   UNL     1     -11.718  15.245  72.548  1.00  0.00    -0.434 C  
HETATM   25  O   UNL     1     -12.329  15.874  73.688  1.00  0.00    -0.465 OA 
HETATM   26  C   UNL     1     -12.563  14.032  72.139  1.00  0.00    -0.193 C  
HETATM   27  H   UNL     1     -12.326  15.306  74.449  1.00  0.00     0.000 HD 
HETATM   28  O   UNL     1     -13.664  13.810  73.033  1.00  0.00    -0.581 OA 
HETATM   29  H   UNL     1     -13.342  13.617  73.906  1.00  0.00     0.000 HD 
ENDBRANCH  15  20
ENDBRANCH   9  11
ENDBRANCH   6   7
ENDBRANCH   5   6
ENDBRANCH   4   5
ENDBRANCH   3   4
ENDBRANCH   2   3
TORSDOF 7
ENDMDL
MODEL      199
REMARK 921   NORMALIZED FREE ENERGY PREDICTED BY IDOCK:   -3.53 KCAL/MOL
REMARK 922        TOTAL FREE ENERGY PREDICTED BY IDOCK:   -6.07 KCAL/MOL
REMARK 923 INTER-LIGAND FREE ENERGY PREDICTED BY IDOCK:   -5.38 KCAL/MOL
REMARK 924 INTRA-LIGAND FREE ENERGY PREDICTED BY IDOCK:   -0.69 KCAL/MOL
REMARK 927      BINDING AFFINITY PREDICTED BY RF-SCORE:    0.00 PKD
ROOT
HETATM    1  C   UNL     1     -10.672   3.194  63.526  1.00  0.00    -0.246 C  
HETATM    2  C   UNL     1      -9.595   3.962  64.285  1.00  0.00    -0.168 C  
ENDROOT
BRANCH   2   3
HETATM    3  C   UNL     1      -8.774   3.019  65.158  1.00  0.00    -0.117 C  
BRANCH   3   4
HETATM    4  C   UNL     1      -8.383   3.627  66.511  1.00  0.00    -0.104 C  
BRANCH   4   5
HETATM    5  C   UNL     1      -9.657   3.936  67.294  1.00  0.00    -0.180 C  
BRANCH   5   6
HETATM    6  O   UNL     1      -9.560   5.103  68.120  1.00  0.00    -0.123 OA 
BRANCH   6   7
HETATM    7  C   UNL     1      -9.843   6.255  67.460  1.00  0.00    -0.120 C  
HETATM    8  O   UNL     1     -10.945   6.532  67.017  1.00  0.00    -0.368 OA 
HETATM    9  N   UNL     1      -8.699   7.004  67.362  1.00  0.00    -0.120 N  
HETATM   10  H   UNL     1      -7.811   6.520  67.498  1.00  0.00     0.000 HD 
BRANCH   9  11
HETATM   11  C   UNL     1      -8.646   8.351  67.096  1.00  0.00    -0.123 C  
HETATM   12  N   UNL     1      -8.496   9.227  68.025  1.00  0.00    -0.120 N  
HETATM   13  C   UNL     1      -8.517  10.562  67.688  1.00  0.00    -0.115 C  
HETATM   14  H   UNL     1      -8.365   8.938  68.994  1.00  0.00     0.000 HD 
HETATM   15  N   UNL     1      -9.103  10.898  66.452  1.00  0.00    -0.167 N  
HETATM   16  O   UNL     1      -8.062  11.399  68.459  1.00  0.00    -0.137 OA 
HETATM   17  F   UNL     1      -8.738   7.714  64.750  1.00  0.00    -0.070 F  
HETATM   18  C   UNL     1      -9.061   9.965  65.422  1.00  0.00    -0.196 C  
HETATM   19  C   UNL     1      -8.781   8.687  65.675  1.00  0.00    -0.182 C  
BRANCH  15  20
HETATM   20  C   UNL     1      -9.450  12.298  66.172  1.00  0.00    -0.217 C  
HETATM   21  C   UNL     1     -11.540  12.769  67.133  1.00  0.00    -0.364 C  
HETATM   22  O   UNL     1     -10.126  12.902  67.293  1.00  0.00    -0.227 OA 
HETATM   23  C   UNL     1     -12.021  11.470  67.770  1.00  0.00    -0.100 C  
HETATM   24  C   UNL     1     -11.780  12.855  65.631  1.00  0.00    -0.387 C  
HETATM   25  O   UNL     1     -12.146  14.184  65.223  1.00  0.00    -0.370 OA 
HETATM   26  C   UNL     1     -10.432  12.493  64.993  1.00  0.00    -0.297 C  
HETATM   27  H   UNL     1     -12.296  14.238  64.286  1.00  0.00     0.000 HD 
HETATM   28  O   UNL     1      -9.952  13.524  64.116  1.00  0.00    -0.766 OA 
HETATM   29  H   UNL     1     -10.556  13.645  63.392  1.00  0.00     0.000 HD 
ENDBRANCH  15  20
ENDBRANCH   9  11
ENDBRANCH   6   7
ENDBRANCH   5   6
ENDBRANCH   4   5
ENDBRANCH   3   4
ENDBRANCH   2   3
TORSDOF 7
ENDMDL
MODEL      200
REMARK 921   NORMALIZED FREE ENERGY PREDICTED BY IDOCK:   -3.52 KCAL/MOL
REMARK 922        TOTAL FREE ENERGY PREDICTED BY IDOCK:   -6.06 KCAL/MOL
REMARK 923 INTER-LIGAND FREE ENERGY PREDICTED BY IDOCK:   -5.23 KCAL/MOL
REMARK 924 INTRA-LIGAND FREE ENERGY PREDICTED BY IDOCK:   -0.82 KCAL/MOL
REMARK 927      BINDING AFFINITY PREDICTED BY RF-SCORE:    0.00 PKD
ROOT
HETATM    1  C   UNL     1     -11.650  15.290  65.032  1.00  0.00    -0.239 C  
HETATM    2  C   UNL     1     -11.005  14.306  66.001  1.00  0.00    -0.312 C  
ENDROOT
BRANCH   2   3
HETATM    3  C   UNL     1     -11.582  12.907  65.815  1.00  0.00    -0.411 C  
BRANCH   3   4
HETATM    4  C   UNL     1     -10.886  12.100  64.712  1.00  0.00    -0.351 C  
BRANCH   4   5
HETATM    5  C   UNL     1      -9.840  11.193  65.357  1.00  0.00    -0.242 C  
BRANCH   5   6
HETATM    6  O   UNL     1     -10.196   9.805  65.354  1.00  0.00    -0.246 OA 
BRANCH   6   7
HETATM    7  C   UNL     1     -10.119   9.227  66.579  1.00  0.00    -0.273 C  
HETATM    8  O   UNL     1     -10.414   8.064  66.802  1.00  0.00    -0.330 OA 
HETATM    9  N   UNL     1      -9.692  10.162  67.488  1.00  0.00    -0.159 N  
HETATM   10  H   UNL     1      -9.783  11.143  67.224  1.00  0.00     0.000 HD 
BRANCH   9  11
HETATM   11  C   UNL     1      -9.154   9.890  68.722  1.00  0.00    -0.147 C  
HETATM   12  N   UNL     1      -7.885   9.873  68.926  1.00  0.00    -0.086 N  
HETATM   13  C   UNL     1      -7.419   9.529  70.176  1.00  0.00    -0.135 C  
HETATM   14  H   UNL     1      -7.235  10.109  68.177  1.00  0.00     0.000 HD 
HETATM   15  N   UNL     1      -8.307   8.828  71.016  1.00  0.00    -0.156 N  
HETATM   16  O   UNL     1      -6.273   9.811  70.505  1.00  0.00    -0.065 OA 
HETATM   17  F   UNL     1     -11.452   9.846  69.520  1.00  0.00    -0.245 F  
HETATM   18  C   UNL     1      -9.672   9.041  70.864  1.00  0.00    -0.264 C  
HETATM   19  C   UNL     1     -10.150   9.619  69.763  1.00  0.00    -0.233 C  
BRANCH  15  20
HETATM   20  C   UNL     1      -7.789   8.154  72.216  1.00  0.00    -0.127 C  
HETATM   21  C   UNL     1      -8.090   5.839  71.974  1.00  0.00    -0.112 C  
HETATM   22  O   UNL     1      -7.147   6.909  71.877  1.00  0.00    -0.072 OA 
HETATM   23  C   UNL     1      -8.793   5.634  70.638  1.00  0.00    -0.145 C  
HETATM   24  C   UNL     1      -9.019   6.230  73.117  1.00  0.00    -0.129 C  
HETATM   25  O   UNL     1      -8.629   5.619  74.358  1.00  0.00    -0.114 OA 
HETATM   26  C   UNL     1      -8.871   7.752  73.244  1.00  0.00    -0.221 C  
HETATM   27  H   UNL     1      -9.209   5.863  75.071  1.00  0.00     0.000 HD 
HETATM   28  O   UNL     1      -8.470   8.150  74.564  1.00  0.00    -0.420 OA 
HETATM   29  H   UNL     1      -9.135   7.902  75.196  1.00  0.00     0.000 HD 
ENDBRANCH  15  20
ENDBRANCH   9  11
ENDBRANCH   6   7
ENDBRANCH   5   6
ENDBRANCH   4   5
ENDBRANCH   3   4
ENDBRANCH   2   3
TORSDOF 7
ENDMDL
MODEL      201
REMARK 921   NORMALIZED FREE ENERGY PREDICTED BY IDOCK:   -3.52 KCAL/MOL
REMARK 922        TOTAL FREE ENERGY PREDICTED BY IDOCK:   -6.06 KCAL/MOL
REMARK 923 INTER-LIGAND FREE ENERGY PREDICTED BY IDOCK:   -6.54 KCAL/MOL
REMARK 924 INTRA-LIGAND FREE ENERGY PREDICTED BY IDOCK:    0.49 KCAL/MOL
REMARK 927      BINDING AFFINITY PREDICTED BY RF-SCORE:    0.00 PKD
ROOT
HETATM    1  C   UNL     1     -10.550  18.795  66.548  1.00  0.00    -0.436 C  
HETATM    2  C   UNL     1      -9.365  17.977  67.048  1.00  0.00    -0.265 C  
ENDROOT
BRANCH   2   3
HETATM    3  C   UNL     1      -9.159  16.740  66.181  1.00  0.00    -0.288 C  
BRANCH   3   4
HETATM    4  C   UNL     1     -10.407  16.334  65.388  1.00  0.00    -0.320 C  
BRANCH   4   5
HETATM    5  C   UNL     1     -10.565  14.817  65.469  1.00  0.00    -0.359 C  
BRANCH   5   6
HETATM    6  O   UNL     1     -11.897  14.358  65.210  1.00  0.00    -0.353 OA 
BRANCH   6   7
HETATM    7  C   UNL     1     -12.079  13.044  65.497  1.00  0.00    -0.452 C  
HETATM    8  O   UNL     1     -12.982  12.366  65.035  1.00  0.00    -0.705 OA 
HETATM    9  N   UNL     1     -11.117  12.645  66.390  1.00  0.00    -0.276 N  
HETATM   10  H   UNL     1     -10.635  13.376  66.912  1.00  0.00     0.000 HD 
BRANCH   9  11
HETATM   11  C   UNL     1     -10.748  11.346  66.639  1.00  0.00    -0.269 C  
HETATM   12  N   UNL     1     -10.003  10.679  65.831  1.00  0.00    -0.243 N  
HETATM   13  C   UNL     1      -9.727   9.360  66.117  1.00  0.00    -0.265 C  
HETATM   14  H   UNL     1      -9.623  11.118  64.993  1.00  0.00     0.000 HD 
HETATM   15  N   UNL     1     -10.589   8.712  67.024  1.00  0.00    -0.277 N  
HETATM   16  O   UNL     1      -8.784   8.797  65.575  1.00  0.00    -0.166 OA 
HETATM   17  F   UNL     1     -11.887  11.615  68.771  1.00  0.00    -0.307 F  
HETATM   18  C   UNL     1     -11.221   9.474  68.000  1.00  0.00     0.148 C  
HETATM   19  C   UNL     1     -11.282  10.801  67.891  1.00  0.00    -0.318 C  
BRANCH  15  20
HETATM   20  C   UNL     1     -10.559   7.247  67.130  1.00  0.00    -0.346 C  
HETATM   21  C   UNL     1      -9.729   6.656  69.245  1.00  0.00    -0.146 C  
HETATM   22  O   UNL     1     -10.912   6.813  68.459  1.00  0.00    -0.231 OA 
HETATM   23  C   UNL     1      -9.391   7.963  69.953  1.00  0.00    -0.156 C  
HETATM   24  C   UNL     1      -8.661   6.181  68.266  1.00  0.00    -0.116 C  
HETATM   25  O   UNL     1      -8.518   4.751  68.283  1.00  0.00    -0.097 OA 
HETATM   26  C   UNL     1      -9.169   6.614  66.885  1.00  0.00    -0.142 C  
HETATM   27  H   UNL     1      -7.852   4.455  67.673  1.00  0.00     0.000 HD 
HETATM   28  O   UNL     1      -9.284   5.506  65.978  1.00  0.00    -0.157 OA 
HETATM   29  H   UNL     1      -8.430   5.117  65.828  1.00  0.00     0.000 HD 
ENDBRANCH  15  20
ENDBRANCH   9  11
ENDBRANCH   6   7
ENDBRANCH   5   6
ENDBRANCH   4   5
ENDBRANCH   3   4
ENDBRANCH   2   3
TORSDOF 7
ENDMDL
MODEL      202
REMARK 921   NORMALIZED FREE ENERGY PREDICTED BY IDOCK:   -3.48 KCAL/MOL
REMARK 922        TOTAL FREE ENERGY PREDICTED BY IDOCK:   -6.00 KCAL/MOL
REMARK 923 INTER-LIGAND FREE ENERGY PREDICTED BY IDOCK:   -5.80 KCAL/MOL
REMARK 924 INTRA-LIGAND FREE ENERGY PREDICTED BY IDOCK:   -0.20 KCAL/MOL
REMARK 927      BINDING AFFINITY PREDICTED BY RF-SCORE:    0.00 PKD
ROOT
HETATM    1  C   UNL     1      -7.449  14.371  67.926  1.00  0.00    -0.160 C  
HETATM    2  C   UNL     1      -8.188  15.674  68.209  1.00  0.00    -0.142 C  
ENDROOT
BRANCH   2   3
HETATM    3  C   UNL     1      -9.245  15.472  69.289  1.00  0.00    -0.268 C  
BRANCH   3   4
HETATM    4  C   UNL     1     -10.625  16.017  68.902  1.00  0.00    -0.257 C  
BRANCH   4   5
HETATM    5  C   UNL     1     -10.670  16.199  67.386  1.00  0.00    -0.291 C  
BRANCH   5   6
HETATM    6  O   UNL     1     -11.583  15.315  66.723  1.00  0.00    -0.215 OA 
BRANCH   6   7
HETATM    7  C   UNL     1     -11.007  14.157  66.312  1.00  0.00    -0.303 C  
HETATM    8  O   UNL     1     -10.110  14.099  65.488  1.00  0.00    -0.329 OA 
HETATM    9  N   UNL     1     -11.617  13.105  66.947  1.00  0.00    -0.348 N  
HETATM   10  H   UNL     1     -12.534  13.278  67.360  1.00  0.00     0.000 HD 
BRANCH   9  11
HETATM   11  C   UNL     1     -11.099  11.840  67.076  1.00  0.00    -0.304 C  
HETATM   12  N   UNL     1     -10.674  11.168  66.065  1.00  0.00    -0.243 N  
HETATM   13  C   UNL     1     -10.227   9.881  66.264  1.00  0.00    -0.211 C  
HETATM   14  H   UNL     1     -10.667  11.581  65.133  1.00  0.00     0.000 HD 
HETATM   15  N   UNL     1     -10.639   9.240  67.449  1.00  0.00    -0.278 N  
HETATM   16  O   UNL     1      -9.525   9.335  65.420  1.00  0.00    -0.254 OA 
HETATM   17  F   UNL     1     -11.362  12.164  69.472  1.00  0.00    -0.295 F  
HETATM   18  C   UNL     1     -10.901  10.020  68.569  1.00  0.00    -0.231 C  
HETATM   19  C   UNL     1     -11.084  11.335  68.452  1.00  0.00    -0.240 C  
BRANCH  15  20
HETATM   20  C   UNL     1     -10.477   7.785  67.579  1.00  0.00    -0.268 C  
HETATM   21  C   UNL     1      -8.431   7.341  68.642  1.00  0.00    -0.129 C  
HETATM   22  O   UNL     1      -9.845   7.440  68.828  1.00  0.00    -0.157 OA 
HETATM   23  C   UNL     1      -7.772   8.693  68.886  1.00  0.00    -0.100 C  
HETATM   24  C   UNL     1      -8.254   6.804  67.226  1.00  0.00    -0.121 C  
HETATM   25  O   UNL     1      -8.068   5.379  67.213  1.00  0.00    -0.101 OA 
HETATM   26  C   UNL     1      -9.567   7.142  66.508  1.00  0.00    -0.144 C  
HETATM   27  H   UNL     1      -7.957   5.045  66.330  1.00  0.00     0.000 HD 
HETATM   28  O   UNL     1     -10.199   5.975  65.958  1.00  0.00    -0.406 OA 
HETATM   29  H   UNL     1      -9.640   5.580  65.299  1.00  0.00     0.000 HD 
ENDBRANCH  15  20
ENDBRANCH   9  11
ENDBRANCH   6   7
ENDBRANCH   5   6
ENDBRANCH   4   5
ENDBRANCH   3   4
ENDBRANCH   2   3
TORSDOF 7
ENDMDL
MODEL      203
REMARK 921   NORMALIZED FREE ENERGY PREDICTED BY IDOCK:   -3.47 KCAL/MOL
REMARK 922        TOTAL FREE ENERGY PREDICTED BY IDOCK:   -5.99 KCAL/MOL
REMARK 923 INTER-LIGAND FREE ENERGY PREDICTED BY IDOCK:   -5.01 KCAL/MOL
REMARK 924 INTRA-LIGAND FREE ENERGY PREDICTED BY IDOCK:   -0.98 KCAL/MOL
REMARK 927      BINDING AFFINITY PREDICTED BY RF-SCORE:    0.00 PKD
ROOT
HETATM    1  C   UNL     1     -10.325  18.006  68.176  1.00  0.00    -0.398 C  
HETATM    2  C   UNL     1     -10.729  16.564  67.892  1.00  0.00    -0.337 C  
ENDROOT
BRANCH   2   3
HETATM    3  C   UNL     1     -10.266  16.137  66.503  1.00  0.00    -0.304 C  
BRANCH   3   4
HETATM    4  C   UNL     1     -11.090  14.987  65.912  1.00  0.00    -0.334 C  
BRANCH   4   5
HETATM    5  C   UNL     1     -10.191  13.758  65.785  1.00  0.00    -0.311 C  
BRANCH   5   6
HETATM    6  O   UNL     1      -9.255  13.612  66.860  1.00  0.00    -0.237 OA 
BRANCH   6   7
HETATM    7  C   UNL     1      -9.497  12.529  67.641  1.00  0.00    -0.188 C  
HETATM    8  O   UNL     1     -10.169  12.561  68.658  1.00  0.00    -0.220 OA 
HETATM    9  N   UNL     1      -8.847  11.444  67.112  1.00  0.00    -0.153 N  
HETATM   10  H   UNL     1      -8.090  11.629  66.454  1.00  0.00     0.000 HD 
BRANCH   9  11
HETATM   11  C   UNL     1      -9.129  10.129  67.392  1.00  0.00    -0.137 C  
HETATM   12  N   UNL     1      -8.816   9.586  68.515  1.00  0.00    -0.124 N  
HETATM   13  C   UNL     1      -9.074   8.246  68.699  1.00  0.00    -0.140 C  
HETATM   14  H   UNL     1      -8.385  10.138  69.256  1.00  0.00     0.000 HD 
HETATM   15  N   UNL     1      -9.270   7.470  67.539  1.00  0.00    -0.127 N  
HETATM   16  O   UNL     1      -9.101   7.773  69.829  1.00  0.00    -0.146 OA 
HETATM   17  F   UNL     1     -10.268  10.097  65.243  1.00  0.00    -0.362 F  
HETATM   18  C   UNL     1      -9.794   8.087  66.409  1.00  0.00    -0.167 C  
HETATM   19  C   UNL     1      -9.803   9.415  66.303  1.00  0.00    -0.281 C  
BRANCH  15  20
HETATM   20  C   UNL     1      -9.227   6.004  67.633  1.00  0.00    -0.107 C  
HETATM   21  C   UNL     1      -7.106   5.262  66.954  1.00  0.00    -0.066 C  
HETATM   22  O   UNL     1      -7.936   5.548  68.082  1.00  0.00    -0.095 OA 
HETATM   23  C   UNL     1      -6.327   6.506  66.545  1.00  0.00    -0.042 C  
HETATM   24  C   UNL     1      -8.057   4.739  65.883  1.00  0.00    -0.107 C  
HETATM   25  O   UNL     1      -8.097   3.303  65.858  1.00  0.00    -0.091 OA 
HETATM   26  C   UNL     1      -9.439   5.268  66.289  1.00  0.00    -0.156 C  
HETATM   27  H   UNL     1      -8.690   2.977  65.190  1.00  0.00     0.000 HD 
HETATM   28  O   UNL     1     -10.398   4.212  66.451  1.00  0.00    -0.385 OA 
HETATM   29  H   UNL     1     -10.528   3.759  65.625  1.00  0.00     0.000 HD 
ENDBRANCH  15  20
ENDBRANCH   9  11
ENDBRANCH   6   7
ENDBRANCH   5   6
ENDBRANCH   4   5
ENDBRANCH   3   4
ENDBRANCH   2   3
TORSDOF 7
ENDMDL
MODEL      204
REMARK 921   NORMALIZED FREE ENERGY PREDICTED BY IDOCK:   -3.45 KCAL/MOL
REMARK 922        TOTAL FREE ENERGY PREDICTED BY IDOCK:   -5.96 KCAL/MOL
REMARK 923 INTER-LIGAND FREE ENERGY PREDICTED BY IDOCK:   -5.23 KCAL/MOL
REMARK 924 INTRA-LIGAND FREE ENERGY PREDICTED BY IDOCK:   -0.73 KCAL/MOL
REMARK 927      BINDING AFFINITY PREDICTED BY RF-SCORE:    0.00 PKD
ROOT
HETATM    1  C   UNL     1     -13.943  15.460  71.924  1.00  0.00    -0.629 C  
HETATM    2  C   UNL     1     -12.877  14.423  71.591  1.00  0.00    -0.416 C  
ENDROOT
BRANCH   2   3
HETATM    3  C   UNL     1     -11.831  15.006  70.648  1.00  0.00    -0.364 C  
BRANCH   3   4
HETATM    4  C   UNL     1     -12.033  14.596  69.184  1.00  0.00    -0.329 C  
BRANCH   4   5
HETATM    5  C   UNL     1     -11.826  13.088  69.067  1.00  0.00    -0.316 C  
BRANCH   5   6
HETATM    6  O   UNL     1     -11.388  12.662  67.770  1.00  0.00    -0.259 OA 
BRANCH   6   7
HETATM    7  C   UNL     1     -10.549  11.596  67.809  1.00  0.00    -0.194 C  
HETATM    8  O   UNL     1      -9.672  11.452  68.644  1.00  0.00    -0.192 OA 
HETATM    9  N   UNL     1     -10.839  10.761  66.760  1.00  0.00    -0.230 N  
HETATM   10  H   UNL     1     -11.373  11.155  65.986  1.00  0.00     0.000 HD 
BRANCH   9  11
HETATM   11  C   UNL     1     -10.471   9.441  66.664  1.00  0.00    -0.168 C  
HETATM   12  N   UNL     1     -11.090   8.511  67.300  1.00  0.00    -0.301 N  
HETATM   13  C   UNL     1     -10.624   7.218  67.204  1.00  0.00    -0.346 C  
HETATM   14  H   UNL     1     -11.911   8.725  67.866  1.00  0.00     0.000 HD 
HETATM   15  N   UNL     1      -9.292   7.052  66.773  1.00  0.00    -0.151 N  
HETATM   16  O   UNL     1     -11.347   6.278  67.510  1.00  0.00    -0.246 OA 
HETATM   17  F   UNL     1      -8.854  10.193  65.009  1.00  0.00    -0.149 F  
HETATM   18  C   UNL     1      -8.745   8.009  65.926  1.00  0.00    -0.157 C  
HETATM   19  C   UNL     1      -9.322   9.201  65.787  1.00  0.00    -0.245 C  
BRANCH  15  20
HETATM   20  C   UNL     1      -8.630   5.752  66.952  1.00  0.00    -0.111 C  
HETATM   21  C   UNL     1      -6.857   6.006  68.469  1.00  0.00    -0.070 C  
HETATM   22  O   UNL     1      -8.208   5.566  68.318  1.00  0.00    -0.096 OA 
HETATM   23  C   UNL     1      -6.824   7.483  68.847  1.00  0.00    -0.068 C  
HETATM   24  C   UNL     1      -6.183   5.685  67.140  1.00  0.00    -0.034 C  
HETATM   25  O   UNL     1      -5.479   4.433  67.185  1.00  0.00    -0.012 OA 
HETATM   26  C   UNL     1      -7.333   5.574  66.131  1.00  0.00    -0.078 C  
HETATM   27  H   UNL     1      -5.059   4.233  66.357  1.00  0.00     0.000 HD 
HETATM   28  O   UNL     1      -7.344   4.304  65.460  1.00  0.00    -0.074 OA 
HETATM   29  H   UNL     1      -6.546   4.194  64.955  1.00  0.00     0.000 HD 
ENDBRANCH  15  20
ENDBRANCH   9  11
ENDBRANCH   6   7
ENDBRANCH   5   6
ENDBRANCH   4   5
ENDBRANCH   3   4
ENDBRANCH   2   3
TORSDOF 7
ENDMDL
MODEL      205
REMARK 921   NORMALIZED FREE ENERGY PREDICTED BY IDOCK:   -3.44 KCAL/MOL
REMARK 922        TOTAL FREE ENERGY PREDICTED BY IDOCK:   -5.95 KCAL/MOL
REMARK 923 INTER-LIGAND FREE ENERGY PREDICTED BY IDOCK:   -5.05 KCAL/MOL
REMARK 924 INTRA-LIGAND FREE ENERGY PREDICTED BY IDOCK:   -0.90 KCAL/MOL
REMARK 927      BINDING AFFINITY PREDICTED BY RF-SCORE:    0.00 PKD
ROOT
HETATM    1  C   UNL     1      -5.887  11.924  68.656  1.00  0.00    -0.049 C  
HETATM    2  C   UNL     1      -7.274  12.545  68.532  1.00  0.00    -0.110 C  
ENDROOT
BRANCH   2   3
HETATM    3  C   UNL     1      -7.730  12.563  67.078  1.00  0.00    -0.044 C  
BRANCH   3   4
HETATM    4  C   UNL     1      -9.243  12.754  66.914  1.00  0.00    -0.229 C  
BRANCH   4   5
HETATM    5  C   UNL     1      -9.863  12.936  68.298  1.00  0.00    -0.228 C  
BRANCH   5   6
HETATM    6  O   UNL     1     -11.041  12.148  68.513  1.00  0.00    -0.219 OA 
BRANCH   6   7
HETATM    7  C   UNL     1     -10.775  10.886  68.935  1.00  0.00    -0.215 C  
HETATM    8  O   UNL     1     -10.244  10.035  68.242  1.00  0.00    -0.159 OA 
HETATM    9  N   UNL     1     -11.222  10.744  70.224  1.00  0.00    -0.430 N  
HETATM   10  H   UNL     1     -11.906  11.422  70.557  1.00  0.00     0.000 HD 
BRANCH   9  11
HETATM   11  C   UNL     1     -10.826   9.766  71.104  1.00  0.00    -0.263 C  
HETATM   12  N   UNL     1      -9.597   9.609  71.446  1.00  0.00    -0.004 N  
HETATM   13  C   UNL     1      -9.269   8.566  72.283  1.00  0.00    -0.272 C  
HETATM   14  H   UNL     1      -8.878  10.245  71.104  1.00  0.00     0.000 HD 
HETATM   15  N   UNL     1     -10.197   7.510  72.378  1.00  0.00    -0.199 N  
HETATM   16  O   UNL     1      -8.202   8.572  72.885  1.00  0.00    -0.344 OA 
HETATM   17  F   UNL     1     -13.196   9.274  71.351  1.00  0.00    -0.346 F  
HETATM   18  C   UNL     1     -11.544   7.790  72.181  1.00  0.00    -0.317 C  
HETATM   19  C   UNL     1     -11.922   8.928  71.601  1.00  0.00    -0.345 C  
BRANCH  15  20
HETATM   20  C   UNL     1      -9.784   6.236  72.984  1.00  0.00    -0.154 C  
HETATM   21  C   UNL     1      -9.037   4.796  71.287  1.00  0.00    -0.138 C  
HETATM   22  O   UNL     1      -8.625   5.694  72.319  1.00  0.00    -0.127 OA 
HETATM   23  C   UNL     1      -9.216   5.550  69.974  1.00  0.00    -0.172 C  
HETATM   24  C   UNL     1     -10.309   4.143  71.812  1.00  0.00    -0.012 C  
HETATM   25  O   UNL     1     -10.045   2.868  72.422  1.00  0.00    -0.156 OA 
HETATM   26  C   UNL     1     -10.835   5.106  72.884  1.00  0.00    -0.268 C  
HETATM   27  H   UNL     1     -10.838   2.461  72.749  1.00  0.00     0.000 HD 
HETATM   28  O   UNL     1     -10.995   4.466  74.159  1.00  0.00    -0.246 OA 
HETATM   29  H   UNL     1     -11.640   3.771  74.097  1.00  0.00     0.000 HD 
ENDBRANCH  15  20
ENDBRANCH   9  11
ENDBRANCH   6   7
ENDBRANCH   5   6
ENDBRANCH   4   5
ENDBRANCH   3   4
ENDBRANCH   2   3
TORSDOF 7
ENDMDL
MODEL      206
REMARK 921   NORMALIZED FREE ENERGY PREDICTED BY IDOCK:   -3.42 KCAL/MOL
REMARK 922        TOTAL FREE ENERGY PREDICTED BY IDOCK:   -5.92 KCAL/MOL
REMARK 923 INTER-LIGAND FREE ENERGY PREDICTED BY IDOCK:   -6.02 KCAL/MOL
REMARK 924 INTRA-LIGAND FREE ENERGY PREDICTED BY IDOCK:    0.10 KCAL/MOL
REMARK 927      BINDING AFFINITY PREDICTED BY RF-SCORE:    0.00 PKD
ROOT
HETATM    1  C   UNL     1     -12.706  11.845  63.740  1.00  0.00    -0.466 C  
HETATM    2  C   UNL     1     -11.556  12.842  63.654  1.00  0.00    -0.547 C  
ENDROOT
BRANCH   2   3
HETATM    3  C   UNL     1     -10.365  12.366  64.477  1.00  0.00    -0.351 C  
BRANCH   3   4
HETATM    4  C   UNL     1      -9.818  13.433  65.434  1.00  0.00    -0.132 C  
BRANCH   4   5
HETATM    5  C   UNL     1      -9.941  12.913  66.865  1.00  0.00    -0.238 C  
BRANCH   5   6
HETATM    6  O   UNL     1     -11.294  12.763  67.313  1.00  0.00    -0.279 OA 
BRANCH   6   7
HETATM    7  C   UNL     1     -11.411  11.994  68.424  1.00  0.00    -0.279 C  
HETATM    8  O   UNL     1     -12.337  12.076  69.214  1.00  0.00    -0.133 OA 
HETATM    9  N   UNL     1     -10.324  11.161  68.506  1.00  0.00    -0.185 N  
HETATM   10  H   UNL     1      -9.501  11.415  67.961  1.00  0.00     0.000 HD 
BRANCH   9  11
HETATM   11  C   UNL     1     -10.251  10.015  69.260  1.00  0.00    -0.214 C  
HETATM   12  N   UNL     1     -11.189   9.136  69.262  1.00  0.00    -0.440 N  
HETATM   13  C   UNL     1     -11.072   8.043  70.092  1.00  0.00    -0.191 C  
HETATM   14  H   UNL     1     -12.005   9.245  68.661  1.00  0.00     0.000 HD 
HETATM   15  N   UNL     1     -10.168   8.154  71.168  1.00  0.00    -0.192 N  
HETATM   16  O   UNL     1     -11.753   7.044  69.895  1.00  0.00    -0.189 OA 
HETATM   17  F   UNL     1      -8.009  10.755  69.849  1.00  0.00    -0.104 F  
HETATM   18  C   UNL     1      -9.063   8.985  71.023  1.00  0.00    -0.257 C  
HETATM   19  C   UNL     1      -9.023   9.897  70.052  1.00  0.00    -0.169 C  
BRANCH  15  20
HETATM   20  C   UNL     1     -10.224   7.177  72.264  1.00  0.00    -0.190 C  
HETATM   21  C   UNL     1      -8.893   5.328  71.701  1.00  0.00    -0.135 C  
HETATM   22  O   UNL     1      -8.947   6.538  72.459  1.00  0.00    -0.136 OA 
HETATM   23  C   UNL     1      -8.342   5.604  70.307  1.00  0.00    -0.112 C  
HETATM   24  C   UNL     1     -10.317   4.786  71.716  1.00  0.00    -0.160 C  
HETATM   25  O   UNL     1     -10.504   3.798  72.743  1.00  0.00    -0.164 OA 
HETATM   26  C   UNL     1     -11.200   6.001  72.027  1.00  0.00    -0.288 C  
HETATM   27  H   UNL     1     -11.392   3.460  72.752  1.00  0.00     0.000 HD 
HETATM   28  O   UNL     1     -12.016   5.794  73.190  1.00  0.00    -0.467 OA 
HETATM   29  H   UNL     1     -12.615   5.072  73.045  1.00  0.00     0.000 HD 
ENDBRANCH  15  20
ENDBRANCH   9  11
ENDBRANCH   6   7
ENDBRANCH   5   6
ENDBRANCH   4   5
ENDBRANCH   3   4
ENDBRANCH   2   3
TORSDOF 7
ENDMDL
MODEL      207
REMARK 921   NORMALIZED FREE ENERGY PREDICTED BY IDOCK:   -3.42 KCAL/MOL
REMARK 922        TOTAL FREE ENERGY PREDICTED BY IDOCK:   -5.92 KCAL/MOL
REMARK 923 INTER-LIGAND FREE ENERGY PREDICTED BY IDOCK:   -5.41 KCAL/MOL
REMARK 924 INTRA-LIGAND FREE ENERGY PREDICTED BY IDOCK:   -0.51 KCAL/MOL
REMARK 927      BINDING AFFINITY PREDICTED BY RF-SCORE:    0.00 PKD
ROOT
HETATM    1  C   UNL     1     -12.801  11.852  70.998  1.00  0.00    -0.291 C  
HETATM    2  C   UNL     1     -13.426  12.384  72.283  1.00  0.00    -0.428 C  
ENDROOT
BRANCH   2   3
HETATM    3  C   UNL     1     -13.504  13.906  72.256  1.00  0.00    -0.623 C  
BRANCH   3   4
HETATM    4  C   UNL     1     -12.171  14.579  71.905  1.00  0.00    -0.363 C  
BRANCH   4   5
HETATM    5  C   UNL     1     -12.300  15.226  70.528  1.00  0.00    -0.387 C  
BRANCH   5   6
HETATM    6  O   UNL     1     -11.137  15.072  69.704  1.00  0.00    -0.250 OA 
BRANCH   6   7
HETATM    7  C   UNL     1     -11.282  14.129  68.739  1.00  0.00    -0.268 C  
HETATM    8  O   UNL     1     -11.960  14.281  67.737  1.00  0.00    -0.371 OA 
HETATM    9  N   UNL     1     -10.578  13.009  69.101  1.00  0.00    -0.441 N  
HETATM   10  H   UNL     1     -10.324  12.915  70.084  1.00  0.00     0.000 HD 
BRANCH   9  11
HETATM   11  C   UNL     1     -10.187  12.002  68.252  1.00  0.00    -0.206 C  
HETATM   12  N   UNL     1     -10.800  10.874  68.198  1.00  0.00    -0.214 N  
HETATM   13  C   UNL     1     -10.310   9.890  67.368  1.00  0.00    -0.246 C  
HETATM   14  H   UNL     1     -11.635  10.709  68.761  1.00  0.00     0.000 HD 
HETATM   15  N   UNL     1      -8.969  10.016  66.955  1.00  0.00    -0.138 N  
HETATM   16  O   UNL     1     -11.023   8.949  67.041  1.00  0.00    -0.086 OA 
HETATM   17  F   UNL     1      -8.553  13.592  67.402  1.00  0.00    -0.165 F  
HETATM   18  C   UNL     1      -8.422  11.290  66.852  1.00  0.00    -0.152 C  
HETATM   19  C   UNL     1      -9.017  12.332  67.431  1.00  0.00    -0.183 C  
BRANCH  15  20
HETATM   20  C   UNL     1      -8.288   8.864  66.347  1.00  0.00    -0.116 C  
HETATM   21  C   UNL     1      -6.902   7.865  67.957  1.00  0.00    -0.072 C  
HETATM   22  O   UNL     1      -8.161   7.778  67.287  1.00  0.00    -0.115 OA 
HETATM   23  C   UNL     1      -7.036   8.707  69.221  1.00  0.00    -0.062 C  
HETATM   24  C   UNL     1      -5.939   8.437  66.923  1.00  0.00    -0.053 C  
HETATM   25  O   UNL     1      -5.191   7.405  66.259  1.00  0.00    -0.023 OA 
HETATM   26  C   UNL     1      -6.835   9.141  65.896  1.00  0.00    -0.087 C  
HETATM   27  H   UNL     1      -4.591   7.762  65.615  1.00  0.00     0.000 HD 
HETATM   28  O   UNL     1      -6.628   8.644  64.565  1.00  0.00    -0.066 OA 
HETATM   29  H   UNL     1      -5.736   8.814  64.287  1.00  0.00     0.000 HD 
ENDBRANCH  15  20
ENDBRANCH   9  11
ENDBRANCH   6   7
ENDBRANCH   5   6
ENDBRANCH   4   5
ENDBRANCH   3   4
ENDBRANCH   2   3
TORSDOF 7
ENDMDL
MODEL      208
REMARK 921   NORMALIZED FREE ENERGY PREDICTED BY IDOCK:   -3.38 KCAL/MOL
REMARK 922        TOTAL FREE ENERGY PREDICTED BY IDOCK:   -5.87 KCAL/MOL
REMARK 923 INTER-LIGAND FREE ENERGY PREDICTED BY IDOCK:   -4.83 KCAL/MOL
REMARK 924 INTRA-LIGAND FREE ENERGY PREDICTED BY IDOCK:   -1.04 KCAL/MOL
REMARK 927      BINDING AFFINITY PREDICTED BY RF-SCORE:    0.00 PKD
ROOT
HETATM    1  C   UNL     1      -8.309  14.070  67.331  1.00  0.00    -0.207 C  
HETATM    2  C   UNL     1      -9.513  14.893  67.774  1.00  0.00    -0.203 C  
ENDROOT
BRANCH   2   3
HETATM    3  C   UNL     1     -10.496  14.031  68.560  1.00  0.00    -0.251 C  
BRANCH   3   4
HETATM    4  C   UNL     1     -11.839  13.834  67.847  1.00  0.00    -0.413 C  
BRANCH   4   5
HETATM    5  C   UNL     1     -11.701  12.680  66.856  1.00  0.00    -0.383 C  
BRANCH   5   6
HETATM    6  O   UNL     1     -11.840  11.384  67.452  1.00  0.00    -0.609 OA 
BRANCH   6   7
HETATM    7  C   UNL     1     -10.737  10.607  67.314  1.00  0.00    -0.285 C  
HETATM    8  O   UNL     1      -9.676  11.006  66.864  1.00  0.00    -0.183 OA 
HETATM    9  N   UNL     1     -11.033   9.334  67.729  1.00  0.00    -0.493 N  
HETATM   10  H   UNL     1     -12.019   9.079  67.783  1.00  0.00     0.000 HD 
BRANCH   9  11
HETATM   11  C   UNL     1     -10.116   8.373  68.079  1.00  0.00    -0.199 C  
HETATM   12  N   UNL     1      -9.126   8.624  68.859  1.00  0.00    -0.145 N  
HETATM   13  C   UNL     1      -8.211   7.626  69.113  1.00  0.00    -0.130 C  
HETATM   14  H   UNL     1      -9.019   9.545  69.283  1.00  0.00     0.000 HD 
HETATM   15  N   UNL     1      -8.174   6.550  68.204  1.00  0.00    -0.116 N  
HETATM   16  O   UNL     1      -7.462   7.708  70.079  1.00  0.00    -0.078 OA 
HETATM   17  F   UNL     1     -11.523   6.826  66.836  1.00  0.00    -0.476 F  
HETATM   18  C   UNL     1      -9.341   6.210  67.528  1.00  0.00    -0.113 C  
HETATM   19  C   UNL     1     -10.367   7.058  67.480  1.00  0.00    -0.225 C  
BRANCH  15  20
HETATM   20  C   UNL     1      -7.030   5.627  68.221  1.00  0.00    -0.068 C  
HETATM   21  C   UNL     1      -5.836   5.861  66.214  1.00  0.00    -0.017 C  
HETATM   22  O   UNL     1      -5.873   6.219  67.597  1.00  0.00    -0.015 OA 
HETATM   23  C   UNL     1      -6.591   6.892  65.383  1.00  0.00    -0.051 C  
HETATM   24  C   UNL     1      -6.422   4.456  66.150  1.00  0.00    -0.041 C  
HETATM   25  O   UNL     1      -5.398   3.448  66.145  1.00  0.00    -0.012 OA 
HETATM   26  C   UNL     1      -7.252   4.315  67.433  1.00  0.00    -0.068 C  
HETATM   27  H   UNL     1      -5.764   2.571  66.105  1.00  0.00     0.000 HD 
HETATM   28  O   UNL     1      -6.841   3.189  68.224  1.00  0.00    -0.047 OA 
HETATM   29  H   UNL     1      -6.977   2.383  67.739  1.00  0.00     0.000 HD 
ENDBRANCH  15  20
ENDBRANCH   9  11
ENDBRANCH   6   7
ENDBRANCH   5   6
ENDBRANCH   4   5
ENDBRANCH   3   4
ENDBRANCH   2   3
TORSDOF 7
ENDMDL
MODEL      209
REMARK 921   NORMALIZED FREE ENERGY PREDICTED BY IDOCK:   -3.38 KCAL/MOL
REMARK 922        TOTAL FREE ENERGY PREDICTED BY IDOCK:   -5.86 KCAL/MOL
REMARK 923 INTER-LIGAND FREE ENERGY PREDICTED BY IDOCK:   -4.83 KCAL/MOL
REMARK 924 INTRA-LIGAND FREE ENERGY PREDICTED BY IDOCK:   -1.03 KCAL/MOL
REMARK 927      BINDING AFFINITY PREDICTED BY RF-SCORE:    0.00 PKD
ROOT
HETATM    1  C   UNL     1     -11.450  16.275  70.876  1.00  0.00    -0.336 C  
HETATM    2  C   UNL     1     -11.313  14.997  70.056  1.00  0.00    -0.305 C  
ENDROOT
BRANCH   2   3
HETATM    3  C   UNL     1     -10.643  15.284  68.717  1.00  0.00    -0.240 C  
BRANCH   3   4
HETATM    4  C   UNL     1     -11.493  14.873  67.509  1.00  0.00    -0.361 C  
BRANCH   4   5
HETATM    5  C   UNL     1     -11.680  13.357  67.536  1.00  0.00    -0.366 C  
BRANCH   5   6
HETATM    6  O   UNL     1     -10.463  12.620  67.362  1.00  0.00    -0.222 OA 
BRANCH   6   7
HETATM    7  C   UNL     1     -10.404  11.493  68.115  1.00  0.00    -0.195 C  
HETATM    8  O   UNL     1     -10.964  11.364  69.191  1.00  0.00    -0.220 OA 
HETATM    9  N   UNL     1      -9.608  10.574  67.481  1.00  0.00    -0.159 N  
HETATM   10  H   UNL     1      -8.973  10.924  66.764  1.00  0.00     0.000 HD 
BRANCH   9  11
HETATM   11  C   UNL     1      -9.592   9.223  67.730  1.00  0.00    -0.142 C  
HETATM   12  N   UNL     1     -10.667   8.518  67.751  1.00  0.00    -0.465 N  
HETATM   13  C   UNL     1     -10.578   7.182  68.071  1.00  0.00    -0.196 C  
HETATM   14  H   UNL     1     -11.569   8.941  67.535  1.00  0.00     0.000 HD 
HETATM   15  N   UNL     1      -9.415   6.765  68.748  1.00  0.00    -0.131 N  
HETATM   16  O   UNL     1     -11.494   6.419  67.789  1.00  0.00    -0.146 OA 
HETATM   17  F   UNL     1      -7.168   9.431  67.742  1.00  0.00    -0.079 F  
HETATM   18  C   UNL     1      -8.233   7.464  68.530  1.00  0.00    -0.125 C  
HETATM   19  C   UNL     1      -8.254   8.674  67.972  1.00  0.00    -0.115 C  
BRANCH  15  20
HETATM   20  C   UNL     1      -9.389   5.447  69.399  1.00  0.00    -0.124 C  
HETATM   21  C   UNL     1      -9.721   5.734  71.705  1.00  0.00    -0.161 C  
HETATM   22  O   UNL     1     -10.349   5.377  70.471  1.00  0.00    -0.243 OA 
HETATM   23  C   UNL     1      -9.836   7.236  71.938  1.00  0.00    -0.180 C  
HETATM   24  C   UNL     1      -8.289   5.227  71.583  1.00  0.00    -0.118 C  
HETATM   25  O   UNL     1      -8.122   3.940  72.200  1.00  0.00    -0.080 OA 
HETATM   26  C   UNL     1      -8.044   5.091  70.075  1.00  0.00    -0.074 C  
HETATM   27  H   UNL     1      -7.228   3.624  72.124  1.00  0.00     0.000 HD 
HETATM   28  O   UNL     1      -7.644   3.762  69.708  1.00  0.00    -0.051 OA 
HETATM   29  H   UNL     1      -6.818   3.543  70.123  1.00  0.00     0.000 HD 
ENDBRANCH  15  20
ENDBRANCH   9  11
ENDBRANCH   6   7
ENDBRANCH   5   6
ENDBRANCH   4   5
ENDBRANCH   3   4
ENDBRANCH   2   3
TORSDOF 7
ENDMDL
MODEL      210
REMARK 921   NORMALIZED FREE ENERGY PREDICTED BY IDOCK:   -3.36 KCAL/MOL
REMARK 922        TOTAL FREE ENERGY PREDICTED BY IDOCK:   -5.84 KCAL/MOL
REMARK 923 INTER-LIGAND FREE ENERGY PREDICTED BY IDOCK:   -4.89 KCAL/MOL
REMARK 924 INTRA-LIGAND FREE ENERGY PREDICTED BY IDOCK:   -0.95 KCAL/MOL
REMARK 927      BINDING AFFINITY PREDICTED BY RF-SCORE:    0.00 PKD
ROOT
HETATM    1  C   UNL     1     -10.520  20.219  66.421  1.00  0.00    -0.331 C  
HETATM    2  C   UNL     1     -10.058  19.619  67.744  1.00  0.00    -0.538 C  
ENDROOT
BRANCH   2   3
HETATM    3  C   UNL     1      -8.596  19.192  67.663  1.00  0.00    -0.327 C  
BRANCH   3   4
HETATM    4  C   UNL     1      -8.119  18.921  66.231  1.00  0.00    -0.286 C  
BRANCH   4   5
HETATM    5  C   UNL     1      -7.871  17.422  66.075  1.00  0.00    -0.183 C  
BRANCH   5   6
HETATM    6  O   UNL     1      -8.848  16.755  65.265  1.00  0.00     0.255 OA 
BRANCH   6   7
HETATM    7  C   UNL     1      -9.231  15.553  65.764  1.00  0.00    -0.181 C  
HETATM    8  O   UNL     1      -9.985  14.787  65.188  1.00  0.00    -0.355 OA 
HETATM    9  N   UNL     1      -8.659  15.380  66.998  1.00  0.00    -0.215 N  
HETATM   10  H   UNL     1      -8.315  16.214  67.473  1.00  0.00     0.000 HD 
BRANCH   9  11
HETATM   11  C   UNL     1      -8.510  14.179  67.649  1.00  0.00    -0.185 C  
HETATM   12  N   UNL     1      -7.428  13.490  67.574  1.00  0.00    -0.209 N  
HETATM   13  C   UNL     1      -7.376  12.265  68.202  1.00  0.00    -0.105 C  
HETATM   14  H   UNL     1      -6.622  13.842  67.058  1.00  0.00     0.000 HD 
HETATM   15  N   UNL     1      -8.608  11.663  68.525  1.00  0.00    -0.156 N  
HETATM   16  O   UNL     1      -6.295  11.737  68.433  1.00  0.00    -0.050 OA 
HETATM   17  F   UNL     1     -10.701  14.626  68.606  1.00  0.00    -0.224 F  
HETATM   18  C   UNL     1      -9.701  12.483  68.783  1.00  0.00     0.057 C  
HETATM   19  C   UNL     1      -9.687  13.765  68.419  1.00  0.00    -0.219 C  
BRANCH  15  20
HETATM   20  C   UNL     1      -8.644  10.240  68.894  1.00  0.00    -0.150 C  
HETATM   21  C   UNL     1      -9.605   9.024  67.131  1.00  0.00    -0.167 C  
HETATM   22  O   UNL     1      -8.375   9.400  67.754  1.00  0.00    -0.114 OA 
HETATM   23  C   UNL     1      -9.987  10.044  66.064  1.00  0.00    -0.334 C  
HETATM   24  C   UNL     1     -10.609   8.905  68.272  1.00  0.00    -0.152 C  
HETATM   25  O   UNL     1     -10.752   7.547  68.720  1.00  0.00    -0.323 OA 
HETATM   26  C   UNL     1     -10.015   9.745  69.410  1.00  0.00    -0.205 C  
HETATM   27  H   UNL     1     -11.378   7.473  69.431  1.00  0.00     0.000 HD 
HETATM   28  O   UNL     1      -9.844   8.982  70.614  1.00  0.00    -0.195 OA 
HETATM   29  H   UNL     1     -10.686   8.678  70.931  1.00  0.00     0.000 HD 
ENDBRANCH  15  20
ENDBRANCH   9  11
ENDBRANCH   6   7
ENDBRANCH   5   6
ENDBRANCH   4   5
ENDBRANCH   3   4
ENDBRANCH   2   3
TORSDOF 7
ENDMDL
MODEL      211
REMARK 921   NORMALIZED FREE ENERGY PREDICTED BY IDOCK:   -3.36 KCAL/MOL
REMARK 922        TOTAL FREE ENERGY PREDICTED BY IDOCK:   -5.84 KCAL/MOL
REMARK 923 INTER-LIGAND FREE ENERGY PREDICTED BY IDOCK:   -6.20 KCAL/MOL
REMARK 924 INTRA-LIGAND FREE ENERGY PREDICTED BY IDOCK:    0.37 KCAL/MOL
REMARK 927      BINDING AFFINITY PREDICTED BY RF-SCORE:    0.00 PKD
ROOT
HETATM    1  C   UNL     1      -5.684  19.262  70.116  1.00  0.00    -0.275 C  
HETATM    2  C   UNL     1      -6.530  19.635  68.904  1.00  0.00    -0.334 C  
ENDROOT
BRANCH   2   3
HETATM    3  C   UNL     1      -7.829  18.837  68.886  1.00  0.00    -0.293 C  
BRANCH   3   4
HETATM    4  C   UNL     1      -7.653  17.394  68.396  1.00  0.00    -0.255 C  
BRANCH   4   5
HETATM    5  C   UNL     1      -9.029  16.822  68.060  1.00  0.00    -0.217 C  
BRANCH   5   6
HETATM    6  O   UNL     1      -8.982  15.626  67.272  1.00  0.00    -0.188 OA 
BRANCH   6   7
HETATM    7  C   UNL     1      -9.233  14.500  67.986  1.00  0.00    -0.190 C  
HETATM    8  O   UNL     1      -8.365  13.798  68.477  1.00  0.00    -0.155 OA 
HETATM    9  N   UNL     1     -10.588  14.291  68.027  1.00  0.00    -0.235 N  
HETATM   10  H   UNL     1     -11.155  14.772  67.329  1.00  0.00     0.000 HD 
BRANCH   9  11
HETATM   11  C   UNL     1     -11.247  13.490  68.928  1.00  0.00    -0.275 C  
HETATM   12  N   UNL     1     -11.638  13.926  70.073  1.00  0.00    -0.428 N  
HETATM   13  C   UNL     1     -12.235  13.047  70.949  1.00  0.00    -0.220 C  
HETATM   14  H   UNL     1     -11.509  14.905  70.328  1.00  0.00     0.000 HD 
HETATM   15  N   UNL     1     -12.011  11.674  70.724  1.00  0.00    -0.278 N  
HETATM   16  O   UNL     1     -12.903  13.469  71.885  1.00  0.00    -0.319 OA 
HETATM   17  F   UNL     1     -11.189  11.788  67.192  1.00  0.00    -0.288 F  
HETATM   18  C   UNL     1     -11.780  11.243  69.422  1.00  0.00    -0.339 C  
HETATM   19  C   UNL     1     -11.450  12.113  68.469  1.00  0.00    -0.300 C  
BRANCH  15  20
HETATM   20  C   UNL     1     -12.337  10.705  71.780  1.00  0.00    -0.115 C  
HETATM   21  C   UNL     1     -11.125   8.731  71.399  1.00  0.00    -0.291 C  
HETATM   22  O   UNL     1     -11.177   9.939  72.160  1.00  0.00     0.460 OA 
HETATM   23  C   UNL     1     -10.337   8.953  70.113  1.00  0.00    -0.228 C  
HETATM   24  C   UNL     1     -12.581   8.336  71.180  1.00  0.00    -0.141 C  
HETATM   25  O   UNL     1     -13.025   7.371  72.147  1.00  0.00    -0.490 OA 
HETATM   26  C   UNL     1     -13.376   9.634  71.372  1.00  0.00    -0.368 C  
HETATM   27  H   UNL     1     -13.933   7.125  72.011  1.00  0.00     0.000 HD 
HETATM   28  O   UNL     1     -14.382   9.509  72.389  1.00  0.00    -0.444 OA 
HETATM   29  H   UNL     1     -15.020   8.852  72.138  1.00  0.00     0.000 HD 
ENDBRANCH  15  20
ENDBRANCH   9  11
ENDBRANCH   6   7
ENDBRANCH   5   6
ENDBRANCH   4   5
ENDBRANCH   3   4
ENDBRANCH   2   3
TORSDOF 7
ENDMDL
MODEL      212
REMARK 921   NORMALIZED FREE ENERGY PREDICTED BY IDOCK:   -3.34 KCAL/MOL
REMARK 922        TOTAL FREE ENERGY PREDICTED BY IDOCK:   -5.80 KCAL/MOL
REMARK 923 INTER-LIGAND FREE ENERGY PREDICTED BY IDOCK:   -4.93 KCAL/MOL
REMARK 924 INTRA-LIGAND FREE ENERGY PREDICTED BY IDOCK:   -0.87 KCAL/MOL
REMARK 927      BINDING AFFINITY PREDICTED BY RF-SCORE:    0.00 PKD
ROOT
HETATM    1  C   UNL     1     -10.375  17.365  68.463  1.00  0.00    -0.378 C  
HETATM    2  C   UNL     1     -10.759  15.948  68.051  1.00  0.00    -0.301 C  
ENDROOT
BRANCH   2   3
HETATM    3  C   UNL     1     -10.468  15.719  66.572  1.00  0.00    -0.304 C  
BRANCH   3   4
HETATM    4  C   UNL     1     -11.231  14.529  65.977  1.00  0.00    -0.337 C  
BRANCH   4   5
HETATM    5  C   UNL     1     -10.489  13.244  66.337  1.00  0.00    -0.284 C  
BRANCH   5   6
HETATM    6  O   UNL     1     -11.198  12.048  65.988  1.00  0.00    -0.312 OA 
BRANCH   6   7
HETATM    7  C   UNL     1     -10.406  11.095  65.435  1.00  0.00    -0.271 C  
HETATM    8  O   UNL     1      -9.724  11.272  64.440  1.00  0.00    -0.237 OA 
HETATM    9  N   UNL     1     -10.534   9.936  66.156  1.00  0.00    -0.136 N  
HETATM   10  H   UNL     1     -11.354   9.848  66.756  1.00  0.00     0.000 HD 
BRANCH   9  11
HETATM   11  C   UNL     1      -9.651   8.883  66.140  1.00  0.00    -0.265 C  
HETATM   12  N   UNL     1      -9.014   8.541  65.077  1.00  0.00    -0.418 N  
HETATM   13  C   UNL     1      -8.194   7.435  65.122  1.00  0.00    -0.113 C  
HETATM   14  H   UNL     1      -9.113   9.078  64.216  1.00  0.00     0.000 HD 
HETATM   15  N   UNL     1      -8.416   6.520  66.170  1.00  0.00    -0.132 N  
HETATM   16  O   UNL     1      -7.337   7.268  64.262  1.00  0.00    -0.073 OA 
HETATM   17  F   UNL     1     -10.062   8.728  68.532  1.00  0.00    -0.174 F  
HETATM   18  C   UNL     1      -8.936   6.996  67.368  1.00  0.00    -0.117 C  
HETATM   19  C   UNL     1      -9.515   8.195  67.427  1.00  0.00    -0.155 C  
BRANCH  15  20
HETATM   20  C   UNL     1      -7.814   5.181  66.102  1.00  0.00    -0.103 C  
HETATM   21  C   UNL     1      -9.459   3.642  65.441  1.00  0.00    -0.160 C  
HETATM   22  O   UNL     1      -8.348   4.425  64.997  1.00  0.00    -0.111 OA 
HETATM   23  C   UNL     1     -10.753   4.434  65.293  1.00  0.00    -0.150 C  
HETATM   24  C   UNL     1      -9.123   3.253  66.876  1.00  0.00    -0.172 C  
HETATM   25  O   UNL     1      -8.536   1.944  66.953  1.00  0.00    -0.083 OA 
HETATM   26  C   UNL     1      -8.090   4.289  67.335  1.00  0.00    -0.099 C  
HETATM   27  H   UNL     1      -8.327   1.701  67.847  1.00  0.00     0.000 HD 
HETATM   28  O   UNL     1      -6.871   3.678  67.785  1.00  0.00    -0.048 OA 
HETATM   29  H   UNL     1      -7.040   3.130  68.542  1.00  0.00     0.000 HD 
ENDBRANCH  15  20
ENDBRANCH   9  11
ENDBRANCH   6   7
ENDBRANCH   5   6
ENDBRANCH   4   5
ENDBRANCH   3   4
ENDBRANCH   2   3
TORSDOF 7
ENDMDL
MODEL      213
REMARK 921   NORMALIZED FREE ENERGY PREDICTED BY IDOCK:   -3.33 KCAL/MOL
REMARK 922        TOTAL FREE ENERGY PREDICTED BY IDOCK:   -5.79 KCAL/MOL
REMARK 923 INTER-LIGAND FREE ENERGY PREDICTED BY IDOCK:   -6.08 KCAL/MOL
REMARK 924 INTRA-LIGAND FREE ENERGY PREDICTED BY IDOCK:    0.29 KCAL/MOL
REMARK 927      BINDING AFFINITY PREDICTED BY RF-SCORE:    0.00 PKD
ROOT
HETATM    1  C   UNL     1     -12.032  15.983  72.429  1.00  0.00    -0.644 C  
HETATM    2  C   UNL     1     -12.307  15.601  70.979  1.00  0.00    -0.481 C  
ENDROOT
BRANCH   2   3
HETATM    3  C   UNL     1     -12.600  14.109  70.859  1.00  0.00    -0.433 C  
BRANCH   3   4
HETATM    4  C   UNL     1     -13.297  13.523  72.093  1.00  0.00    -0.593 C  
BRANCH   4   5
HETATM    5  C   UNL     1     -13.187  12.001  72.038  1.00  0.00    -0.375 C  
BRANCH   5   6
HETATM    6  O   UNL     1     -12.588  11.506  70.833  1.00  0.00    -0.369 OA 
BRANCH   6   7
HETATM    7  C   UNL     1     -11.992  10.297  70.986  1.00  0.00    -0.385 C  
HETATM    8  O   UNL     1     -12.447   9.396  71.670  1.00  0.00    -0.330 OA 
HETATM    9  N   UNL     1     -10.816  10.288  70.280  1.00  0.00    -0.349 N  
HETATM   10  H   UNL     1     -10.422  11.192  70.019  1.00  0.00     0.000 HD 
BRANCH   9  11
HETATM   11  C   UNL     1     -10.123   9.166  69.895  1.00  0.00    -0.202 C  
HETATM   12  N   UNL     1      -9.482   8.435  70.736  1.00  0.00    -0.163 N  
HETATM   13  C   UNL     1      -8.759   7.361  70.266  1.00  0.00    -0.146 C  
HETATM   14  H   UNL     1      -9.509   8.645  71.733  1.00  0.00     0.000 HD 
HETATM   15  N   UNL     1      -8.424   7.370  68.897  1.00  0.00    -0.129 N  
HETATM   16  O   UNL     1      -8.415   6.468  71.030  1.00  0.00    -0.125 OA 
HETATM   17  F   UNL     1     -11.024   9.586  67.674  1.00  0.00    -0.331 F  
HETATM   18  C   UNL     1      -9.271   8.025  68.010  1.00  0.00    -0.135 C  
HETATM   19  C   UNL     1     -10.179   8.892  68.455  1.00  0.00    -0.197 C  
BRANCH  15  20
HETATM   20  C   UNL     1      -7.398   6.444  68.397  1.00  0.00    -0.087 C  
HETATM   21  C   UNL     1      -8.450   4.723  67.196  1.00  0.00    -0.105 C  
HETATM   22  O   UNL     1      -7.733   5.954  67.083  1.00  0.00    -0.098 OA 
HETATM   23  C   UNL     1      -9.947   4.992  67.283  1.00  0.00    -0.220 C  
HETATM   24  C   UNL     1      -7.865   4.033  68.423  1.00  0.00    -0.069 C  
HETATM   25  O   UNL     1      -6.849   3.080  68.068  1.00  0.00    -0.047 OA 
HETATM   26  C   UNL     1      -7.224   5.160  69.242  1.00  0.00    -0.057 C  
HETATM   27  H   UNL     1      -6.485   2.650  68.833  1.00  0.00     0.000 HD 
HETATM   28  O   UNL     1      -5.831   4.922  69.497  1.00  0.00    -0.015 OA 
HETATM   29  H   UNL     1      -5.724   4.133  70.016  1.00  0.00     0.000 HD 
ENDBRANCH  15  20
ENDBRANCH   9  11
ENDBRANCH   6   7
ENDBRANCH   5   6
ENDBRANCH   4   5
ENDBRANCH   3   4
ENDBRANCH   2   3
TORSDOF 7
ENDMDL
MODEL      214
REMARK 921   NORMALIZED FREE ENERGY PREDICTED BY IDOCK:   -3.31 KCAL/MOL
REMARK 922        TOTAL FREE ENERGY PREDICTED BY IDOCK:   -5.77 KCAL/MOL
REMARK 923 INTER-LIGAND FREE ENERGY PREDICTED BY IDOCK:   -4.69 KCAL/MOL
REMARK 924 INTRA-LIGAND FREE ENERGY PREDICTED BY IDOCK:   -1.09 KCAL/MOL
REMARK 927      BINDING AFFINITY PREDICTED BY RF-SCORE:    0.00 PKD
ROOT
HETATM    1  C   UNL     1     -11.212  11.659  68.099  1.00  0.00    -0.325 C  
HETATM    2  C   UNL     1     -11.498  12.695  69.180  1.00  0.00    -0.359 C  
ENDROOT
BRANCH   2   3
HETATM    3  C   UNL     1     -12.047  12.028  70.436  1.00  0.00    -0.407 C  
BRANCH   3   4
HETATM    4  C   UNL     1     -12.822  10.736  70.151  1.00  0.00    -0.148 C  
BRANCH   4   5
HETATM    5  C   UNL     1     -12.379   9.670  71.152  1.00  0.00    -0.339 C  
BRANCH   5   6
HETATM    6  O   UNL     1     -11.095   9.923  71.736  1.00  0.00    -0.085 OA 
BRANCH   6   7
HETATM    7  C   UNL     1     -10.308   8.819  71.803  1.00  0.00    -0.343 C  
HETATM    8  O   UNL     1      -9.719   8.464  72.810  1.00  0.00    -0.273 OA 
HETATM    9  N   UNL     1     -10.275   8.220  70.570  1.00  0.00    -0.196 N  
HETATM   10  H   UNL     1     -10.553   8.786  69.769  1.00  0.00     0.000 HD 
BRANCH   9  11
HETATM   11  C   UNL     1      -9.899   6.922  70.322  1.00  0.00    -0.178 C  
HETATM   12  N   UNL     1      -8.793   6.434  70.760  1.00  0.00    -0.143 N  
HETATM   13  C   UNL     1      -8.455   5.144  70.417  1.00  0.00    -0.109 C  
HETATM   14  H   UNL     1      -8.177   6.991  71.351  1.00  0.00     0.000 HD 
HETATM   15  N   UNL     1      -9.108   4.590  69.297  1.00  0.00    -0.104 N  
HETATM   16  O   UNL     1      -7.605   4.538  71.059  1.00  0.00    -0.060 OA 
HETATM   17  F   UNL     1     -12.076   6.678  69.264  1.00  0.00    -0.168 F  
HETATM   18  C   UNL     1     -10.390   5.033  68.991  1.00  0.00    -0.085 C  
HETATM   19  C   UNL     1     -10.862   6.162  69.518  1.00  0.00    -0.361 C  
BRANCH  15  20
HETATM   20  C   UNL     1      -8.579   3.364  68.683  1.00  0.00    -0.091 C  
HETATM   21  C   UNL     1      -7.118   3.957  66.944  1.00  0.00    -0.063 C  
HETATM   22  O   UNL     1      -7.198   3.525  68.305  1.00  0.00    -0.050 OA 
HETATM   23  C   UNL     1      -7.130   5.479  66.874  1.00  0.00    -0.070 C  
HETATM   24  C   UNL     1      -8.296   3.288  66.245  1.00  0.00    -0.100 C  
HETATM   25  O   UNL     1      -7.907   2.073  65.584  1.00  0.00    -0.071 OA 
HETATM   26  C   UNL     1      -9.282   2.949  67.370  1.00  0.00    -0.182 C  
HETATM   27  H   UNL     1      -8.641   1.657  65.148  1.00  0.00     0.000 HD 
HETATM   28  O   UNL     1      -9.605   1.550  67.404  1.00  0.00    -0.375 OA 
HETATM   29  H   UNL     1     -10.037   1.295  66.597  1.00  0.00     0.000 HD 
ENDBRANCH  15  20
ENDBRANCH   9  11
ENDBRANCH   6   7
ENDBRANCH   5   6
ENDBRANCH   4   5
ENDBRANCH   3   4
ENDBRANCH   2   3
TORSDOF 7
ENDMDL
MODEL      215
REMARK 921   NORMALIZED FREE ENERGY PREDICTED BY IDOCK:   -3.31 KCAL/MOL
REMARK 922        TOTAL FREE ENERGY PREDICTED BY IDOCK:   -5.76 KCAL/MOL
REMARK 923 INTER-LIGAND FREE ENERGY PREDICTED BY IDOCK:   -6.14 KCAL/MOL
REMARK 924 INTRA-LIGAND FREE ENERGY PREDICTED BY IDOCK:    0.38 KCAL/MOL
REMARK 927      BINDING AFFINITY PREDICTED BY RF-SCORE:    0.00 PKD
ROOT
HETATM    1  C   UNL     1     -12.695  15.289  73.759  1.00  0.00    -0.697 C  
HETATM    2  C   UNL     1     -12.994  15.707  72.324  1.00  0.00    -0.529 C  
ENDROOT
BRANCH   2   3
HETATM    3  C   UNL     1     -13.437  14.507  71.493  1.00  0.00    -0.449 C  
BRANCH   3   4
HETATM    4  C   UNL     1     -13.591  13.220  72.313  1.00  0.00    -0.703 C  
BRANCH   4   5
HETATM    5  C   UNL     1     -12.963  12.067  71.534  1.00  0.00    -0.304 C  
BRANCH   5   6
HETATM    6  O   UNL     1     -12.047  12.487  70.514  1.00  0.00    -0.365 OA 
BRANCH   6   7
HETATM    7  C   UNL     1     -11.797  11.529  69.587  1.00  0.00    -0.354 C  
HETATM    8  O   UNL     1     -12.660  11.006  68.901  1.00  0.00    -0.366 OA 
HETATM    9  N   UNL     1     -10.455  11.249  69.585  1.00  0.00    -0.445 N  
HETATM   10  H   UNL     1      -9.919  11.530  70.406  1.00  0.00     0.000 HD 
BRANCH   9  11
HETATM   11  C   UNL     1      -9.770  10.622  68.572  1.00  0.00    -0.174 C  
HETATM   12  N   UNL     1      -9.127  11.277  67.673  1.00  0.00    -0.147 N  
HETATM   13  C   UNL     1      -8.518  10.581  66.652  1.00  0.00    -0.129 C  
HETATM   14  H   UNL     1      -9.068  12.294  67.714  1.00  0.00     0.000 HD 
HETATM   15  N   UNL     1      -8.972   9.267  66.419  1.00  0.00    -0.147 N  
HETATM   16  O   UNL     1      -7.643  11.113  65.980  1.00  0.00    -0.094 OA 
HETATM   17  F   UNL     1     -10.374   8.545  69.686  1.00  0.00    -0.197 F  
HETATM   18  C   UNL     1      -9.486   8.542  67.488  1.00  0.00    -0.149 C  
HETATM   19  C   UNL     1      -9.850   9.158  68.612  1.00  0.00    -0.164 C  
BRANCH  15  20
HETATM   20  C   UNL     1      -8.609   8.588  65.167  1.00  0.00    -0.152 C  
HETATM   21  C   UNL     1      -6.553   7.494  65.466  1.00  0.00    -0.045 C  
HETATM   22  O   UNL     1      -7.971   7.322  65.427  1.00  0.00    -0.111 OA 
HETATM   23  C   UNL     1      -6.101   7.813  66.886  1.00  0.00    -0.052 C  
HETATM   24  C   UNL     1      -6.259   8.596  64.454  1.00  0.00    -0.067 C  
HETATM   25  O   UNL     1      -5.872   8.060  63.177  1.00  0.00    -0.065 OA 
HETATM   26  C   UNL     1      -7.584   9.351  64.295  1.00  0.00    -0.115 C  
HETATM   27  H   UNL     1      -5.688   8.747  62.547  1.00  0.00     0.000 HD 
HETATM   28  O   UNL     1      -8.028   9.388  62.930  1.00  0.00    -0.124 OA 
HETATM   29  H   UNL     1      -7.399   9.857  62.395  1.00  0.00     0.000 HD 
ENDBRANCH  15  20
ENDBRANCH   9  11
ENDBRANCH   6   7
ENDBRANCH   5   6
ENDBRANCH   4   5
ENDBRANCH   3   4
ENDBRANCH   2   3
TORSDOF 7
ENDMDL
MODEL      216
REMARK 921   NORMALIZED FREE ENERGY PREDICTED BY IDOCK:   -3.30 KCAL/MOL
REMARK 922        TOTAL FREE ENERGY PREDICTED BY IDOCK:   -5.76 KCAL/MOL
REMARK 923 INTER-LIGAND FREE ENERGY PREDICTED BY IDOCK:   -5.18 KCAL/MOL
REMARK 924 INTRA-LIGAND FREE ENERGY PREDICTED BY IDOCK:   -0.58 KCAL/MOL
REMARK 927      BINDING AFFINITY PREDICTED BY RF-SCORE:    0.00 PKD
ROOT
HETATM    1  C   UNL     1     -12.930  15.456  72.130  1.00  0.00    -0.480 C  
HETATM    2  C   UNL     1     -12.684  14.657  70.856  1.00  0.00    -0.413 C  
ENDROOT
BRANCH   2   3
HETATM    3  C   UNL     1     -11.391  15.101  70.181  1.00  0.00    -0.300 C  
BRANCH   3   4
HETATM    4  C   UNL     1     -11.552  15.392  68.684  1.00  0.00    -0.373 C  
BRANCH   4   5
HETATM    5  C   UNL     1     -10.942  14.237  67.893  1.00  0.00    -0.267 C  
BRANCH   5   6
HETATM    6  O   UNL     1      -9.771  13.674  68.500  1.00  0.00    -0.227 OA 
BRANCH   6   7
HETATM    7  C   UNL     1      -9.602  12.357  68.222  1.00  0.00    -0.211 C  
HETATM    8  O   UNL     1      -9.056  11.940  67.214  1.00  0.00    -0.169 OA 
HETATM    9  N   UNL     1     -10.161  11.613  69.229  1.00  0.00    -0.409 N  
HETATM   10  H   UNL     1     -10.837  12.080  69.832  1.00  0.00     0.000 HD 
BRANCH   9  11
HETATM   11  C   UNL     1      -9.887  10.293  69.494  1.00  0.00    -0.220 C  
HETATM   12  N   UNL     1      -9.289   9.921  70.570  1.00  0.00    -0.335 N  
HETATM   13  C   UNL     1      -8.992   8.586  70.736  1.00  0.00    -0.165 C  
HETATM   14  H   UNL     1      -9.039  10.601  71.287  1.00  0.00     0.000 HD 
HETATM   15  N   UNL     1      -8.978   7.788  69.575  1.00  0.00    -0.143 N  
HETATM   16  O   UNL     1      -8.732   8.148  71.850  1.00  0.00    -0.125 OA 
HETATM   17  F   UNL     1     -11.115   9.809  67.451  1.00  0.00    -0.348 F  
HETATM   18  C   UNL     1      -9.799   8.146  68.513  1.00  0.00    -0.179 C  
HETATM   19  C   UNL     1     -10.329   9.367  68.447  1.00  0.00    -0.205 C  
BRANCH  15  20
HETATM   20  C   UNL     1      -8.365   6.453  69.622  1.00  0.00    -0.126 C  
HETATM   21  C   UNL     1      -6.399   6.475  68.339  1.00  0.00    -0.037 C  
HETATM   22  O   UNL     1      -6.927   6.541  69.666  1.00  0.00    -0.062 OA 
HETATM   23  C   UNL     1      -6.290   7.875  67.746  1.00  0.00    -0.052 C  
HETATM   24  C   UNL     1      -7.342   5.547  67.582  1.00  0.00    -0.076 C  
HETATM   25  O   UNL     1      -6.847   4.198  67.540  1.00  0.00    -0.050 OA 
HETATM   26  C   UNL     1      -8.650   5.571  68.384  1.00  0.00    -0.099 C  
HETATM   27  H   UNL     1      -7.434   3.620  67.068  1.00  0.00     0.000 HD 
HETATM   28  O   UNL     1      -9.058   4.258  68.797  1.00  0.00    -0.110 OA 
HETATM   29  H   UNL     1      -9.232   3.716  68.036  1.00  0.00     0.000 HD 
ENDBRANCH  15  20
ENDBRANCH   9  11
ENDBRANCH   6   7
ENDBRANCH   5   6
ENDBRANCH   4   5
ENDBRANCH   3   4
ENDBRANCH   2   3
TORSDOF 7
ENDMDL
MODEL      217
REMARK 921   NORMALIZED FREE ENERGY PREDICTED BY IDOCK:   -3.26 KCAL/MOL
REMARK 922        TOTAL FREE ENERGY PREDICTED BY IDOCK:   -5.70 KCAL/MOL
REMARK 923 INTER-LIGAND FREE ENERGY PREDICTED BY IDOCK:   -6.06 KCAL/MOL
REMARK 924 INTRA-LIGAND FREE ENERGY PREDICTED BY IDOCK:    0.36 KCAL/MOL
REMARK 927      BINDING AFFINITY PREDICTED BY RF-SCORE:    0.00 PKD
ROOT
HETATM    1  C   UNL     1     -12.375  15.677  72.152  1.00  0.00    -0.517 C  
HETATM    2  C   UNL     1     -11.994  15.028  70.826  1.00  0.00    -0.371 C  
ENDROOT
BRANCH   2   3
HETATM    3  C   UNL     1     -10.830  15.769  70.177  1.00  0.00    -0.360 C  
BRANCH   3   4
HETATM    4  C   UNL     1     -11.143  16.278  68.764  1.00  0.00    -0.355 C  
BRANCH   4   5
HETATM    5  C   UNL     1     -10.853  15.159  67.767  1.00  0.00    -0.292 C  
BRANCH   5   6
HETATM    6  O   UNL     1      -9.587  14.518  67.966  1.00  0.00    -0.207 OA 
BRANCH   6   7
HETATM    7  C   UNL     1      -9.616  13.183  67.726  1.00  0.00    -0.208 C  
HETATM    8  O   UNL     1      -9.273  12.674  66.671  1.00  0.00    -0.225 OA 
HETATM    9  N   UNL     1     -10.109  12.541  68.832  1.00  0.00    -0.428 N  
HETATM   10  H   UNL     1     -10.633  13.103  69.503  1.00  0.00     0.000 HD 
BRANCH   9  11
HETATM   11  C   UNL     1      -9.959  11.205  69.115  1.00  0.00    -0.082 C  
HETATM   12  N   UNL     1      -8.888  10.734  69.648  1.00  0.00    -0.363 N  
HETATM   13  C   UNL     1      -8.785   9.375  69.842  1.00  0.00    -0.197 C  
HETATM   14  H   UNL     1      -8.127  11.356  69.921  1.00  0.00     0.000 HD 
HETATM   15  N   UNL     1      -9.649   8.557  69.088  1.00  0.00    -0.165 N  
HETATM   16  O   UNL     1      -7.955   8.925  70.623  1.00  0.00    -0.098 OA 
HETATM   17  F   UNL     1     -12.266  10.969  68.381  1.00  0.00    -0.333 F  
HETATM   18  C   UNL     1     -10.883   9.070  68.704  1.00  0.00    -0.017 C  
HETATM   19  C   UNL     1     -11.116  10.381  68.750  1.00  0.00    -0.250 C  
BRANCH  15  20
HETATM   20  C   UNL     1      -9.385   7.113  68.998  1.00  0.00    -0.140 C  
HETATM   21  C   UNL     1     -11.088   5.959  70.128  1.00  0.00    -0.325 C  
HETATM   22  O   UNL     1     -10.609   6.368  68.845  1.00  0.00    -0.200 OA 
HETATM   23  C   UNL     1     -12.016   7.021  70.707  1.00  0.00    -0.392 C  
HETATM   24  C   UNL     1      -9.835   5.703  70.957  1.00  0.00    -0.178 C  
HETATM   25  O   UNL     1      -9.473   4.312  70.966  1.00  0.00    -0.140 OA 
HETATM   26  C   UNL     1      -8.728   6.501  70.257  1.00  0.00    -0.151 C  
HETATM   27  H   UNL     1      -8.691   4.153  71.483  1.00  0.00     0.000 HD 
HETATM   28  O   UNL     1      -7.617   5.673  69.881  1.00  0.00    -0.072 OA 
HETATM   29  H   UNL     1      -7.213   5.296  70.654  1.00  0.00     0.000 HD 
ENDBRANCH  15  20
ENDBRANCH   9  11
ENDBRANCH   6   7
ENDBRANCH   5   6
ENDBRANCH   4   5
ENDBRANCH   3   4
ENDBRANCH   2   3
TORSDOF 7
ENDMDL
MODEL      218
REMARK 921   NORMALIZED FREE ENERGY PREDICTED BY IDOCK:   -3.25 KCAL/MOL
REMARK 922        TOTAL FREE ENERGY PREDICTED BY IDOCK:   -5.69 KCAL/MOL
REMARK 923 INTER-LIGAND FREE ENERGY PREDICTED BY IDOCK:   -4.88 KCAL/MOL
REMARK 924 INTRA-LIGAND FREE ENERGY PREDICTED BY IDOCK:   -0.81 KCAL/MOL
REMARK 927      BINDING AFFINITY PREDICTED BY RF-SCORE:    0.00 PKD
ROOT
HETATM    1  C   UNL     1     -10.848   6.244  67.430  1.00  0.00    -0.448 C  
HETATM    2  C   UNL     1     -11.245   6.884  68.755  1.00  0.00    -0.095 C  
ENDROOT
BRANCH   2   3
HETATM    3  C   UNL     1     -10.847   5.993  69.926  1.00  0.00    -0.434 C  
BRANCH   3   4
HETATM    4  C   UNL     1      -9.767   6.611  70.824  1.00  0.00    -0.190 C  
BRANCH   4   5
HETATM    5  C   UNL     1     -10.198   8.027  71.200  1.00  0.00    -0.193 C  
BRANCH   5   6
HETATM    6  O   UNL     1      -9.176   9.014  71.009  1.00  0.00    -0.226 OA 
BRANCH   6   7
HETATM    7  C   UNL     1      -9.547  10.019  70.177  1.00  0.00    -0.097 C  
HETATM    8  O   UNL     1     -10.562  10.681  70.321  1.00  0.00    -0.147 OA 
HETATM    9  N   UNL     1      -8.624  10.128  69.169  1.00  0.00    -0.154 N  
HETATM   10  H   UNL     1      -8.014   9.327  69.008  1.00  0.00     0.000 HD 
BRANCH   9  11
HETATM   11  C   UNL     1      -8.450  11.224  68.359  1.00  0.00    -0.153 C  
HETATM   12  N   UNL     1      -7.566  12.124  68.606  1.00  0.00    -0.171 N  
HETATM   13  C   UNL     1      -7.494  13.226  67.784  1.00  0.00    -0.154 C  
HETATM   14  H   UNL     1      -6.929  12.024  69.396  1.00  0.00     0.000 HD 
HETATM   15  N   UNL     1      -8.628  13.509  66.997  1.00  0.00    -0.192 N  
HETATM   16  O   UNL     1      -6.487  13.924  67.776  1.00  0.00    -0.151 OA 
HETATM   17  F   UNL     1     -10.118  10.202  66.914  1.00  0.00    -0.227 F  
HETATM   18  C   UNL     1      -9.443  12.453  66.604  1.00  0.00    -0.232 C  
HETATM   19  C   UNL     1      -9.359  11.270  67.210  1.00  0.00    -0.166 C  
BRANCH  15  20
HETATM   20  C   UNL     1      -8.751  14.823  66.350  1.00  0.00    -0.027 C  
HETATM   21  C   UNL     1      -9.768  16.314  67.852  1.00  0.00    -0.233 C  
HETATM   22  O   UNL     1      -8.523  15.890  67.292  1.00  0.00    -0.165 OA 
HETATM   23  C   UNL     1     -10.081  15.510  69.109  1.00  0.00    -0.239 C  
HETATM   24  C   UNL     1     -10.787  16.143  66.730  1.00  0.00    -0.162 C  
HETATM   25  O   UNL     1     -11.014  17.372  66.021  1.00  0.00    -0.052 OA 
HETATM   26  C   UNL     1     -10.154  15.125  65.773  1.00  0.00    -0.346 C  
HETATM   27  H   UNL     1     -11.649  17.265  65.322  1.00  0.00     0.000 HD 
HETATM   28  O   UNL     1     -10.037  15.638  64.436  1.00  0.00    -0.227 OA 
HETATM   29  H   UNL     1     -10.898  15.824  64.081  1.00  0.00     0.000 HD 
ENDBRANCH  15  20
ENDBRANCH   9  11
ENDBRANCH   6   7
ENDBRANCH   5   6
ENDBRANCH   4   5
ENDBRANCH   3   4
ENDBRANCH   2   3
TORSDOF 7
ENDMDL
MODEL      219
REMARK 921   NORMALIZED FREE ENERGY PREDICTED BY IDOCK:   -3.25 KCAL/MOL
REMARK 922        TOTAL FREE ENERGY PREDICTED BY IDOCK:   -5.68 KCAL/MOL
REMARK 923 INTER-LIGAND FREE ENERGY PREDICTED BY IDOCK:   -4.79 KCAL/MOL
REMARK 924 INTRA-LIGAND FREE ENERGY PREDICTED BY IDOCK:   -0.89 KCAL/MOL
REMARK 927      BINDING AFFINITY PREDICTED BY RF-SCORE:    0.00 PKD
ROOT
HETATM    1  C   UNL     1      -5.130  14.239  69.546  1.00  0.00    -0.090 C  
HETATM    2  C   UNL     1      -5.970  14.893  70.637  1.00  0.00    -0.106 C  
ENDROOT
BRANCH   2   3
HETATM    3  C   UNL     1      -7.002  15.837  70.031  1.00  0.00     0.111 C  
BRANCH   3   4
HETATM    4  C   UNL     1      -6.411  16.808  69.001  1.00  0.00    -0.195 C  
BRANCH   4   5
HETATM    5  C   UNL     1      -7.552  17.600  68.367  1.00  0.00    -0.260 C  
BRANCH   5   6
HETATM    6  O   UNL     1      -8.853  17.063  68.641  1.00  0.00    -0.257 OA 
BRANCH   6   7
HETATM    7  C   UNL     1      -9.344  16.302  67.631  1.00  0.00    -0.218 C  
HETATM    8  O   UNL     1      -9.531  16.713  66.498  1.00  0.00    -0.239 OA 
HETATM    9  N   UNL     1      -9.608  15.043  68.109  1.00  0.00    -0.204 N  
HETATM   10  H   UNL     1      -9.695  14.938  69.119  1.00  0.00     0.000 HD 
BRANCH   9  11
HETATM   11  C   UNL     1      -9.766  13.914  67.343  1.00  0.00    -0.234 C  
HETATM   12  N   UNL     1     -10.910  13.559  66.874  1.00  0.00    -0.281 N  
HETATM   13  C   UNL     1     -11.001  12.380  66.168  1.00  0.00    -0.286 C  
HETATM   14  H   UNL     1     -11.735  14.140  67.022  1.00  0.00     0.000 HD 
HETATM   15  N   UNL     1      -9.961  11.446  66.352  1.00  0.00    -0.208 N  
HETATM   16  O   UNL     1     -11.964  12.171  65.441  1.00  0.00    -0.410 OA 
HETATM   17  F   UNL     1      -7.347  13.697  67.477  1.00  0.00    -0.137 F  
HETATM   18  C   UNL     1      -8.694  11.918  66.675  1.00  0.00    -0.185 C  
HETATM   19  C   UNL     1      -8.527  13.162  67.121  1.00  0.00    -0.169 C  
BRANCH  15  20
HETATM   20  C   UNL     1     -10.145  10.061  65.897  1.00  0.00    -0.249 C  
HETATM   21  C   UNL     1     -10.446   8.680  67.771  1.00  0.00    -0.224 C  
HETATM   22  O   UNL     1     -11.112   9.369  66.711  1.00  0.00     0.088 OA 
HETATM   23  C   UNL     1     -10.329   9.584  68.993  1.00  0.00    -0.219 C  
HETATM   24  C   UNL     1      -9.109   8.245  67.185  1.00  0.00    -0.139 C  
HETATM   25  O   UNL     1      -9.148   6.888  66.712  1.00  0.00    -0.134 OA 
HETATM   26  C   UNL     1      -8.877   9.181  65.992  1.00  0.00    -0.168 C  
HETATM   27  H   UNL     1      -8.313   6.617  66.346  1.00  0.00     0.000 HD 
HETATM   28  O   UNL     1      -8.684   8.459  64.765  1.00  0.00    -0.376 OA 
HETATM   29  H   UNL     1      -7.905   7.918  64.823  1.00  0.00     0.000 HD 
ENDBRANCH  15  20
ENDBRANCH   9  11
ENDBRANCH   6   7
ENDBRANCH   5   6
ENDBRANCH   4   5
ENDBRANCH   3   4
ENDBRANCH   2   3
TORSDOF 7
ENDMDL
MODEL      220
REMARK 921   NORMALIZED FREE ENERGY PREDICTED BY IDOCK:   -3.24 KCAL/MOL
REMARK 922        TOTAL FREE ENERGY PREDICTED BY IDOCK:   -5.67 KCAL/MOL
REMARK 923 INTER-LIGAND FREE ENERGY PREDICTED BY IDOCK:   -4.67 KCAL/MOL
REMARK 924 INTRA-LIGAND FREE ENERGY PREDICTED BY IDOCK:   -1.00 KCAL/MOL
REMARK 927      BINDING AFFINITY PREDICTED BY RF-SCORE:    0.00 PKD
ROOT
HETATM    1  C   UNL     1     -10.671  11.732  63.444  1.00  0.00    -0.468 C  
HETATM    2  C   UNL     1     -10.791  12.417  64.800  1.00  0.00    -0.340 C  
ENDROOT
BRANCH   2   3
HETATM    3  C   UNL     1      -9.802  11.821  65.796  1.00  0.00    -0.267 C  
BRANCH   3   4
HETATM    4  C   UNL     1      -9.305  12.828  66.840  1.00  0.00    -0.234 C  
BRANCH   4   5
HETATM    5  C   UNL     1      -9.620  12.283  68.232  1.00  0.00    -0.212 C  
BRANCH   5   6
HETATM    6  O   UNL     1     -10.975  11.842  68.388  1.00  0.00    -0.204 OA 
BRANCH   6   7
HETATM    7  C   UNL     1     -11.111  10.830  69.281  1.00  0.00    -0.256 C  
HETATM    8  O   UNL     1     -11.915  10.836  70.198  1.00  0.00    -0.290 OA 
HETATM    9  N   UNL     1     -10.194   9.852  68.991  1.00  0.00    -0.189 N  
HETATM   10  H   UNL     1      -9.401  10.116  68.406  1.00  0.00     0.000 HD 
BRANCH   9  11
HETATM   11  C   UNL     1     -10.252   8.549  69.421  1.00  0.00    -0.211 C  
HETATM   12  N   UNL     1     -10.866   8.210  70.498  1.00  0.00    -0.237 N  
HETATM   13  C   UNL     1     -10.827   6.893  70.899  1.00  0.00    -0.244 C  
HETATM   14  H   UNL     1     -11.373   8.904  71.047  1.00  0.00     0.000 HD 
HETATM   15  N   UNL     1      -9.800   6.093  70.357  1.00  0.00    -0.175 N  
HETATM   16  O   UNL     1     -11.644   6.470  71.708  1.00  0.00    -0.281 OA 
HETATM   17  F   UNL     1      -9.104   7.998  67.348  1.00  0.00    -0.130 F  
HETATM   18  C   UNL     1      -9.311   6.407  69.094  1.00  0.00    -0.132 C  
HETATM   19  C   UNL     1      -9.552   7.599  68.550  1.00  0.00    -0.148 C  
BRANCH  15  20
HETATM   20  C   UNL     1      -9.498   4.791  70.969  1.00  0.00    -0.164 C  
HETATM   21  C   UNL     1      -7.740   5.063  72.500  1.00  0.00    -0.097 C  
HETATM   22  O   UNL     1      -9.157   4.937  72.361  1.00  0.00    -0.128 OA 
HETATM   23  C   UNL     1      -7.333   6.530  72.430  1.00  0.00    -0.090 C  
HETATM   24  C   UNL     1      -7.153   4.197  71.391  1.00  0.00    -0.039 C  
HETATM   25  O   UNL     1      -6.796   2.888  71.865  1.00  0.00    -0.022 OA 
HETATM   26  C   UNL     1      -8.279   4.062  70.357  1.00  0.00    -0.058 C  
HETATM   27  H   UNL     1      -6.430   2.349  71.173  1.00  0.00     0.000 HD 
HETATM   28  O   UNL     1      -8.608   2.690  70.089  1.00  0.00    -0.054 OA 
HETATM   29  H   UNL     1      -7.859   2.242  69.714  1.00  0.00     0.000 HD 
ENDBRANCH  15  20
ENDBRANCH   9  11
ENDBRANCH   6   7
ENDBRANCH   5   6
ENDBRANCH   4   5
ENDBRANCH   3   4
ENDBRANCH   2   3
TORSDOF 7
ENDMDL
MODEL      221
REMARK 921   NORMALIZED FREE ENERGY PREDICTED BY IDOCK:   -3.19 KCAL/MOL
REMARK 922        TOTAL FREE ENERGY PREDICTED BY IDOCK:   -5.60 KCAL/MOL
REMARK 923 INTER-LIGAND FREE ENERGY PREDICTED BY IDOCK:   -5.87 KCAL/MOL
REMARK 924 INTRA-LIGAND FREE ENERGY PREDICTED BY IDOCK:    0.28 KCAL/MOL
REMARK 927      BINDING AFFINITY PREDICTED BY RF-SCORE:    0.00 PKD
ROOT
HETATM    1  C   UNL     1     -10.875  19.614  67.265  1.00  0.00    -0.519 C  
HETATM    2  C   UNL     1      -9.659  20.532  67.222  1.00  0.00    -0.580 C  
ENDROOT
BRANCH   2   3
HETATM    3  C   UNL     1      -8.379  19.724  67.037  1.00  0.00    -0.349 C  
BRANCH   3   4
HETATM    4  C   UNL     1      -8.025  18.855  68.249  1.00  0.00    -0.343 C  
BRANCH   4   5
HETATM    5  C   UNL     1      -7.765  17.429  67.768  1.00  0.00    -0.195 C  
BRANCH   5   6
HETATM    6  O   UNL     1      -7.166  16.584  68.758  1.00  0.00    -0.172 OA 
BRANCH   6   7
HETATM    7  C   UNL     1      -7.866  15.444  68.987  1.00  0.00    -0.194 C  
HETATM    8  O   UNL     1      -8.940  15.410  69.566  1.00  0.00    -0.263 OA 
HETATM    9  N   UNL     1      -7.158  14.378  68.494  1.00  0.00    -0.101 N  
HETATM   10  H   UNL     1      -6.163  14.520  68.322  1.00  0.00     0.000 HD 
BRANCH   9  11
HETATM   11  C   UNL     1      -7.674  13.137  68.211  1.00  0.00    -0.141 C  
HETATM   12  N   UNL     1      -8.922  12.866  68.357  1.00  0.00    -0.320 N  
HETATM   13  C   UNL     1      -9.355  11.581  68.115  1.00  0.00    -0.185 C  
HETATM   14  H   UNL     1      -9.581  13.588  68.648  1.00  0.00     0.000 HD 
HETATM   15  N   UNL     1      -8.377  10.566  68.130  1.00  0.00    -0.116 N  
HETATM   16  O   UNL     1     -10.544  11.357  67.923  1.00  0.00    -0.176 OA 
HETATM   17  F   UNL     1      -5.439  12.578  67.430  1.00  0.00    -0.097 F  
HETATM   18  C   UNL     1      -7.074  10.895  67.774  1.00  0.00    -0.082 C  
HETATM   19  C   UNL     1      -6.680  12.167  67.741  1.00  0.00    -0.103 C  
BRANCH  15  20
HETATM   20  C   UNL     1      -8.795   9.159  68.202  1.00  0.00    -0.129 C  
HETATM   21  C   UNL     1      -9.242   8.389  66.030  1.00  0.00    -0.187 C  
HETATM   22  O   UNL     1      -8.280   8.405  67.086  1.00  0.00    -0.107 OA 
HETATM   23  C   UNL     1      -9.022   9.576  65.100  1.00  0.00    -0.253 C  
HETATM   24  C   UNL     1     -10.598   8.382  66.727  1.00  0.00    -0.156 C  
HETATM   25  O   UNL     1     -11.131   7.053  66.848  1.00  0.00    -0.561 OA 
HETATM   26  C   UNL     1     -10.324   8.938  68.130  1.00  0.00    -0.212 C  
HETATM   27  H   UNL     1     -11.976   7.050  67.283  1.00  0.00     0.000 HD 
HETATM   28  O   UNL     1     -10.741   8.033  69.163  1.00  0.00    -0.331 OA 
HETATM   29  H   UNL     1     -11.680   7.897  69.119  1.00  0.00     0.000 HD 
ENDBRANCH  15  20
ENDBRANCH   9  11
ENDBRANCH   6   7
ENDBRANCH   5   6
ENDBRANCH   4   5
ENDBRANCH   3   4
ENDBRANCH   2   3
TORSDOF 7
ENDMDL
MODEL      222
REMARK 921   NORMALIZED FREE ENERGY PREDICTED BY IDOCK:   -3.16 KCAL/MOL
REMARK 922        TOTAL FREE ENERGY PREDICTED BY IDOCK:   -5.55 KCAL/MOL
REMARK 923 INTER-LIGAND FREE ENERGY PREDICTED BY IDOCK:   -5.64 KCAL/MOL
REMARK 924 INTRA-LIGAND FREE ENERGY PREDICTED BY IDOCK:    0.09 KCAL/MOL
REMARK 927      BINDING AFFINITY PREDICTED BY RF-SCORE:    0.00 PKD
ROOT
HETATM    1  C   UNL     1     -10.194  20.156  66.431  1.00  0.00    -0.552 C  
HETATM    2  C   UNL     1     -10.009  19.298  67.678  1.00  0.00    -0.453 C  
ENDROOT
BRANCH   2   3
HETATM    3  C   UNL     1      -8.564  18.825  67.798  1.00  0.00    -0.305 C  
BRANCH   3   4
HETATM    4  C   UNL     1      -7.912  18.507  66.447  1.00  0.00    -0.291 C  
BRANCH   4   5
HETATM    5  C   UNL     1      -7.816  16.991  66.296  1.00  0.00    -0.311 C  
BRANCH   5   6
HETATM    6  O   UNL     1      -8.860  16.421  65.496  1.00  0.00    -0.305 OA 
BRANCH   6   7
HETATM    7  C   UNL     1      -9.602  15.498  66.159  1.00  0.00    -0.330 C  
HETATM    8  O   UNL     1     -10.817  15.422  66.083  1.00  0.00    -0.321 OA 
HETATM    9  N   UNL     1      -8.770  14.719  66.921  1.00  0.00    -0.246 N  
HETATM   10  H   UNL     1      -7.841  15.088  67.121  1.00  0.00     0.000 HD 
BRANCH   9  11
HETATM   11  C   UNL     1      -9.080  13.484  67.436  1.00  0.00    -0.219 C  
HETATM   12  N   UNL     1     -10.185  13.259  68.055  1.00  0.00    -0.234 N  
HETATM   13  C   UNL     1     -10.397  12.012  68.599  1.00  0.00    -0.196 C  
HETATM   14  H   UNL     1     -10.890  13.990  68.141  1.00  0.00     0.000 HD 
HETATM   15  N   UNL     1      -9.260  11.207  68.811  1.00  0.00    -0.172 N  
HETATM   16  O   UNL     1     -11.531  11.656  68.898  1.00  0.00    -0.234 OA 
HETATM   17  F   UNL     1      -7.013  12.726  66.402  1.00  0.00     0.433 F  
HETATM   18  C   UNL     1      -8.162  11.376  67.976  1.00  0.00    -0.140 C  
HETATM   19  C   UNL     1      -8.046  12.468  67.221  1.00  0.00    -0.179 C  
BRANCH  15  20
HETATM   20  C   UNL     1      -9.364  10.019  69.670  1.00  0.00    -0.220 C  
HETATM   21  C   UNL     1     -10.185   8.229  68.393  1.00  0.00    -0.209 C  
HETATM   22  O   UNL     1      -9.010   8.822  68.950  1.00  0.00    -0.133 OA 
HETATM   23  C   UNL     1     -10.442   8.781  66.996  1.00  0.00    -0.338 C  
HETATM   24  C   UNL     1     -11.294   8.525  69.396  1.00  0.00     0.360 C  
HETATM   25  O   UNL     1     -11.510   7.425  70.295  1.00  0.00    -0.394 OA 
HETATM   26  C   UNL     1     -10.789   9.731  70.199  1.00  0.00    -0.291 C  
HETATM   27  H   UNL     1     -12.202   7.609  70.921  1.00  0.00     0.000 HD 
HETATM   28  O   UNL     1     -10.748   9.466  71.609  1.00  0.00    -0.356 OA 
HETATM   29  H   UNL     1     -11.624   9.288  71.934  1.00  0.00     0.000 HD 
ENDBRANCH  15  20
ENDBRANCH   9  11
ENDBRANCH   6   7
ENDBRANCH   5   6
ENDBRANCH   4   5
ENDBRANCH   3   4
ENDBRANCH   2   3
TORSDOF 7
ENDMDL
MODEL      223
REMARK 921   NORMALIZED FREE ENERGY PREDICTED BY IDOCK:   -3.13 KCAL/MOL
REMARK 922        TOTAL FREE ENERGY PREDICTED BY IDOCK:   -5.51 KCAL/MOL
REMARK 923 INTER-LIGAND FREE ENERGY PREDICTED BY IDOCK:   -6.04 KCAL/MOL
REMARK 924 INTRA-LIGAND FREE ENERGY PREDICTED BY IDOCK:    0.53 KCAL/MOL
REMARK 927      BINDING AFFINITY PREDICTED BY RF-SCORE:    0.00 PKD
ROOT
HETATM    1  C   UNL     1      -7.424   2.168  68.422  1.00  0.00    -0.047 C  
HETATM    2  C   UNL     1      -8.438   3.181  68.940  1.00  0.00    -0.097 C  
ENDROOT
BRANCH   2   3
HETATM    3  C   UNL     1      -8.715   4.253  67.891  1.00  0.00    -0.119 C  
BRANCH   3   4
HETATM    4  C   UNL     1     -10.209   4.488  67.637  1.00  0.00    -0.001 C  
BRANCH   4   5
HETATM    5  C   UNL     1     -10.578   5.878  68.151  1.00  0.00    -0.244 C  
BRANCH   5   6
HETATM    6  O   UNL     1      -9.660   6.400  69.120  1.00  0.00    -0.137 OA 
BRANCH   6   7
HETATM    7  C   UNL     1     -10.145   7.470  69.799  1.00  0.00    -0.194 C  
HETATM    8  O   UNL     1     -10.135   7.565  71.015  1.00  0.00    -0.187 OA 
HETATM    9  N   UNL     1     -10.655   8.374  68.902  1.00  0.00    -0.358 N  
HETATM   10  H   UNL     1     -10.871   8.031  67.966  1.00  0.00     0.000 HD 
BRANCH   9  11
HETATM   11  C   UNL     1     -10.898   9.702  69.156  1.00  0.00    -0.190 C  
HETATM   12  N   UNL     1     -11.798  10.086  69.990  1.00  0.00    -0.433 N  
HETATM   13  C   UNL     1     -12.027  11.435  70.144  1.00  0.00    -0.377 C  
HETATM   14  H   UNL     1     -12.333   9.404  70.527  1.00  0.00     0.000 HD 
HETATM   15  N   UNL     1     -11.578  12.280  69.110  1.00  0.00    -0.297 N  
HETATM   16  O   UNL     1     -12.619  11.849  71.133  1.00  0.00    -0.372 OA 
HETATM   17  F   UNL     1      -9.007  10.148  67.692  1.00  0.00    -0.129 F  
HETATM   18  C   UNL     1     -10.472  11.887  68.365  1.00  0.00    -0.217 C  
HETATM   19  C   UNL     1     -10.050  10.623  68.392  1.00  0.00    -0.166 C  
BRANCH  15  20
HETATM   20  C   UNL     1     -12.062  13.666  69.045  1.00  0.00    -0.309 C  
HETATM   21  C   UNL     1     -10.215  15.113  68.979  1.00  0.00    -0.241 C  
HETATM   22  O   UNL     1     -11.223  14.472  68.195  1.00  0.00    -0.262 OA 
HETATM   23  C   UNL     1      -8.975  14.230  69.065  1.00  0.00     0.059 C  
HETATM   24  C   UNL     1     -10.876  15.395  70.323  1.00  0.00    -0.311 C  
HETATM   25  O   UNL     1     -11.384  16.737  70.398  1.00  0.00    -0.466 OA 
HETATM   26  C   UNL     1     -12.052  14.413  70.399  1.00  0.00    -0.331 C  
HETATM   27  H   UNL     1     -11.796  16.914  71.236  1.00  0.00     0.000 HD 
HETATM   28  O   UNL     1     -13.306  15.083  70.602  1.00  0.00    -0.611 OA 
HETATM   29  H   UNL     1     -13.300  15.543  71.434  1.00  0.00     0.000 HD 
ENDBRANCH  15  20
ENDBRANCH   9  11
ENDBRANCH   6   7
ENDBRANCH   5   6
ENDBRANCH   4   5
ENDBRANCH   3   4
ENDBRANCH   2   3
TORSDOF 7
ENDMDL
MODEL      224
REMARK 921   NORMALIZED FREE ENERGY PREDICTED BY IDOCK:   -3.12 KCAL/MOL
REMARK 922        TOTAL FREE ENERGY PREDICTED BY IDOCK:   -5.50 KCAL/MOL
REMARK 923 INTER-LIGAND FREE ENERGY PREDICTED BY IDOCK:   -5.85 KCAL/MOL
REMARK 924 INTRA-LIGAND FREE ENERGY PREDICTED BY IDOCK:    0.36 KCAL/MOL
REMARK 927      BINDING AFFINITY PREDICTED BY RF-SCORE:    0.00 PKD
ROOT
HETATM    1  C   UNL     1      -8.257   9.009  70.338  1.00  0.00    -0.163 C  
HETATM    2  C   UNL     1      -9.604   8.312  70.183  1.00  0.00    -0.167 C  
ENDROOT
BRANCH   2   3
HETATM    3  C   UNL     1     -10.566   9.170  69.368  1.00  0.00    -0.232 C  
BRANCH   3   4
HETATM    4  C   UNL     1     -10.037   9.522  67.972  1.00  0.00    -0.226 C  
BRANCH   4   5
HETATM    5  C   UNL     1     -10.333  10.995  67.695  1.00  0.00    -0.191 C  
BRANCH   5   6
HETATM    6  O   UNL     1     -10.675  11.747  68.866  1.00  0.00    -0.216 OA 
BRANCH   6   7
HETATM    7  C   UNL     1     -10.680  13.088  68.662  1.00  0.00    -0.248 C  
HETATM    8  O   UNL     1     -11.632  13.810  68.909  1.00  0.00    -0.272 OA 
HETATM    9  N   UNL     1      -9.477  13.461  68.119  1.00  0.00    -0.214 N  
HETATM   10  H   UNL     1      -8.913  12.729  67.689  1.00  0.00     0.000 HD 
BRANCH   9  11
HETATM   11  C   UNL     1      -8.967  14.737  68.106  1.00  0.00    -0.179 C  
HETATM   12  N   UNL     1      -8.073  15.126  68.944  1.00  0.00    -0.165 N  
HETATM   13  C   UNL     1      -7.657  16.438  68.910  1.00  0.00    -0.220 C  
HETATM   14  H   UNL     1      -7.679  14.474  69.623  1.00  0.00     0.000 HD 
HETATM   15  N   UNL     1      -8.507  17.358  68.264  1.00  0.00    -0.242 N  
HETATM   16  O   UNL     1      -6.605  16.765  69.446  1.00  0.00    -0.217 OA 
HETATM   17  F   UNL     1     -10.318  15.068  66.110  1.00  0.00    -0.262 F  
HETATM   18  C   UNL     1      -9.316  16.902  67.229  1.00  0.00    -0.236 C  
HETATM   19  C   UNL     1      -9.537  15.599  67.065  1.00  0.00    -0.223 C  
BRANCH  15  20
HETATM   20  C   UNL     1      -8.297  18.800  68.463  1.00  0.00    -0.346 C  
HETATM   21  C   UNL     1      -7.100  19.653  66.633  1.00  0.00    -0.217 C  
HETATM   22  O   UNL     1      -8.397  19.518  67.217  1.00  0.00    -0.279 OA 
HETATM   23  C   UNL     1      -6.808  18.467  65.721  1.00  0.00    -0.310 C  
HETATM   24  C   UNL     1      -6.144  19.784  67.813  1.00  0.00    -0.196 C  
HETATM   25  O   UNL     1      -5.842  21.159  68.106  1.00  0.00    -0.327 OA 
HETATM   26  C   UNL     1      -6.898  19.177  69.003  1.00  0.00    -0.328 C  
HETATM   27  H   UNL     1      -5.245  21.241  68.842  1.00  0.00     0.000 HD 
HETATM   28  O   UNL     1      -7.023  20.101  70.095  1.00  0.00    -0.181 OA 
HETATM   29  H   UNL     1      -6.164  20.333  70.427  1.00  0.00     0.000 HD 
ENDBRANCH  15  20
ENDBRANCH   9  11
ENDBRANCH   6   7
ENDBRANCH   5   6
ENDBRANCH   4   5
ENDBRANCH   3   4
ENDBRANCH   2   3
TORSDOF 7
ENDMDL
MODEL      225
REMARK 921   NORMALIZED FREE ENERGY PREDICTED BY IDOCK:   -3.11 KCAL/MOL
REMARK 922        TOTAL FREE ENERGY PREDICTED BY IDOCK:   -5.48 KCAL/MOL
REMARK 923 INTER-LIGAND FREE ENERGY PREDICTED BY IDOCK:   -4.73 KCAL/MOL
REMARK 924 INTRA-LIGAND FREE ENERGY PREDICTED BY IDOCK:   -0.75 KCAL/MOL
REMARK 927      BINDING AFFINITY PREDICTED BY RF-SCORE:    0.00 PKD
ROOT
HETATM    1  C   UNL     1     -11.136  15.339  66.766  1.00  0.00    -0.278 C  
HETATM    2  C   UNL     1     -10.333  14.098  67.138  1.00  0.00    -0.265 C  
ENDROOT
BRANCH   2   3
HETATM    3  C   UNL     1     -10.872  12.868  66.415  1.00  0.00    -0.293 C  
BRANCH   3   4
HETATM    4  C   UNL     1     -10.291  12.683  65.009  1.00  0.00    -0.320 C  
BRANCH   4   5
HETATM    5  C   UNL     1      -9.741  11.263  64.891  1.00  0.00    -0.256 C  
BRANCH   5   6
HETATM    6  O   UNL     1     -10.693  10.244  65.225  1.00  0.00    -0.037 OA 
BRANCH   6   7
HETATM    7  C   UNL     1     -10.268   9.415  66.212  1.00  0.00    -0.214 C  
HETATM    8  O   UNL     1     -10.577   9.540  67.385  1.00  0.00    -0.268 OA 
HETATM    9  N   UNL     1      -9.439   8.466  65.671  1.00  0.00    -0.438 N  
HETATM   10  H   UNL     1      -9.035   8.667  64.756  1.00  0.00     0.000 HD 
BRANCH   9  11
HETATM   11  C   UNL     1      -9.106   7.268  66.255  1.00  0.00    -0.149 C  
HETATM   12  N   UNL     1      -9.792   6.198  66.061  1.00  0.00    -0.387 N  
HETATM   13  C   UNL     1      -9.434   5.050  66.731  1.00  0.00    -0.144 C  
HETATM   14  H   UNL     1     -10.587   6.199  65.422  1.00  0.00     0.000 HD 
HETATM   15  N   UNL     1      -8.627   5.206  67.876  1.00  0.00    -0.104 N  
HETATM   16  O   UNL     1      -9.834   3.959  66.342  1.00  0.00    -0.195 OA 
HETATM   17  F   UNL     1      -7.147   8.429  67.110  1.00  0.00    -0.073 F  
HETATM   18  C   UNL     1      -7.763   6.293  67.936  1.00  0.00    -0.103 C  
HETATM   19  C   UNL     1      -7.918   7.328  67.112  1.00  0.00    -0.110 C  
BRANCH  15  20
HETATM   20  C   UNL     1      -8.475   4.084  68.813  1.00  0.00    -0.082 C  
HETATM   21  C   UNL     1      -9.894   4.433  70.651  1.00  0.00    -0.210 C  
HETATM   22  O   UNL     1      -9.737   3.733  69.415  1.00  0.00    -0.181 OA 
HETATM   23  C   UNL     1     -10.582   5.772  70.413  1.00  0.00    -0.365 C  
HETATM   24  C   UNL     1      -8.486   4.546  71.225  1.00  0.00    -0.107 C  
HETATM   25  O   UNL     1      -8.212   3.505  72.178  1.00  0.00    -0.070 OA 
HETATM   26  C   UNL     1      -7.553   4.375  70.020  1.00  0.00    -0.050 C  
HETATM   27  H   UNL     1      -7.334   3.576  72.536  1.00  0.00     0.000 HD 
HETATM   28  O   UNL     1      -6.623   3.296  70.202  1.00  0.00    -0.032 OA 
HETATM   29  H   UNL     1      -6.056   3.475  70.943  1.00  0.00     0.000 HD 
ENDBRANCH  15  20
ENDBRANCH   9  11
ENDBRANCH   6   7
ENDBRANCH   5   6
ENDBRANCH   4   5
ENDBRANCH   3   4
ENDBRANCH   2   3
TORSDOF 7
ENDMDL
MODEL      226
REMARK 921   NORMALIZED FREE ENERGY PREDICTED BY IDOCK:   -3.08 KCAL/MOL
REMARK 922        TOTAL FREE ENERGY PREDICTED BY IDOCK:   -5.44 KCAL/MOL
REMARK 923 INTER-LIGAND FREE ENERGY PREDICTED BY IDOCK:   -4.30 KCAL/MOL
REMARK 924 INTRA-LIGAND FREE ENERGY PREDICTED BY IDOCK:   -1.15 KCAL/MOL
REMARK 927      BINDING AFFINITY PREDICTED BY RF-SCORE:    0.00 PKD
ROOT
HETATM    1  C   UNL     1      -8.159   8.654  72.329  1.00  0.00    -0.089 C  
HETATM    2  C   UNL     1      -9.446   8.056  71.773  1.00  0.00    -0.223 C  
ENDROOT
BRANCH   2   3
HETATM    3  C   UNL     1     -10.478   7.872  72.880  1.00  0.00    -0.422 C  
BRANCH   3   4
HETATM    4  C   UNL     1     -10.033   6.893  73.973  1.00  0.00    -0.371 C  
BRANCH   4   5
HETATM    5  C   UNL     1      -9.447   5.650  73.306  1.00  0.00    -0.142 C  
BRANCH   5   6
HETATM    6  O   UNL     1     -10.374   4.563  73.190  1.00  0.00    -0.160 OA 
BRANCH   6   7
HETATM    7  C   UNL     1     -10.126   3.755  72.129  1.00  0.00    -0.150 C  
HETATM    8  O   UNL     1     -10.205   2.538  72.168  1.00  0.00    -0.162 OA 
HETATM    9  N   UNL     1      -9.756   4.526  71.057  1.00  0.00    -0.177 N  
HETATM   10  H   UNL     1      -9.440   5.476  71.254  1.00  0.00     0.000 HD 
BRANCH   9  11
HETATM   11  C   UNL     1      -9.775   4.130  69.742  1.00  0.00    -0.208 C  
HETATM   12  N   UNL     1      -9.279   3.008  69.358  1.00  0.00    -0.134 N  
HETATM   13  C   UNL     1      -9.278   2.708  68.014  1.00  0.00    -0.205 C  
HETATM   14  H   UNL     1      -8.892   2.351  70.037  1.00  0.00     0.000 HD 
HETATM   15  N   UNL     1      -9.429   3.787  67.121  1.00  0.00    -0.197 N  
HETATM   16  O   UNL     1      -9.126   1.550  67.642  1.00  0.00    -0.119 OA 
HETATM   17  F   UNL     1     -11.066   6.151  69.334  1.00  0.00    -0.335 F  
HETATM   18  C   UNL     1     -10.147   4.901  67.541  1.00  0.00    -0.132 C  
HETATM   19  C   UNL     1     -10.400   5.096  68.834  1.00  0.00    -0.116 C  
BRANCH  15  20
HETATM   20  C   UNL     1      -9.119   3.596  65.697  1.00  0.00    -0.150 C  
HETATM   21  C   UNL     1      -7.085   4.664  65.214  1.00  0.00    -0.063 C  
HETATM   22  O   UNL     1      -7.705   3.407  65.492  1.00  0.00    -0.080 OA 
HETATM   23  C   UNL     1      -6.629   5.324  66.510  1.00  0.00    -0.052 C  
HETATM   24  C   UNL     1      -8.130   5.460  64.441  1.00  0.00    -0.123 C  
HETATM   25  O   UNL     1      -7.929   5.370  63.021  1.00  0.00    -0.083 OA 
HETATM   26  C   UNL     1      -9.470   4.803  64.796  1.00  0.00    -0.015 C  
HETATM   27  H   UNL     1      -8.581   5.866  62.539  1.00  0.00     0.000 HD 
HETATM   28  O   UNL     1     -10.182   4.359  63.631  1.00  0.00    -0.389 OA 
HETATM   29  H   UNL     1     -10.398   5.100  63.077  1.00  0.00     0.000 HD 
ENDBRANCH  15  20
ENDBRANCH   9  11
ENDBRANCH   6   7
ENDBRANCH   5   6
ENDBRANCH   4   5
ENDBRANCH   3   4
ENDBRANCH   2   3
TORSDOF 7
ENDMDL
MODEL      227
REMARK 921   NORMALIZED FREE ENERGY PREDICTED BY IDOCK:   -3.07 KCAL/MOL
REMARK 922        TOTAL FREE ENERGY PREDICTED BY IDOCK:   -5.42 KCAL/MOL
REMARK 923 INTER-LIGAND FREE ENERGY PREDICTED BY IDOCK:   -4.41 KCAL/MOL
REMARK 924 INTRA-LIGAND FREE ENERGY PREDICTED BY IDOCK:   -1.01 KCAL/MOL
REMARK 927      BINDING AFFINITY PREDICTED BY RF-SCORE:    0.00 PKD
ROOT
HETATM    1  C   UNL     1      -6.976  10.008  68.588  1.00  0.00    -0.069 C  
HETATM    2  C   UNL     1      -7.904  11.120  68.111  1.00  0.00    -0.118 C  
ENDROOT
BRANCH   2   3
HETATM    3  C   UNL     1      -7.870  11.237  66.591  1.00  0.00    -0.152 C  
BRANCH   3   4
HETATM    4  C   UNL     1      -9.259  11.183  65.944  1.00  0.00    -0.225 C  
BRANCH   4   5
HETATM    5  C   UNL     1     -10.238  10.568  66.941  1.00  0.00    -0.229 C  
BRANCH   5   6
HETATM    6  O   UNL     1     -10.685   9.255  66.580  1.00  0.00    -0.145 OA 
BRANCH   6   7
HETATM    7  C   UNL     1     -10.293   8.295  67.455  1.00  0.00    -0.280 C  
HETATM    8  O   UNL     1      -9.578   7.353  67.155  1.00  0.00    -0.142 OA 
HETATM    9  N   UNL     1     -10.852   8.552  68.680  1.00  0.00    -0.434 N  
HETATM   10  H   UNL     1     -11.656   9.179  68.703  1.00  0.00     0.000 HD 
BRANCH   9  11
HETATM   11  C   UNL     1     -10.422   8.038  69.879  1.00  0.00    -0.233 C  
HETATM   12  N   UNL     1      -9.692   8.716  70.692  1.00  0.00    -0.175 N  
HETATM   13  C   UNL     1      -9.247   8.110  71.846  1.00  0.00    -0.182 C  
HETATM   14  H   UNL     1      -9.448   9.684  70.487  1.00  0.00     0.000 HD 
HETATM   15  N   UNL     1      -9.258   6.701  71.872  1.00  0.00    -0.147 N  
HETATM   16  O   UNL     1      -8.841   8.790  72.781  1.00  0.00    -0.382 OA 
HETATM   17  F   UNL     1     -11.778   6.094  69.333  1.00  0.00    -0.484 F  
HETATM   18  C   UNL     1     -10.207   6.031  71.107  1.00  0.00    -0.207 C  
HETATM   19  C   UNL     1     -10.862   6.663  70.134  1.00  0.00    -0.279 C  
BRANCH  15  20
HETATM   20  C   UNL     1      -8.510   5.990  72.918  1.00  0.00    -0.117 C  
HETATM   21  C   UNL     1      -6.271   5.783  72.243  1.00  0.00    -0.041 C  
HETATM   22  O   UNL     1      -7.179   6.524  73.062  1.00  0.00    -0.081 OA 
HETATM   23  C   UNL     1      -6.182   6.411  70.857  1.00  0.00    -0.039 C  
HETATM   24  C   UNL     1      -6.804   4.355  72.250  1.00  0.00    -0.050 C  
HETATM   25  O   UNL     1      -6.138   3.540  73.229  1.00  0.00    -0.010 OA 
HETATM   26  C   UNL     1      -8.283   4.487  72.636  1.00  0.00    -0.106 C  
HETATM   27  H   UNL     1      -6.470   2.650  73.233  1.00  0.00     0.000 HD 
HETATM   28  O   UNL     1      -8.612   3.711  73.798  1.00  0.00    -0.086 OA 
HETATM   29  H   UNL     1      -8.472   2.787  73.625  1.00  0.00     0.000 HD 
ENDBRANCH  15  20
ENDBRANCH   9  11
ENDBRANCH   6   7
ENDBRANCH   5   6
ENDBRANCH   4   5
ENDBRANCH   3   4
ENDBRANCH   2   3
TORSDOF 7
ENDMDL
MODEL      228
REMARK 921   NORMALIZED FREE ENERGY PREDICTED BY IDOCK:   -3.03 KCAL/MOL
REMARK 922        TOTAL FREE ENERGY PREDICTED BY IDOCK:   -5.37 KCAL/MOL
REMARK 923 INTER-LIGAND FREE ENERGY PREDICTED BY IDOCK:   -5.81 KCAL/MOL
REMARK 924 INTRA-LIGAND FREE ENERGY PREDICTED BY IDOCK:    0.44 KCAL/MOL
REMARK 927      BINDING AFFINITY PREDICTED BY RF-SCORE:    0.00 PKD
ROOT
HETATM    1  C   UNL     1     -10.461  11.538  64.714  1.00  0.00    -0.354 C  
HETATM    2  C   UNL     1     -11.005  12.961  64.656  1.00  0.00    -0.357 C  
ENDROOT
BRANCH   2   3
HETATM    3  C   UNL     1     -10.227  13.876  65.596  1.00  0.00    -0.344 C  
BRANCH   3   4
HETATM    4  C   UNL     1     -11.125  14.778  66.452  1.00  0.00    -0.340 C  
BRANCH   4   5
HETATM    5  C   UNL     1     -11.531  14.011  67.708  1.00  0.00    -0.322 C  
BRANCH   5   6
HETATM    6  O   UNL     1     -10.492  13.179  68.241  1.00  0.00    -0.237 OA 
BRANCH   6   7
HETATM    7  C   UNL     1     -10.880  11.894  68.439  1.00  0.00    -0.228 C  
HETATM    8  O   UNL     1     -12.002  11.479  68.203  1.00  0.00    -0.571 OA 
HETATM    9  N   UNL     1      -9.828  11.186  68.961  1.00  0.00    -0.359 N  
HETATM   10  H   UNL     1      -9.070  11.721  69.385  1.00  0.00     0.000 HD 
BRANCH   9  11
HETATM   11  C   UNL     1      -9.707   9.817  68.960  1.00  0.00    -0.177 C  
HETATM   12  N   UNL     1      -9.198   9.176  67.969  1.00  0.00    -0.134 N  
HETATM   13  C   UNL     1      -9.169   7.800  68.014  1.00  0.00    -0.138 C  
HETATM   14  H   UNL     1      -8.823   9.676  67.163  1.00  0.00     0.000 HD 
HETATM   15  N   UNL     1     -10.049   7.173  68.919  1.00  0.00    -0.171 N  
HETATM   16  O   UNL     1      -8.420   7.175  67.272  1.00  0.00    -0.120 OA 
HETATM   17  F   UNL     1     -10.547   9.917  71.240  1.00  0.00    -0.373 F  
HETATM   18  C   UNL     1     -10.411   7.857  70.074  1.00  0.00    -0.221 C  
HETATM   19  C   UNL     1     -10.212   9.170  70.175  1.00  0.00    -0.205 C  
BRANCH  15  20
HETATM   20  C   UNL     1     -10.306   5.731  68.798  1.00  0.00    -0.224 C  
HETATM   21  C   UNL     1      -9.779   4.693  70.836  1.00  0.00    -0.192 C  
HETATM   22  O   UNL     1     -10.842   5.193  70.023  1.00  0.00    -0.169 OA 
HETATM   23  C   UNL     1      -9.258   5.792  71.755  1.00  0.00    -0.157 C  
HETATM   24  C   UNL     1      -8.745   4.157  69.852  1.00  0.00    -0.070 C  
HETATM   25  O   UNL     1      -8.878   2.740  69.655  1.00  0.00    -0.069 OA 
HETATM   26  C   UNL     1      -9.047   4.874  68.531  1.00  0.00    -0.114 C  
HETATM   27  H   UNL     1      -8.232   2.406  69.042  1.00  0.00     0.000 HD 
HETATM   28  O   UNL     1      -9.296   3.953  67.458  1.00  0.00    -0.162 OA 
HETATM   29  H   UNL     1      -8.522   3.426  67.294  1.00  0.00     0.000 HD 
ENDBRANCH  15  20
ENDBRANCH   9  11
ENDBRANCH   6   7
ENDBRANCH   5   6
ENDBRANCH   4   5
ENDBRANCH   3   4
ENDBRANCH   2   3
TORSDOF 7
ENDMDL
MODEL      229
REMARK 921   NORMALIZED FREE ENERGY PREDICTED BY IDOCK:   -3.02 KCAL/MOL
REMARK 922        TOTAL FREE ENERGY PREDICTED BY IDOCK:   -5.35 KCAL/MOL
REMARK 923 INTER-LIGAND FREE ENERGY PREDICTED BY IDOCK:   -4.32 KCAL/MOL
REMARK 924 INTRA-LIGAND FREE ENERGY PREDICTED BY IDOCK:   -1.03 KCAL/MOL
REMARK 927      BINDING AFFINITY PREDICTED BY RF-SCORE:    0.00 PKD
ROOT
HETATM    1  C   UNL     1      -8.245  14.097  67.308  1.00  0.00    -0.200 C  
HETATM    2  C   UNL     1      -9.316  15.101  67.717  1.00  0.00    -0.189 C  
ENDROOT
BRANCH   2   3
HETATM    3  C   UNL     1     -10.467  14.403  68.433  1.00  0.00    -0.246 C  
BRANCH   3   4
HETATM    4  C   UNL     1     -11.778  14.416  67.637  1.00  0.00    -0.421 C  
BRANCH   4   5
HETATM    5  C   UNL     1     -11.737  13.286  66.611  1.00  0.00    -0.377 C  
BRANCH   5   6
HETATM    6  O   UNL     1     -12.147  12.015  67.133  1.00  0.00    -0.587 OA 
BRANCH   6   7
HETATM    7  C   UNL     1     -11.147  11.099  67.166  1.00  0.00    -0.287 C  
HETATM    8  O   UNL     1     -10.562  10.695  66.175  1.00  0.00    -0.219 OA 
HETATM    9  N   UNL     1     -10.945  10.706  68.464  1.00  0.00    -0.229 N  
HETATM   10  H   UNL     1     -11.696  10.889  69.129  1.00  0.00     0.000 HD 
BRANCH   9  11
HETATM   11  C   UNL     1      -9.817  10.088  68.946  1.00  0.00    -0.184 C  
HETATM   12  N   UNL     1      -8.634  10.469  68.617  1.00  0.00    -0.131 N  
HETATM   13  C   UNL     1      -7.552   9.759  69.090  1.00  0.00    -0.085 C  
HETATM   14  H   UNL     1      -8.498  11.281  68.016  1.00  0.00     0.000 HD 
HETATM   15  N   UNL     1      -7.801   8.449  69.546  1.00  0.00    -0.100 N  
HETATM   16  O   UNL     1      -6.434  10.260  69.079  1.00  0.00    -0.043 OA 
HETATM   17  F   UNL     1     -11.337   8.753  70.297  1.00  0.00    -0.259 F  
HETATM   18  C   UNL     1      -9.054   8.154  70.069  1.00  0.00    -0.151 C  
HETATM   19  C   UNL     1     -10.088   8.966  69.851  1.00  0.00    -0.195 C  
BRANCH  15  20
HETATM   20  C   UNL     1      -6.673   7.530  69.757  1.00  0.00    -0.043 C  
HETATM   21  C   UNL     1      -6.917   5.687  68.324  1.00  0.00    -0.068 C  
HETATM   22  O   UNL     1      -6.246   6.934  68.516  1.00  0.00    -0.028 OA 
HETATM   23  C   UNL     1      -8.222   5.902  67.567  1.00  0.00    -0.105 C  
HETATM   24  C   UNL     1      -7.094   5.111  69.725  1.00  0.00    -0.058 C  
HETATM   25  O   UNL     1      -6.054   4.176  70.054  1.00  0.00    -0.018 OA 
HETATM   26  C   UNL     1      -6.992   6.319  70.664  1.00  0.00    -0.064 C  
HETATM   27  H   UNL     1      -6.165   3.817  70.927  1.00  0.00     0.000 HD 
HETATM   28  O   UNL     1      -5.960   6.155  71.650  1.00  0.00    -0.033 OA 
HETATM   29  H   UNL     1      -6.156   5.411  72.207  1.00  0.00     0.000 HD 
ENDBRANCH  15  20
ENDBRANCH   9  11
ENDBRANCH   6   7
ENDBRANCH   5   6
ENDBRANCH   4   5
ENDBRANCH   3   4
ENDBRANCH   2   3
TORSDOF 7
ENDMDL
MODEL      230
REMARK 921   NORMALIZED FREE ENERGY PREDICTED BY IDOCK:   -3.01 KCAL/MOL
REMARK 922        TOTAL FREE ENERGY PREDICTED BY IDOCK:   -5.35 KCAL/MOL
REMARK 923 INTER-LIGAND FREE ENERGY PREDICTED BY IDOCK:   -5.66 KCAL/MOL
REMARK 924 INTRA-LIGAND FREE ENERGY PREDICTED BY IDOCK:    0.31 KCAL/MOL
REMARK 927      BINDING AFFINITY PREDICTED BY RF-SCORE:    0.00 PKD
ROOT
HETATM    1  C   UNL     1     -12.039  15.977  72.429  1.00  0.00    -0.629 C  
HETATM    2  C   UNL     1     -12.397  15.641  70.986  1.00  0.00    -0.481 C  
ENDROOT
BRANCH   2   3
HETATM    3  C   UNL     1     -12.826  14.183  70.860  1.00  0.00    -0.404 C  
BRANCH   3   4
HETATM    4  C   UNL     1     -13.500  13.634  72.124  1.00  0.00    -0.606 C  
BRANCH   4   5
HETATM    5  C   UNL     1     -13.616  12.117  71.994  1.00  0.00    -0.164 C  
BRANCH   5   6
HETATM    6  O   UNL     1     -12.553  11.516  71.243  1.00  0.00    -0.383 OA 
BRANCH   6   7
HETATM    7  C   UNL     1     -12.341  10.214  71.558  1.00  0.00    -0.408 C  
HETATM    8  O   UNL     1     -13.233   9.422  71.815  1.00  0.00    -0.358 OA 
HETATM    9  N   UNL     1     -10.991   9.970  71.561  1.00  0.00    -0.016 N  
HETATM   10  H   UNL     1     -10.372  10.777  71.633  1.00  0.00     0.000 HD 
BRANCH   9  11
HETATM   11  C   UNL     1     -10.402   8.732  71.476  1.00  0.00    -0.303 C  
HETATM   12  N   UNL     1     -10.431   7.892  72.449  1.00  0.00    -0.252 N  
HETATM   13  C   UNL     1      -9.763   6.695  72.313  1.00  0.00    -0.148 C  
HETATM   14  H   UNL     1     -10.938   8.108  73.307  1.00  0.00     0.000 HD 
HETATM   15  N   UNL     1      -8.767   6.632  71.318  1.00  0.00    -0.130 N  
HETATM   16  O   UNL     1     -10.027   5.755  73.052  1.00  0.00    -0.169 OA 
HETATM   17  F   UNL     1      -9.923   9.312  69.163  1.00  0.00    -0.163 F  
HETATM   18  C   UNL     1      -8.899   7.437  70.193  1.00  0.00    -0.147 C  
HETATM   19  C   UNL     1      -9.744   8.468  70.193  1.00  0.00    -0.170 C  
BRANCH  15  20
HETATM   20  C   UNL     1      -7.806   5.520  71.326  1.00  0.00    -0.110 C  
HETATM   21  C   UNL     1      -8.364   4.022  69.607  1.00  0.00    -0.057 C  
HETATM   22  O   UNL     1      -7.494   5.091  69.986  1.00  0.00    -0.057 OA 
HETATM   23  C   UNL     1      -9.621   4.577  68.947  1.00  0.00    -0.235 C  
HETATM   24  C   UNL     1      -8.623   3.245  70.893  1.00  0.00    -0.071 C  
HETATM   25  O   UNL     1      -7.750   2.110  71.017  1.00  0.00    -0.033 OA 
HETATM   26  C   UNL     1      -8.314   4.236  72.022  1.00  0.00    -0.106 C  
HETATM   27  H   UNL     1      -7.912   1.626  71.819  1.00  0.00     0.000 HD 
HETATM   28  O   UNL     1      -7.316   3.736  72.926  1.00  0.00    -0.059 OA 
HETATM   29  H   UNL     1      -7.629   2.947  73.353  1.00  0.00     0.000 HD 
ENDBRANCH  15  20
ENDBRANCH   9  11
ENDBRANCH   6   7
ENDBRANCH   5   6
ENDBRANCH   4   5
ENDBRANCH   3   4
ENDBRANCH   2   3
TORSDOF 7
ENDMDL
MODEL      231
REMARK 921   NORMALIZED FREE ENERGY PREDICTED BY IDOCK:   -2.98 KCAL/MOL
REMARK 922        TOTAL FREE ENERGY PREDICTED BY IDOCK:   -5.31 KCAL/MOL
REMARK 923 INTER-LIGAND FREE ENERGY PREDICTED BY IDOCK:   -4.50 KCAL/MOL
REMARK 924 INTRA-LIGAND FREE ENERGY PREDICTED BY IDOCK:   -0.81 KCAL/MOL
REMARK 927      BINDING AFFINITY PREDICTED BY RF-SCORE:    0.00 PKD
ROOT
HETATM    1  C   UNL     1      -9.340  15.620  68.755  1.00  0.00    -0.213 C  
HETATM    2  C   UNL     1     -10.285  14.958  67.758  1.00  0.00    -0.236 C  
ENDROOT
BRANCH   2   3
HETATM    3  C   UNL     1      -9.885  13.507  67.516  1.00  0.00    -0.227 C  
BRANCH   3   4
HETATM    4  C   UNL     1      -8.486  13.353  66.907  1.00  0.00    -0.066 C  
BRANCH   4   5
HETATM    5  C   UNL     1      -7.622  12.542  67.870  1.00  0.00    -0.133 C  
BRANCH   5   6
HETATM    6  O   UNL     1      -7.447  11.174  67.479  1.00  0.00    -0.096 OA 
BRANCH   6   7
HETATM    7  C   UNL     1      -7.783  10.289  68.452  1.00  0.00    -0.093 C  
HETATM    8  O   UNL     1      -7.918  10.590  69.627  1.00  0.00    -0.143 OA 
HETATM    9  N   UNL     1      -7.907   9.041  67.897  1.00  0.00    -0.100 N  
HETATM   10  H   UNL     1      -7.471   8.890  66.988  1.00  0.00     0.000 HD 
BRANCH   9  11
HETATM   11  C   UNL     1      -8.569   7.978  68.461  1.00  0.00    -0.128 C  
HETATM   12  N   UNL     1      -9.780   7.682  68.149  1.00  0.00    -0.150 N  
HETATM   13  C   UNL     1     -10.399   6.641  68.804  1.00  0.00    -0.194 C  
HETATM   14  H   UNL     1     -10.275   8.210  67.430  1.00  0.00     0.000 HD 
HETATM   15  N   UNL     1      -9.840   6.240  70.033  1.00  0.00    -0.167 N  
HETATM   16  O   UNL     1     -11.402   6.123  68.327  1.00  0.00    -0.253 OA 
HETATM   17  F   UNL     1      -6.461   7.479  69.569  1.00  0.00    -0.033 F  
HETATM   18  C   UNL     1      -8.475   6.417  70.231  1.00  0.00    -0.135 C  
HETATM   19  C   UNL     1      -7.775   7.230  69.441  1.00  0.00    -0.107 C  
BRANCH  15  20
HETATM   20  C   UNL     1     -10.614   5.372  70.932  1.00  0.00    -0.212 C  
HETATM   21  C   UNL     1     -11.269   6.617  72.811  1.00  0.00    -0.227 C  
HETATM   22  O   UNL     1     -11.696   6.096  71.551  1.00  0.00    -0.290 OA 
HETATM   23  C   UNL     1     -10.676   8.010  72.630  1.00  0.00    -0.426 C  
HETATM   24  C   UNL     1     -10.288   5.586  73.356  1.00  0.00    -0.219 C  
HETATM   25  O   UNL     1     -10.921   4.675  74.271  1.00  0.00    -0.314 OA 
HETATM   26  C   UNL     1      -9.812   4.804  72.126  1.00  0.00    -0.172 C  
HETATM   27  H   UNL     1     -10.309   4.033  74.611  1.00  0.00     0.000 HD 
HETATM   28  O   UNL     1     -10.049   3.393  72.254  1.00  0.00    -0.162 OA 
HETATM   29  H   UNL     1      -9.556   3.044  72.987  1.00  0.00     0.000 HD 
ENDBRANCH  15  20
ENDBRANCH   9  11
ENDBRANCH   6   7
ENDBRANCH   5   6
ENDBRANCH   4   5
ENDBRANCH   3   4
ENDBRANCH   2   3
TORSDOF 7
ENDMDL
MODEL      232
REMARK 921   NORMALIZED FREE ENERGY PREDICTED BY IDOCK:   -2.97 KCAL/MOL
REMARK 922        TOTAL FREE ENERGY PREDICTED BY IDOCK:   -5.29 KCAL/MOL
REMARK 923 INTER-LIGAND FREE ENERGY PREDICTED BY IDOCK:   -5.73 KCAL/MOL
REMARK 924 INTRA-LIGAND FREE ENERGY PREDICTED BY IDOCK:    0.44 KCAL/MOL
REMARK 927      BINDING AFFINITY PREDICTED BY RF-SCORE:    0.00 PKD
ROOT
HETATM    1  C   UNL     1      -9.526  18.626  67.536  1.00  0.00    -0.311 C  
HETATM    2  C   UNL     1      -8.819  17.999  66.341  1.00  0.00    -0.251 C  
ENDROOT
BRANCH   2   3
HETATM    3  C   UNL     1      -9.011  16.486  66.331  1.00  0.00    -0.340 C  
BRANCH   3   4
HETATM    4  C   UNL     1     -10.303  16.040  65.636  1.00  0.00    -0.414 C  
BRANCH   4   5
HETATM    5  C   UNL     1     -10.334  14.513  65.599  1.00  0.00    -0.349 C  
BRANCH   5   6
HETATM    6  O   UNL     1     -10.499  13.905  66.886  1.00  0.00    -0.272 OA 
BRANCH   6   7
HETATM    7  C   UNL     1      -9.929  12.677  66.978  1.00  0.00    -0.219 C  
HETATM    8  O   UNL     1      -8.873  12.377  66.447  1.00  0.00    -0.161 OA 
HETATM    9  N   UNL     1     -10.741  11.863  67.725  1.00  0.00    -0.200 N  
HETATM   10  H   UNL     1     -11.713  12.151  67.837  1.00  0.00     0.000 HD 
BRANCH   9  11
HETATM   11  C   UNL     1     -10.358  10.693  68.335  1.00  0.00    -0.175 C  
HETATM   12  N   UNL     1     -10.044  10.642  69.580  1.00  0.00    -0.420 N  
HETATM   13  C   UNL     1      -9.608   9.446  70.106  1.00  0.00    -0.238 C  
HETATM   14  H   UNL     1     -10.116  11.471  70.169  1.00  0.00     0.000 HD 
HETATM   15  N   UNL     1      -9.141   8.481  69.191  1.00  0.00    -0.146 N  
HETATM   16  O   UNL     1      -9.614   9.267  71.318  1.00  0.00    -0.271 OA 
HETATM   17  F   UNL     1     -10.861   9.625  66.208  1.00  0.00    -0.154 F  
HETATM   18  C   UNL     1      -9.668   8.476  67.905  1.00  0.00    -0.162 C  
HETATM   19  C   UNL     1     -10.336   9.531  67.441  1.00  0.00    -0.258 C  
BRANCH  15  20
HETATM   20  C   UNL     1      -8.371   7.329  69.683  1.00  0.00    -0.132 C  
HETATM   21  C   UNL     1      -9.857   5.580  70.178  1.00  0.00    -0.198 C  
HETATM   22  O   UNL     1      -8.933   6.088  69.213  1.00  0.00    -0.122 OA 
HETATM   23  C   UNL     1     -11.257   6.115  69.898  1.00  0.00    -0.484 C  
HETATM   24  C   UNL     1      -9.287   5.996  71.530  1.00  0.00    -0.149 C  
HETATM   25  O   UNL     1      -8.518   4.942  72.133  1.00  0.00    -0.120 OA 
HETATM   26  C   UNL     1      -8.358   7.176  71.222  1.00  0.00    -0.113 C  
HETATM   27  H   UNL     1      -8.163   5.201  72.976  1.00  0.00     0.000 HD 
HETATM   28  O   UNL     1      -7.018   6.946  71.683  1.00  0.00    -0.067 OA 
HETATM   29  H   UNL     1      -7.009   6.852  72.629  1.00  0.00     0.000 HD 
ENDBRANCH  15  20
ENDBRANCH   9  11
ENDBRANCH   6   7
ENDBRANCH   5   6
ENDBRANCH   4   5
ENDBRANCH   3   4
ENDBRANCH   2   3
TORSDOF 7
ENDMDL
MODEL      233
REMARK 921   NORMALIZED FREE ENERGY PREDICTED BY IDOCK:   -2.94 KCAL/MOL
REMARK 922        TOTAL FREE ENERGY PREDICTED BY IDOCK:   -5.24 KCAL/MOL
REMARK 923 INTER-LIGAND FREE ENERGY PREDICTED BY IDOCK:   -5.37 KCAL/MOL
REMARK 924 INTRA-LIGAND FREE ENERGY PREDICTED BY IDOCK:    0.13 KCAL/MOL
REMARK 927      BINDING AFFINITY PREDICTED BY RF-SCORE:    0.00 PKD
ROOT
HETATM    1  C   UNL     1     -10.515  19.573  66.655  1.00  0.00    -0.593 C  
HETATM    2  C   UNL     1     -10.339  18.739  67.919  1.00  0.00    -0.461 C  
ENDROOT
BRANCH   2   3
HETATM    3  C   UNL     1      -9.833  17.342  67.578  1.00  0.00    -0.275 C  
BRANCH   3   4
HETATM    4  C   UNL     1      -9.412  17.185  66.112  1.00  0.00    -0.228 C  
BRANCH   4   5
HETATM    5  C   UNL     1      -9.836  15.800  65.629  1.00  0.00    -0.322 C  
BRANCH   5   6
HETATM    6  O   UNL     1     -11.159  15.425  66.034  1.00  0.00    -0.313 OA 
BRANCH   6   7
HETATM    7  C   UNL     1     -11.231  14.167  66.538  1.00  0.00    -0.330 C  
HETATM    8  O   UNL     1     -12.277  13.598  66.801  1.00  0.00    -0.406 OA 
HETATM    9  N   UNL     1      -9.959  13.685  66.716  1.00  0.00    -0.263 N  
HETATM   10  H   UNL     1      -9.202  14.367  66.746  1.00  0.00     0.000 HD 
BRANCH   9  11
HETATM   11  C   UNL     1      -9.618  12.361  66.857  1.00  0.00    -0.219 C  
HETATM   12  N   UNL     1     -10.452  11.411  66.624  1.00  0.00    -0.234 N  
HETATM   13  C   UNL     1     -10.057  10.111  66.849  1.00  0.00    -0.223 C  
HETATM   14  H   UNL     1     -11.389  11.616  66.278  1.00  0.00     0.000 HD 
HETATM   15  N   UNL     1      -8.947   9.921  67.695  1.00  0.00    -0.128 N  
HETATM   16  O   UNL     1     -10.677   9.183  66.344  1.00  0.00    -0.055 OA 
HETATM   17  F   UNL     1      -7.374  13.171  67.334  1.00  0.00    -0.129 F  
HETATM   18  C   UNL     1      -7.979  10.917  67.755  1.00  0.00    -0.111 C  
HETATM   19  C   UNL     1      -8.237  12.142  67.299  1.00  0.00    -0.180 C  
BRANCH  15  20
HETATM   20  C   UNL     1      -8.669   8.582  68.235  1.00  0.00    -0.143 C  
HETATM   21  C   UNL     1      -7.213   7.462  66.773  1.00  0.00    -0.087 C  
HETATM   22  O   UNL     1      -7.301   8.197  67.995  1.00  0.00    -0.092 OA 
HETATM   23  C   UNL     1      -6.965   8.410  65.605  1.00  0.00    -0.067 C  
HETATM   24  C   UNL     1      -8.523   6.686  66.681  1.00  0.00    -0.120 C  
HETATM   25  O   UNL     1      -8.383   5.341  67.168  1.00  0.00    -0.108 OA 
HETATM   26  C   UNL     1      -9.497   7.446  67.591  1.00  0.00    -0.136 C  
HETATM   27  H   UNL     1      -9.199   4.857  67.110  1.00  0.00     0.000 HD 
HETATM   28  O   UNL     1     -10.055   6.603  68.611  1.00  0.00    -0.150 OA 
HETATM   29  H   UNL     1     -10.564   5.905  68.215  1.00  0.00     0.000 HD 
ENDBRANCH  15  20
ENDBRANCH   9  11
ENDBRANCH   6   7
ENDBRANCH   5   6
ENDBRANCH   4   5
ENDBRANCH   3   4
ENDBRANCH   2   3
TORSDOF 7
ENDMDL
MODEL      234
REMARK 921   NORMALIZED FREE ENERGY PREDICTED BY IDOCK:   -2.92 KCAL/MOL
REMARK 922        TOTAL FREE ENERGY PREDICTED BY IDOCK:   -5.22 KCAL/MOL
REMARK 923 INTER-LIGAND FREE ENERGY PREDICTED BY IDOCK:   -5.67 KCAL/MOL
REMARK 924 INTRA-LIGAND FREE ENERGY PREDICTED BY IDOCK:    0.45 KCAL/MOL
REMARK 927      BINDING AFFINITY PREDICTED BY RF-SCORE:    0.00 PKD
ROOT
HETATM    1  C   UNL     1     -10.183  17.629  68.548  1.00  0.00    -0.386 C  
HETATM    2  C   UNL     1      -9.422  18.944  68.424  1.00  0.00    -0.405 C  
ENDROOT
BRANCH   2   3
HETATM    3  C   UNL     1      -7.975  18.694  68.016  1.00  0.00    -0.294 C  
BRANCH   3   4
HETATM    4  C   UNL     1      -7.528  17.240  68.208  1.00  0.00    -0.224 C  
BRANCH   4   5
HETATM    5  C   UNL     1      -6.864  16.759  66.920  1.00  0.00    -0.220 C  
BRANCH   5   6
HETATM    6  O   UNL     1      -5.707  15.941  67.136  1.00  0.00    -0.333 OA 
BRANCH   6   7
HETATM    7  C   UNL     1      -5.924  14.918  68.000  1.00  0.00    -0.148 C  
HETATM    8  O   UNL     1      -5.448  14.861  69.121  1.00  0.00    -0.095 OA 
HETATM    9  N   UNL     1      -6.723  13.983  67.392  1.00  0.00    -0.213 N  
HETATM   10  H   UNL     1      -6.786  14.014  66.374  1.00  0.00     0.000 HD 
BRANCH   9  11
HETATM   11  C   UNL     1      -7.446  13.009  68.036  1.00  0.00    -0.134 C  
HETATM   12  N   UNL     1      -6.890  11.969  68.548  1.00  0.00    -0.072 N  
HETATM   13  C   UNL     1      -7.688  11.005  69.122  1.00  0.00    -0.102 C  
HETATM   14  H   UNL     1      -5.876  11.860  68.530  1.00  0.00     0.000 HD 
HETATM   15  N   UNL     1      -9.048  11.003  68.756  1.00  0.00    -0.173 N  
HETATM   16  O   UNL     1      -7.204  10.184  69.893  1.00  0.00    -0.121 OA 
HETATM   17  F   UNL     1      -9.371  14.457  67.694  1.00  0.00    -0.186 F  
HETATM   18  C   UNL     1      -9.640  12.207  68.392  1.00  0.00    -0.186 C  
HETATM   19  C   UNL     1      -8.890  13.263  68.077  1.00  0.00    -0.190 C  
BRANCH  15  20
HETATM   20  C   UNL     1      -9.880   9.831  69.066  1.00  0.00    -0.181 C  
HETATM   21  C   UNL     1     -11.910  10.564  69.989  1.00  0.00    -0.308 C  
HETATM   22  O   UNL     1     -11.272  10.094  68.800  1.00  0.00    -0.223 OA 
HETATM   23  C   UNL     1     -11.821  12.083  70.069  1.00  0.00    -0.392 C  
HETATM   24  C   UNL     1     -11.210   9.835  71.130  1.00  0.00    -0.374 C  
HETATM   25  O   UNL     1     -11.936   8.665  71.544  1.00  0.00    -0.278 OA 
HETATM   26  C   UNL     1      -9.857   9.401  70.551  1.00  0.00    -0.270 C  
HETATM   27  H   UNL     1     -11.499   8.211  72.255  1.00  0.00     0.000 HD 
HETATM   28  O   UNL     1      -9.652   7.984  70.652  1.00  0.00    -0.165 OA 
HETATM   29  H   UNL     1      -9.639   7.719  71.565  1.00  0.00     0.000 HD 
ENDBRANCH  15  20
ENDBRANCH   9  11
ENDBRANCH   6   7
ENDBRANCH   5   6
ENDBRANCH   4   5
ENDBRANCH   3   4
ENDBRANCH   2   3
TORSDOF 7
ENDMDL
MODEL      235
REMARK 921   NORMALIZED FREE ENERGY PREDICTED BY IDOCK:   -2.89 KCAL/MOL
REMARK 922        TOTAL FREE ENERGY PREDICTED BY IDOCK:   -5.17 KCAL/MOL
REMARK 923 INTER-LIGAND FREE ENERGY PREDICTED BY IDOCK:   -5.58 KCAL/MOL
REMARK 924 INTRA-LIGAND FREE ENERGY PREDICTED BY IDOCK:    0.40 KCAL/MOL
REMARK 927      BINDING AFFINITY PREDICTED BY RF-SCORE:    0.00 PKD
ROOT
HETATM    1  C   UNL     1     -13.599  15.270  71.584  1.00  0.00    -0.586 C  
HETATM    2  C   UNL     1     -12.634  14.179  71.133  1.00  0.00    -0.439 C  
ENDROOT
BRANCH   2   3
HETATM    3  C   UNL     1     -11.673  14.711  70.076  1.00  0.00    -0.348 C  
BRANCH   3   4
HETATM    4  C   UNL     1     -11.978  14.202  68.662  1.00  0.00    -0.373 C  
BRANCH   4   5
HETATM    5  C   UNL     1     -11.781  12.687  68.636  1.00  0.00    -0.325 C  
BRANCH   5   6
HETATM    6  O   UNL     1     -11.239  12.194  67.405  1.00  0.00    -0.264 OA 
BRANCH   6   7
HETATM    7  C   UNL     1     -10.402  11.140  67.569  1.00  0.00    -0.196 C  
HETATM    8  O   UNL     1      -9.661  11.003  68.529  1.00  0.00    -0.176 OA 
HETATM    9  N   UNL     1     -10.516  10.305  66.487  1.00  0.00    -0.203 N  
HETATM   10  H   UNL     1     -10.931  10.695  65.640  1.00  0.00     0.000 HD 
BRANCH   9  11
HETATM   11  C   UNL     1     -10.121   8.991  66.445  1.00  0.00    -0.281 C  
HETATM   12  N   UNL     1     -10.879   8.035  66.852  1.00  0.00    -0.414 N  
HETATM   13  C   UNL     1     -10.389   6.748  66.838  1.00  0.00    -0.254 C  
HETATM   14  H   UNL     1     -11.826   8.226  67.178  1.00  0.00     0.000 HD 
HETATM   15  N   UNL     1      -8.989   6.600  66.783  1.00  0.00    -0.128 N  
HETATM   16  O   UNL     1     -11.157   5.796  66.898  1.00  0.00    -0.222 OA 
HETATM   17  F   UNL     1      -8.122   9.809  65.327  1.00  0.00    -0.111 F  
HETATM   18  C   UNL     1      -8.241   7.590  66.155  1.00  0.00    -0.125 C  
HETATM   19  C   UNL     1      -8.772   8.787  65.908  1.00  0.00    -0.170 C  
BRANCH  15  20
HETATM   20  C   UNL     1      -8.385   5.295  67.087  1.00  0.00    -0.107 C  
HETATM   21  C   UNL     1      -8.102   4.104  65.084  1.00  0.00    -0.101 C  
HETATM   22  O   UNL     1      -7.444   4.905  66.068  1.00  0.00    -0.080 OA 
HETATM   23  C   UNL     1      -8.664   4.988  63.977  1.00  0.00    -0.089 C  
HETATM   24  C   UNL     1      -9.157   3.317  65.853  1.00  0.00    -0.152 C  
HETATM   25  O   UNL     1      -8.695   2.002  66.202  1.00  0.00    -0.109 OA 
HETATM   26  C   UNL     1      -9.390   4.120  67.140  1.00  0.00    -0.176 C  
HETATM   27  H   UNL     1      -9.353   1.511  66.681  1.00  0.00     0.000 HD 
HETATM   28  O   UNL     1      -9.166   3.332  68.319  1.00  0.00    -0.150 OA 
HETATM   29  H   UNL     1      -9.783   2.610  68.351  1.00  0.00     0.000 HD 
ENDBRANCH  15  20
ENDBRANCH   9  11
ENDBRANCH   6   7
ENDBRANCH   5   6
ENDBRANCH   4   5
ENDBRANCH   3   4
ENDBRANCH   2   3
TORSDOF 7
ENDMDL
MODEL      236
REMARK 921   NORMALIZED FREE ENERGY PREDICTED BY IDOCK:   -2.88 KCAL/MOL
REMARK 922        TOTAL FREE ENERGY PREDICTED BY IDOCK:   -5.17 KCAL/MOL
REMARK 923 INTER-LIGAND FREE ENERGY PREDICTED BY IDOCK:   -5.52 KCAL/MOL
REMARK 924 INTRA-LIGAND FREE ENERGY PREDICTED BY IDOCK:    0.36 KCAL/MOL
REMARK 927      BINDING AFFINITY PREDICTED BY RF-SCORE:    0.00 PKD
ROOT
HETATM    1  C   UNL     1      -8.209   1.683  66.826  1.00  0.00    -0.078 C  
HETATM    2  C   UNL     1      -7.503   2.793  66.055  1.00  0.00    -0.072 C  
ENDROOT
BRANCH   2   3
HETATM    3  C   UNL     1      -8.403   3.343  64.954  1.00  0.00    -0.094 C  
BRANCH   3   4
HETATM    4  C   UNL     1      -8.722   4.834  65.114  1.00  0.00    -0.144 C  
BRANCH   4   5
HETATM    5  C   UNL     1      -8.340   5.266  66.528  1.00  0.00    -0.108 C  
BRANCH   5   6
HETATM    6  O   UNL     1      -9.463   5.489  67.390  1.00  0.00    -0.113 OA 
BRANCH   6   7
HETATM    7  C   UNL     1     -10.196   6.578  67.046  1.00  0.00    -0.215 C  
HETATM    8  O   UNL     1     -11.404   6.559  66.877  1.00  0.00    -0.330 OA 
HETATM    9  N   UNL     1      -9.356   7.653  66.903  1.00  0.00    -0.152 N  
HETATM   10  H   UNL     1      -8.364   7.456  66.773  1.00  0.00     0.000 HD 
BRANCH   9  11
HETATM   11  C   UNL     1      -9.738   8.973  66.919  1.00  0.00    -0.200 C  
HETATM   12  N   UNL     1     -10.793   9.373  67.536  1.00  0.00    -0.431 N  
HETATM   13  C   UNL     1     -11.145  10.702  67.454  1.00  0.00    -0.272 C  
HETATM   14  H   UNL     1     -11.358   8.719  68.076  1.00  0.00     0.000 HD 
HETATM   15  N   UNL     1     -10.592  11.443  66.391  1.00  0.00    -0.255 N  
HETATM   16  O   UNL     1     -11.926  11.183  68.267  1.00  0.00    -0.592 OA 
HETATM   17  F   UNL     1      -7.665   9.406  65.722  1.00  0.00    -0.095 F  
HETATM   18  C   UNL     1      -9.349  11.066  65.895  1.00  0.00    -0.204 C  
HETATM   19  C   UNL     1      -8.844   9.864  66.172  1.00  0.00    -0.144 C  
BRANCH  15  20
HETATM   20  C   UNL     1     -11.160  12.755  66.050  1.00  0.00    -0.285 C  
HETATM   21  C   UNL     1      -9.606  14.424  66.606  1.00  0.00    -0.281 C  
HETATM   22  O   UNL     1     -10.148  13.645  65.538  1.00  0.00    -0.298 OA 
HETATM   23  C   UNL     1      -8.411  13.708  67.225  1.00  0.00    -0.203 C  
HETATM   24  C   UNL     1     -10.769  14.646  67.566  1.00  0.00    -0.268 C  
HETATM   25  O   UNL     1     -11.409  15.914  67.347  1.00  0.00    -0.202 OA 
HETATM   26  C   UNL     1     -11.765  13.524  67.248  1.00  0.00    -0.383 C  
HETATM   27  H   UNL     1     -12.134  16.053  67.946  1.00  0.00     0.000 HD 
HETATM   28  O   UNL     1     -13.063  14.033  66.903  1.00  0.00    -0.101 OA 
HETATM   29  H   UNL     1     -13.434  14.505  67.639  1.00  0.00     0.000 HD 
ENDBRANCH  15  20
ENDBRANCH   9  11
ENDBRANCH   6   7
ENDBRANCH   5   6
ENDBRANCH   4   5
ENDBRANCH   3   4
ENDBRANCH   2   3
TORSDOF 7
ENDMDL
MODEL      237
REMARK 921   NORMALIZED FREE ENERGY PREDICTED BY IDOCK:   -2.88 KCAL/MOL
REMARK 922        TOTAL FREE ENERGY PREDICTED BY IDOCK:   -5.16 KCAL/MOL
REMARK 923 INTER-LIGAND FREE ENERGY PREDICTED BY IDOCK:   -4.16 KCAL/MOL
REMARK 924 INTRA-LIGAND FREE ENERGY PREDICTED BY IDOCK:   -1.00 KCAL/MOL
REMARK 927      BINDING AFFINITY PREDICTED BY RF-SCORE:    0.00 PKD
ROOT
HETATM    1  C   UNL     1      -7.127   4.786  70.502  1.00  0.00    -0.048 C  
HETATM    2  C   UNL     1      -7.704   3.536  69.847  1.00  0.00    -0.047 C  
ENDROOT
BRANCH   2   3
HETATM    3  C   UNL     1      -9.061   3.188  70.448  1.00  0.00    -0.192 C  
BRANCH   3   4
HETATM    4  C   UNL     1      -9.925   4.417  70.756  1.00  0.00    -0.247 C  
BRANCH   4   5
HETATM    5  C   UNL     1     -10.758   4.751  69.521  1.00  0.00     0.709 C  
BRANCH   5   6
HETATM    6  O   UNL     1     -10.007   5.362  68.464  1.00  0.00    -0.144 OA 
BRANCH   6   7
HETATM    7  C   UNL     1     -10.401   6.631  68.189  1.00  0.00    -0.190 C  
HETATM    8  O   UNL     1     -11.328   6.910  67.446  1.00  0.00    -0.227 OA 
HETATM    9  N   UNL     1      -9.579   7.507  68.850  1.00  0.00    -0.149 N  
HETATM   10  H   UNL     1      -8.681   7.149  69.174  1.00  0.00     0.000 HD 
BRANCH   9  11
HETATM   11  C   UNL     1      -9.862   8.825  69.115  1.00  0.00    -0.181 C  
HETATM   12  N   UNL     1     -11.042   9.220  69.439  1.00  0.00    -0.425 N  
HETATM   13  C   UNL     1     -11.263  10.566  69.627  1.00  0.00    -0.282 C  
HETATM   14  H   UNL     1     -11.801   8.549  69.555  1.00  0.00     0.000 HD 
HETATM   15  N   UNL     1     -10.323  11.451  69.061  1.00  0.00    -0.180 N  
HETATM   16  O   UNL     1     -12.253  10.948  70.240  1.00  0.00    -0.296 OA 
HETATM   17  F   UNL     1      -7.477   9.212  68.838  1.00  0.00    -0.071 F  
HETATM   18  C   UNL     1      -9.010  11.019  68.914  1.00  0.00    -0.115 C  
HETATM   19  C   UNL     1      -8.710   9.723  68.988  1.00  0.00    -0.148 C  
BRANCH  15  20
HETATM   20  C   UNL     1     -10.654  12.878  68.940  1.00  0.00    -0.123 C  
HETATM   21  C   UNL     1     -10.884  13.413  66.666  1.00  0.00    -0.282 C  
HETATM   22  O   UNL     1     -11.591  13.106  67.870  1.00  0.00    -0.294 OA 
HETATM   23  C   UNL     1     -10.584  12.134  65.892  1.00  0.00    -0.293 C  
HETATM   24  C   UNL     1      -9.644  14.176  67.117  1.00  0.00    -0.244 C  
HETATM   25  O   UNL     1      -9.831  15.599  67.032  1.00  0.00    -0.228 OA 
HETATM   26  C   UNL     1      -9.454  13.787  68.589  1.00  0.00    -0.099 C  
HETATM   27  H   UNL     1      -9.058  16.075  67.312  1.00  0.00     0.000 HD 
HETATM   28  O   UNL     1      -9.432  14.933  69.454  1.00  0.00    -0.362 OA 
HETATM   29  H   UNL     1      -8.695  15.492  69.238  1.00  0.00     0.000 HD 
ENDBRANCH  15  20
ENDBRANCH   9  11
ENDBRANCH   6   7
ENDBRANCH   5   6
ENDBRANCH   4   5
ENDBRANCH   3   4
ENDBRANCH   2   3
TORSDOF 7
ENDMDL
MODEL      238
REMARK 921   NORMALIZED FREE ENERGY PREDICTED BY IDOCK:   -2.85 KCAL/MOL
REMARK 922        TOTAL FREE ENERGY PREDICTED BY IDOCK:   -5.12 KCAL/MOL
REMARK 923 INTER-LIGAND FREE ENERGY PREDICTED BY IDOCK:   -5.40 KCAL/MOL
REMARK 924 INTRA-LIGAND FREE ENERGY PREDICTED BY IDOCK:    0.28 KCAL/MOL
REMARK 927      BINDING AFFINITY PREDICTED BY RF-SCORE:    0.00 PKD
ROOT
HETATM    1  C   UNL     1     -10.727  19.164  66.700  1.00  0.00    -0.467 C  
HETATM    2  C   UNL     1     -10.326  18.584  68.052  1.00  0.00    -0.417 C  
ENDROOT
BRANCH   2   3
HETATM    3  C   UNL     1      -9.613  17.248  67.877  1.00  0.00    -0.269 C  
BRANCH   3   4
HETATM    4  C   UNL     1      -9.197  16.963  66.428  1.00  0.00    -0.308 C  
BRANCH   4   5
HETATM    5  C   UNL     1      -9.594  15.530  66.080  1.00  0.00    -0.330 C  
BRANCH   5   6
HETATM    6  O   UNL     1     -10.819  15.103  66.690  1.00  0.00    -0.311 OA 
BRANCH   6   7
HETATM    7  C   UNL     1     -10.762  13.842  67.186  1.00  0.00    -0.281 C  
HETATM    8  O   UNL     1     -11.654  13.327  67.839  1.00  0.00    -0.292 OA 
HETATM    9  N   UNL     1      -9.551  13.287  66.856  1.00  0.00    -0.242 N  
HETATM   10  H   UNL     1      -8.804  13.926  66.586  1.00  0.00     0.000 HD 
BRANCH   9  11
HETATM   11  C   UNL     1      -9.261  11.944  66.858  1.00  0.00    -0.193 C  
HETATM   12  N   UNL     1      -8.662  11.375  67.843  1.00  0.00    -0.139 N  
HETATM   13  C   UNL     1      -8.347  10.038  67.744  1.00  0.00    -0.114 C  
HETATM   14  H   UNL     1      -8.424  11.903  68.682  1.00  0.00     0.000 HD 
HETATM   15  N   UNL     1      -8.317   9.484  66.449  1.00  0.00    -0.118 N  
HETATM   16  O   UNL     1      -8.086   9.391  68.752  1.00  0.00    -0.100 OA 
HETATM   17  F   UNL     1     -10.474  11.857  64.751  1.00  0.00    -0.275 F  
HETATM   18  C   UNL     1      -9.139  10.035  65.472  1.00  0.00    -0.186 C  
HETATM   19  C   UNL     1      -9.686  11.238  65.645  1.00  0.00    -0.230 C  
BRANCH  15  20
HETATM   20  C   UNL     1      -7.686   8.174  66.236  1.00  0.00    -0.094 C  
HETATM   21  C   UNL     1      -9.282   6.493  66.608  1.00  0.00    -0.153 C  
HETATM   22  O   UNL     1      -8.599   7.252  65.608  1.00  0.00    -0.148 OA 
HETATM   23  C   UNL     1     -10.565   7.204  67.022  1.00  0.00    -0.413 C  
HETATM   24  C   UNL     1      -8.271   6.320  67.736  1.00  0.00    -0.118 C  
HETATM   25  O   UNL     1      -7.587   5.058  67.653  1.00  0.00    -0.085 OA 
HETATM   26  C   UNL     1      -7.254   7.451  67.533  1.00  0.00    -0.094 C  
HETATM   27  H   UNL     1      -6.957   4.950  68.356  1.00  0.00     0.000 HD 
HETATM   28  O   UNL     1      -5.913   6.956  67.399  1.00  0.00    -0.019 OA 
HETATM   29  H   UNL     1      -5.647   6.512  68.196  1.00  0.00     0.000 HD 
ENDBRANCH  15  20
ENDBRANCH   9  11
ENDBRANCH   6   7
ENDBRANCH   5   6
ENDBRANCH   4   5
ENDBRANCH   3   4
ENDBRANCH   2   3
TORSDOF 7
ENDMDL
MODEL      239
REMARK 921   NORMALIZED FREE ENERGY PREDICTED BY IDOCK:   -2.83 KCAL/MOL
REMARK 922        TOTAL FREE ENERGY PREDICTED BY IDOCK:   -5.09 KCAL/MOL
REMARK 923 INTER-LIGAND FREE ENERGY PREDICTED BY IDOCK:   -4.10 KCAL/MOL
REMARK 924 INTRA-LIGAND FREE ENERGY PREDICTED BY IDOCK:   -0.99 KCAL/MOL
REMARK 927      BINDING AFFINITY PREDICTED BY RF-SCORE:    0.00 PKD
ROOT
HETATM    1  C   UNL     1      -5.984  11.569  68.113  1.00  0.00    -0.045 C  
HETATM    2  C   UNL     1      -7.282  12.365  68.177  1.00  0.00    -0.100 C  
ENDROOT
BRANCH   2   3
HETATM    3  C   UNL     1      -7.876  12.542  66.784  1.00  0.00     0.119 C  
BRANCH   3   4
HETATM    4  C   UNL     1      -9.363  12.918  66.798  1.00  0.00    -0.243 C  
BRANCH   4   5
HETATM    5  C   UNL     1      -9.810  13.087  68.249  1.00  0.00    -0.225 C  
BRANCH   5   6
HETATM    6  O   UNL     1     -10.985  12.339  68.585  1.00  0.00    -0.218 OA 
BRANCH   6   7
HETATM    7  C   UNL     1     -10.769  11.001  68.653  1.00  0.00    -0.198 C  
HETATM    8  O   UNL     1     -11.096  10.214  67.780  1.00  0.00    -0.295 OA 
HETATM    9  N   UNL     1     -10.167  10.707  69.850  1.00  0.00    -0.437 N  
HETATM   10  H   UNL     1     -10.238  11.404  70.590  1.00  0.00     0.000 HD 
BRANCH   9  11
HETATM   11  C   UNL     1      -9.478   9.554  70.136  1.00  0.00    -0.246 C  
HETATM   12  N   UNL     1      -8.463   9.173  69.443  1.00  0.00    -0.125 N  
HETATM   13  C   UNL     1      -7.863   7.973  69.751  1.00  0.00    -0.106 C  
HETATM   14  H   UNL     1      -8.110   9.749  68.680  1.00  0.00     0.000 HD 
HETATM   15  N   UNL     1      -8.622   7.055  70.505  1.00  0.00    -0.140 N  
HETATM   16  O   UNL     1      -6.729   7.732  69.353  1.00  0.00    -0.039 OA 
HETATM   17  F   UNL     1     -10.941   9.365  72.070  1.00  0.00    -0.427 F  
HETATM   18  C   UNL     1      -9.580   7.550  71.382  1.00  0.00    -0.155 C  
HETATM   19  C   UNL     1     -10.006   8.808  71.283  1.00  0.00    -0.263 C  
BRANCH  15  20
HETATM   20  C   UNL     1      -8.184   5.655  70.594  1.00  0.00    -0.118 C  
HETATM   21  C   UNL     1      -8.853   4.525  68.648  1.00  0.00    -0.102 C  
HETATM   22  O   UNL     1      -7.756   5.159  69.310  1.00  0.00    -0.074 OA 
HETATM   23  C   UNL     1      -9.615   5.540  67.804  1.00  0.00    -0.138 C  
HETATM   24  C   UNL     1      -9.678   3.892  69.763  1.00  0.00    -0.156 C  
HETATM   25  O   UNL     1      -9.355   2.504  69.946  1.00  0.00    -0.127 OA 
HETATM   26  C   UNL     1      -9.288   4.664  71.030  1.00  0.00    -0.147 C  
HETATM   27  H   UNL     1      -9.870   2.109  70.640  1.00  0.00     0.000 HD 
HETATM   28  O   UNL     1      -8.794   3.797  72.063  1.00  0.00    -0.097 OA 
HETATM   29  H   UNL     1      -9.472   3.188  72.331  1.00  0.00     0.000 HD 
ENDBRANCH  15  20
ENDBRANCH   9  11
ENDBRANCH   6   7
ENDBRANCH   5   6
ENDBRANCH   4   5
ENDBRANCH   3   4
ENDBRANCH   2   3
TORSDOF 7
ENDMDL
MODEL      240
REMARK 921   NORMALIZED FREE ENERGY PREDICTED BY IDOCK:   -2.83 KCAL/MOL
REMARK 922        TOTAL FREE ENERGY PREDICTED BY IDOCK:   -5.09 KCAL/MOL
REMARK 923 INTER-LIGAND FREE ENERGY PREDICTED BY IDOCK:   -5.41 KCAL/MOL
REMARK 924 INTRA-LIGAND FREE ENERGY PREDICTED BY IDOCK:    0.32 KCAL/MOL
REMARK 927      BINDING AFFINITY PREDICTED BY RF-SCORE:    0.00 PKD
ROOT
HETATM    1  C   UNL     1      -6.596   5.492  72.039  1.00  0.00    -0.057 C  
HETATM    2  C   UNL     1      -7.885   5.608  72.845  1.00  0.00    -0.098 C  
ENDROOT
BRANCH   2   3
HETATM    3  C   UNL     1      -8.876   6.532  72.148  1.00  0.00    -0.135 C  
BRANCH   3   4
HETATM    4  C   UNL     1      -9.112   7.850  72.896  1.00  0.00    -0.281 C  
BRANCH   4   5
HETATM    5  C   UNL     1      -9.414   8.944  71.873  1.00  0.00    -0.230 C  
BRANCH   5   6
HETATM    6  O   UNL     1     -10.741   8.885  71.336  1.00  0.00    -0.259 OA 
BRANCH   6   7
HETATM    7  C   UNL     1     -11.099  10.008  70.664  1.00  0.00    -0.335 C  
HETATM    8  O   UNL     1     -12.156  10.594  70.833  1.00  0.00    -0.330 OA 
HETATM    9  N   UNL     1     -10.107  10.330  69.773  1.00  0.00    -0.343 N  
HETATM   10  H   UNL     1      -9.445   9.595  69.528  1.00  0.00     0.000 HD 
BRANCH   9  11
HETATM   11  C   UNL     1      -9.929  11.559  69.185  1.00  0.00     0.074 C  
HETATM   12  N   UNL     1     -10.917  12.328  68.894  1.00  0.00    -0.251 N  
HETATM   13  C   UNL     1     -10.664  13.517  68.247  1.00  0.00    -0.258 C  
HETATM   14  H   UNL     1     -11.871  12.062  69.137  1.00  0.00     0.000 HD 
HETATM   15  N   UNL     1      -9.427  13.630  67.583  1.00  0.00    -0.214 N  
HETATM   16  O   UNL     1     -11.506  14.408  68.245  1.00  0.00    -0.274 OA 
HETATM   17  F   UNL     1      -7.546  11.135  69.427  1.00  0.00    -0.132 F  
HETATM   18  C   UNL     1      -8.343  12.909  68.072  1.00  0.00    -0.169 C  
HETATM   19  C   UNL     1      -8.528  11.899  68.921  1.00  0.00     0.139 C  
BRANCH  15  20
HETATM   20  C   UNL     1      -9.220  14.719  66.617  1.00  0.00    -0.275 C  
HETATM   21  C   UNL     1      -8.749  16.696  67.792  1.00  0.00    -0.201 C  
HETATM   22  O   UNL     1      -8.177  15.613  67.055  1.00  0.00    -0.191 OA 
HETATM   23  C   UNL     1      -8.823  16.343  69.273  1.00  0.00    -0.121 C  
HETATM   24  C   UNL     1     -10.103  16.949  67.140  1.00  0.00    -0.287 C  
HETATM   25  O   UNL     1     -10.043  18.013  66.175  1.00  0.00    -0.426 OA 
HETATM   26  C   UNL     1     -10.445  15.640  66.416  1.00  0.00    -0.305 C  
HETATM   27  H   UNL     1     -10.887  18.171  65.769  1.00  0.00     0.000 HD 
HETATM   28  O   UNL     1     -10.687  15.842  65.015  1.00  0.00    -0.451 OA 
HETATM   29  H   UNL     1     -11.439  16.409  64.892  1.00  0.00     0.000 HD 
ENDBRANCH  15  20
ENDBRANCH   9  11
ENDBRANCH   6   7
ENDBRANCH   5   6
ENDBRANCH   4   5
ENDBRANCH   3   4
ENDBRANCH   2   3
TORSDOF 7
ENDMDL
MODEL      241
REMARK 921   NORMALIZED FREE ENERGY PREDICTED BY IDOCK:   -2.83 KCAL/MOL
REMARK 922        TOTAL FREE ENERGY PREDICTED BY IDOCK:   -5.08 KCAL/MOL
REMARK 923 INTER-LIGAND FREE ENERGY PREDICTED BY IDOCK:   -5.44 KCAL/MOL
REMARK 924 INTRA-LIGAND FREE ENERGY PREDICTED BY IDOCK:    0.36 KCAL/MOL
REMARK 927      BINDING AFFINITY PREDICTED BY RF-SCORE:    0.00 PKD
ROOT
HETATM    1  C   UNL     1      -5.938  13.326  67.663  1.00  0.00    -0.124 C  
HETATM    2  C   UNL     1      -6.992  14.381  67.350  1.00  0.00    -0.091 C  
ENDROOT
BRANCH   2   3
HETATM    3  C   UNL     1      -8.372  13.918  67.807  1.00  0.00    -0.174 C  
BRANCH   3   4
HETATM    4  C   UNL     1      -9.414  13.902  66.682  1.00  0.00    -0.296 C  
BRANCH   4   5
HETATM    5  C   UNL     1      -9.384  12.532  66.008  1.00  0.00    -0.086 C  
BRANCH   5   6
HETATM    6  O   UNL     1     -10.417  11.645  66.453  1.00  0.00    -0.229 OA 
BRANCH   6   7
HETATM    7  C   UNL     1      -9.968  10.671  67.285  1.00  0.00    -0.188 C  
HETATM    8  O   UNL     1      -8.788  10.438  67.484  1.00  0.00    -0.134 OA 
HETATM    9  N   UNL     1     -11.044  10.005  67.815  1.00  0.00    -0.452 N  
HETATM   10  H   UNL     1     -11.936  10.102  67.330  1.00  0.00     0.000 HD 
BRANCH   9  11
HETATM   11  C   UNL     1     -11.023   9.221  68.942  1.00  0.00    -0.017 C  
HETATM   12  N   UNL     1     -11.117   7.939  68.886  1.00  0.00    -0.404 N  
HETATM   13  C   UNL     1     -11.153   7.225  70.062  1.00  0.00    -0.240 C  
HETATM   14  H   UNL     1     -11.164   7.461  67.986  1.00  0.00     0.000 HD 
HETATM   15  N   UNL     1     -11.500   7.935  71.229  1.00  0.00    -0.261 N  
HETATM   16  O   UNL     1     -10.913   6.023  70.060  1.00  0.00    -0.324 OA 
HETATM   17  F   UNL     1     -10.605  11.285  70.159  1.00  0.00    -0.067 F  
HETATM   18  C   UNL     1     -11.194   9.289  71.297  1.00  0.00    -0.355 C  
HETATM   19  C   UNL     1     -10.892   9.973  70.193  1.00  0.00    -0.311 C  
BRANCH  15  20
HETATM   20  C   UNL     1     -11.870   7.195  72.443  1.00  0.00    -0.185 C  
HETATM   21  C   UNL     1      -9.930   6.779  73.699  1.00  0.00    -0.266 C  
HETATM   22  O   UNL     1     -11.080   7.618  73.572  1.00  0.00    -0.315 OA 
HETATM   23  C   UNL     1      -8.769   7.353  72.897  1.00  0.00    -0.165 C  
HETATM   24  C   UNL     1     -10.391   5.402  73.235  1.00  0.00    -0.206 C  
HETATM   25  O   UNL     1     -10.770   4.564  74.339  1.00  0.00    -0.261 OA 
HETATM   26  C   UNL     1     -11.626   5.670  72.366  1.00  0.00    -0.221 C  
HETATM   27  H   UNL     1     -11.057   3.705  74.049  1.00  0.00     0.000 HD 
HETATM   28  O   UNL     1     -12.783   4.961  72.835  1.00  0.00    -0.072 OA 
HETATM   29  H   UNL     1     -12.634   4.023  72.788  1.00  0.00     0.000 HD 
ENDBRANCH  15  20
ENDBRANCH   9  11
ENDBRANCH   6   7
ENDBRANCH   5   6
ENDBRANCH   4   5
ENDBRANCH   3   4
ENDBRANCH   2   3
TORSDOF 7
ENDMDL
MODEL      242
REMARK 921   NORMALIZED FREE ENERGY PREDICTED BY IDOCK:   -2.83 KCAL/MOL
REMARK 922        TOTAL FREE ENERGY PREDICTED BY IDOCK:   -5.08 KCAL/MOL
REMARK 923 INTER-LIGAND FREE ENERGY PREDICTED BY IDOCK:   -4.18 KCAL/MOL
REMARK 924 INTRA-LIGAND FREE ENERGY PREDICTED BY IDOCK:   -0.90 KCAL/MOL
REMARK 927      BINDING AFFINITY PREDICTED BY RF-SCORE:    0.00 PKD
ROOT
HETATM    1  C   UNL     1     -11.631  12.510  67.728  1.00  0.00    -0.401 C  
HETATM    2  C   UNL     1     -11.901  12.528  66.228  1.00  0.00    -0.453 C  
ENDROOT
BRANCH   2   3
HETATM    3  C   UNL     1     -10.612  12.768  65.450  1.00  0.00    -0.309 C  
BRANCH   3   4
HETATM    4  C   UNL     1     -10.133  11.539  64.667  1.00  0.00    -0.318 C  
BRANCH   4   5
HETATM    5  C   UNL     1     -10.391  10.292  65.510  1.00  0.00    -0.169 C  
BRANCH   5   6
HETATM    6  O   UNL     1      -9.272   9.893  66.312  1.00  0.00    -0.156 OA 
BRANCH   6   7
HETATM    7  C   UNL     1      -9.586   8.963  67.248  1.00  0.00    -0.164 C  
HETATM    8  O   UNL     1     -10.711   8.795  67.690  1.00  0.00    -0.234 OA 
HETATM    9  N   UNL     1      -8.446   8.293  67.611  1.00  0.00    -0.130 N  
HETATM   10  H   UNL     1      -7.555   8.739  67.395  1.00  0.00     0.000 HD 
BRANCH   9  11
HETATM   11  C   UNL     1      -8.401   7.073  68.242  1.00  0.00    -0.123 C  
HETATM   12  N   UNL     1      -9.130   6.082  67.867  1.00  0.00    -0.118 N  
HETATM   13  C   UNL     1      -9.077   4.910  68.588  1.00  0.00    -0.113 C  
HETATM   14  H   UNL     1      -9.736   6.162  67.051  1.00  0.00     0.000 HD 
HETATM   15  N   UNL     1      -8.568   4.992  69.899  1.00  0.00    -0.097 N  
HETATM   16  O   UNL     1      -9.484   3.865  68.095  1.00  0.00    -0.166 OA 
HETATM   17  F   UNL     1      -6.601   8.023  69.574  1.00  0.00    -0.036 F  
HETATM   18  C   UNL     1      -7.632   5.978  70.188  1.00  0.00    -0.095 C  
HETATM   19  C   UNL     1      -7.464   7.014  69.367  1.00  0.00    -0.097 C  
BRANCH  15  20
HETATM   20  C   UNL     1      -8.776   3.871  70.828  1.00  0.00    -0.073 C  
HETATM   21  C   UNL     1     -10.314   4.528  72.476  1.00  0.00    -0.195 C  
HETATM   22  O   UNL     1     -10.150   3.800  71.257  1.00  0.00    -0.136 OA 
HETATM   23  C   UNL     1     -10.669   5.980  72.177  1.00  0.00    -0.270 C  
HETATM   24  C   UNL     1      -8.999   4.347  73.226  1.00  0.00    -0.111 C  
HETATM   25  O   UNL     1      -9.074   3.281  74.188  1.00  0.00    -0.088 OA 
HETATM   26  C   UNL     1      -7.976   3.973  72.147  1.00  0.00    -0.084 C  
HETATM   27  H   UNL     1      -8.255   3.169  74.656  1.00  0.00     0.000 HD 
HETATM   28  O   UNL     1      -7.325   2.724  72.427  1.00  0.00    -0.044 OA 
HETATM   29  H   UNL     1      -6.833   2.786  73.237  1.00  0.00     0.000 HD 
ENDBRANCH  15  20
ENDBRANCH   9  11
ENDBRANCH   6   7
ENDBRANCH   5   6
ENDBRANCH   4   5
ENDBRANCH   3   4
ENDBRANCH   2   3
TORSDOF 7
ENDMDL
MODEL      243
REMARK 921   NORMALIZED FREE ENERGY PREDICTED BY IDOCK:   -2.77 KCAL/MOL
REMARK 922        TOTAL FREE ENERGY PREDICTED BY IDOCK:   -5.00 KCAL/MOL
REMARK 923 INTER-LIGAND FREE ENERGY PREDICTED BY IDOCK:   -5.16 KCAL/MOL
REMARK 924 INTRA-LIGAND FREE ENERGY PREDICTED BY IDOCK:    0.16 KCAL/MOL
REMARK 927      BINDING AFFINITY PREDICTED BY RF-SCORE:    0.00 PKD
ROOT
HETATM    1  C   UNL     1      -8.046   8.255  71.376  1.00  0.00    -0.148 C  
HETATM    2  C   UNL     1      -8.513   9.091  70.191  1.00  0.00    -0.165 C  
ENDROOT
BRANCH   2   3
HETATM    3  C   UNL     1      -8.859   8.200  69.003  1.00  0.00    -0.144 C  
BRANCH   3   4
HETATM    4  C   UNL     1     -10.350   8.208  68.647  1.00  0.00    -0.224 C  
BRANCH   4   5
HETATM    5  C   UNL     1     -11.027   9.345  69.409  1.00  0.00    -0.145 C  
BRANCH   5   6
HETATM    6  O   UNL     1     -11.728  10.269  68.567  1.00  0.00    -0.199 OA 
BRANCH   6   7
HETATM    7  C   UNL     1     -10.920  11.200  67.999  1.00  0.00    -0.252 C  
HETATM    8  O   UNL     1     -10.638  11.222  66.813  1.00  0.00    -0.237 OA 
HETATM    9  N   UNL     1     -10.474  12.057  68.972  1.00  0.00    -0.405 N  
HETATM   10  H   UNL     1     -10.539  11.739  69.939  1.00  0.00     0.000 HD 
BRANCH   9  11
HETATM   11  C   UNL     1      -9.948  13.308  68.756  1.00  0.00    -0.041 C  
HETATM   12  N   UNL     1      -8.682  13.530  68.772  1.00  0.00    -0.369 N  
HETATM   13  C   UNL     1      -8.233  14.822  68.610  1.00  0.00    -0.159 C  
HETATM   14  H   UNL     1      -8.022  12.764  68.901  1.00  0.00     0.000 HD 
HETATM   15  N   UNL     1      -9.161  15.853  68.852  1.00  0.00    -0.217 N  
HETATM   16  O   UNL     1      -7.068  15.033  68.294  1.00  0.00    -0.102 OA 
HETATM   17  F   UNL     1     -12.239  14.005  68.324  1.00  0.00    -0.387 F  
HETATM   18  C   UNL     1     -10.510  15.599  68.631  1.00  0.00    -0.231 C  
HETATM   19  C   UNL     1     -10.954  14.348  68.517  1.00  0.00    -0.251 C  
BRANCH  15  20
HETATM   20  C   UNL     1      -8.683  17.234  69.016  1.00  0.00    -0.079 C  
HETATM   21  C   UNL     1      -8.687  18.291  66.920  1.00  0.00    -0.267 C  
HETATM   22  O   UNL     1      -9.398  18.139  68.150  1.00  0.00    -0.272 OA 
HETATM   23  C   UNL     1      -9.150  17.245  65.912  1.00  0.00     0.001 C  
HETATM   24  C   UNL     1      -7.214  18.189  67.296  1.00  0.00    -0.198 C  
HETATM   25  O   UNL     1      -6.615  19.484  67.472  1.00  0.00    -0.209 OA 
HETATM   26  C   UNL     1      -7.199  17.448  68.639  1.00  0.00    -0.237 C  
HETATM   27  H   UNL     1      -5.696  19.420  67.706  1.00  0.00     0.000 HD 
HETATM   28  O   UNL     1      -6.533  18.199  69.666  1.00  0.00    -0.226 OA 
HETATM   29  H   UNL     1      -5.621  18.331  69.434  1.00  0.00     0.000 HD 
ENDBRANCH  15  20
ENDBRANCH   9  11
ENDBRANCH   6   7
ENDBRANCH   5   6
ENDBRANCH   4   5
ENDBRANCH   3   4
ENDBRANCH   2   3
TORSDOF 7
ENDMDL
MODEL      244
REMARK 921   NORMALIZED FREE ENERGY PREDICTED BY IDOCK:   -2.76 KCAL/MOL
REMARK 922        TOTAL FREE ENERGY PREDICTED BY IDOCK:   -5.00 KCAL/MOL
REMARK 923 INTER-LIGAND FREE ENERGY PREDICTED BY IDOCK:   -4.36 KCAL/MOL
REMARK 924 INTRA-LIGAND FREE ENERGY PREDICTED BY IDOCK:   -0.63 KCAL/MOL
REMARK 927      BINDING AFFINITY PREDICTED BY RF-SCORE:    0.00 PKD
ROOT
HETATM    1  C   UNL     1     -12.508  12.616  63.343  1.00  0.00    -0.474 C  
HETATM    2  C   UNL     1     -12.490  13.046  64.806  1.00  0.00    -0.485 C  
ENDROOT
BRANCH   2   3
HETATM    3  C   UNL     1     -11.728  12.036  65.656  1.00  0.00    -0.312 C  
BRANCH   3   4
HETATM    4  C   UNL     1     -10.235  12.357  65.794  1.00  0.00    -0.283 C  
BRANCH   4   5
HETATM    5  C   UNL     1      -9.570  11.246  66.605  1.00  0.00    -0.195 C  
BRANCH   5   6
HETATM    6  O   UNL     1      -8.229  11.548  67.011  1.00  0.00    -0.153 OA 
BRANCH   6   7
HETATM    7  C   UNL     1      -7.562  10.475  67.506  1.00  0.00    -0.093 C  
HETATM    8  O   UNL     1      -6.347  10.373  67.509  1.00  0.00    -0.057 OA 
HETATM    9  N   UNL     1      -8.472   9.553  67.955  1.00  0.00    -0.119 N  
HETATM   10  H   UNL     1      -9.429   9.637  67.612  1.00  0.00     0.000 HD 
BRANCH   9  11
HETATM   11  C   UNL     1      -8.205   8.527  68.829  1.00  0.00    -0.122 C  
HETATM   12  N   UNL     1      -7.926   7.339  68.425  1.00  0.00    -0.122 N  
HETATM   13  C   UNL     1      -7.733   6.348  69.362  1.00  0.00    -0.101 C  
HETATM   14  H   UNL     1      -7.849   7.134  67.430  1.00  0.00     0.000 HD 
HETATM   15  N   UNL     1      -8.250   6.582  70.652  1.00  0.00    -0.123 N  
HETATM   16  O   UNL     1      -7.157   5.312  69.052  1.00  0.00    -0.054 OA 
HETATM   17  F   UNL     1      -8.380  10.207  70.580  1.00  0.00    -0.063 F  
HETATM   18  C   UNL     1      -8.348   7.894  71.100  1.00  0.00    -0.112 C  
HETATM   19  C   UNL     1      -8.275   8.911  70.243  1.00  0.00    -0.129 C  
BRANCH  15  20
HETATM   20  C   UNL     1      -8.370   5.463  71.597  1.00  0.00    -0.119 C  
HETATM   21  C   UNL     1     -10.618   5.245  72.236  1.00  0.00    -0.222 C  
HETATM   22  O   UNL     1      -9.592   4.729  71.385  1.00  0.00    -0.147 OA 
HETATM   23  C   UNL     1     -11.375   6.364  71.528  1.00  0.00    -0.346 C  
HETATM   24  C   UNL     1      -9.898   5.683  73.506  1.00  0.00    -0.167 C  
HETATM   25  O   UNL     1      -9.955   4.674  74.528  1.00  0.00    -0.163 OA 
HETATM   26  C   UNL     1      -8.437   5.883  73.084  1.00  0.00    -0.116 C  
HETATM   27  H   UNL     1      -9.507   4.948  75.320  1.00  0.00     0.000 HD 
HETATM   28  O   UNL     1      -7.534   5.084  73.864  1.00  0.00    -0.085 OA 
HETATM   29  H   UNL     1      -7.575   5.342  74.778  1.00  0.00     0.000 HD 
ENDBRANCH  15  20
ENDBRANCH   9  11
ENDBRANCH   6   7
ENDBRANCH   5   6
ENDBRANCH   4   5
ENDBRANCH   3   4
ENDBRANCH   2   3
TORSDOF 7
ENDMDL
MODEL      245
REMARK 921   NORMALIZED FREE ENERGY PREDICTED BY IDOCK:   -2.75 KCAL/MOL
REMARK 922        TOTAL FREE ENERGY PREDICTED BY IDOCK:   -4.98 KCAL/MOL
REMARK 923 INTER-LIGAND FREE ENERGY PREDICTED BY IDOCK:   -4.46 KCAL/MOL
REMARK 924 INTRA-LIGAND FREE ENERGY PREDICTED BY IDOCK:   -0.52 KCAL/MOL
REMARK 927      BINDING AFFINITY PREDICTED BY RF-SCORE:    0.00 PKD
ROOT
HETATM    1  C   UNL     1     -10.417  17.323  68.432  1.00  0.00    -0.381 C  
HETATM    2  C   UNL     1     -10.837  15.903  68.070  1.00  0.00    -0.317 C  
ENDROOT
BRANCH   2   3
HETATM    3  C   UNL     1     -10.774  15.690  66.561  1.00  0.00    -0.293 C  
BRANCH   3   4
HETATM    4  C   UNL     1     -11.570  14.469  66.084  1.00  0.00    -0.366 C  
BRANCH   4   5
HETATM    5  C   UNL     1     -10.758  13.210  66.381  1.00  0.00    -0.284 C  
BRANCH   5   6
HETATM    6  O   UNL     1     -10.453  13.032  67.770  1.00  0.00    -0.221 OA 
BRANCH   6   7
HETATM    7  C   UNL     1     -10.650  11.762  68.205  1.00  0.00    -0.203 C  
HETATM    8  O   UNL     1     -11.727  11.191  68.172  1.00  0.00    -0.480 OA 
HETATM    9  N   UNL     1      -9.467  11.270  68.695  1.00  0.00    -0.228 N  
HETATM   10  H   UNL     1      -8.746  11.949  68.939  1.00  0.00     0.000 HD 
BRANCH   9  11
HETATM   11  C   UNL     1      -9.171   9.942  68.886  1.00  0.00    -0.160 C  
HETATM   12  N   UNL     1     -10.064   9.085  69.232  1.00  0.00    -0.189 N  
HETATM   13  C   UNL     1      -9.679   7.784  69.467  1.00  0.00    -0.165 C  
HETATM   14  H   UNL     1     -11.040   9.363  69.332  1.00  0.00     0.000 HD 
HETATM   15  N   UNL     1      -8.311   7.560  69.719  1.00  0.00    -0.132 N  
HETATM   16  O   UNL     1     -10.513   6.886  69.474  1.00  0.00    -0.205 OA 
HETATM   17  F   UNL     1      -6.933  10.511  68.120  1.00  0.00    -0.069 F  
HETATM   18  C   UNL     1      -7.381   8.424  69.151  1.00  0.00    -0.079 C  
HETATM   19  C   UNL     1      -7.761   9.605  68.666  1.00  0.00    -0.080 C  
BRANCH  15  20
HETATM   20  C   UNL     1      -7.880   6.275  70.288  1.00  0.00    -0.103 C  
HETATM   21  C   UNL     1      -7.471   6.559  72.582  1.00  0.00    -0.094 C  
HETATM   22  O   UNL     1      -8.412   6.088  71.614  1.00  0.00    -0.126 OA 
HETATM   23  C   UNL     1      -7.720   8.033  72.882  1.00  0.00    -0.177 C  
HETATM   24  C   UNL     1      -6.102   6.266  71.981  1.00  0.00    -0.041 C  
HETATM   25  O   UNL     1      -5.555   5.031  72.472  1.00  0.00    -0.011 OA 
HETATM   26  C   UNL     1      -6.351   6.135  70.473  1.00  0.00    -0.036 C  
HETATM   27  H   UNL     1      -4.701   4.848  72.097  1.00  0.00     0.000 HD 
HETATM   28  O   UNL     1      -5.905   4.871  69.957  1.00  0.00    -0.015 OA 
HETATM   29  H   UNL     1      -4.966   4.785  70.071  1.00  0.00     0.000 HD 
ENDBRANCH  15  20
ENDBRANCH   9  11
ENDBRANCH   6   7
ENDBRANCH   5   6
ENDBRANCH   4   5
ENDBRANCH   3   4
ENDBRANCH   2   3
TORSDOF 7
ENDMDL
MODEL      246
REMARK 921   NORMALIZED FREE ENERGY PREDICTED BY IDOCK:   -2.73 KCAL/MOL
REMARK 922        TOTAL FREE ENERGY PREDICTED BY IDOCK:   -4.94 KCAL/MOL
REMARK 923 INTER-LIGAND FREE ENERGY PREDICTED BY IDOCK:   -4.25 KCAL/MOL
REMARK 924 INTRA-LIGAND FREE ENERGY PREDICTED BY IDOCK:   -0.70 KCAL/MOL
REMARK 927      BINDING AFFINITY PREDICTED BY RF-SCORE:    0.00 PKD
ROOT
HETATM    1  C   UNL     1      -5.853  16.386  68.985  1.00  0.00    -0.136 C  
HETATM    2  C   UNL     1      -7.179  17.119  69.150  1.00  0.00    -0.197 C  
ENDROOT
BRANCH   2   3
HETATM    3  C   UNL     1      -8.322  16.312  68.545  1.00  0.00    -0.204 C  
BRANCH   3   4
HETATM    4  C   UNL     1      -7.851  15.203  67.597  1.00  0.00    -0.178 C  
BRANCH   4   5
HETATM    5  C   UNL     1      -9.074  14.438  67.096  1.00  0.00    -0.227 C  
BRANCH   5   6
HETATM    6  O   UNL     1     -10.103  14.280  68.081  1.00  0.00    -0.221 OA 
BRANCH   6   7
HETATM    7  C   UNL     1     -10.605  13.020  68.138  1.00  0.00    -0.245 C  
HETATM    8  O   UNL     1     -11.788  12.754  68.013  1.00  0.00    -0.345 OA 
HETATM    9  N   UNL     1      -9.580  12.142  68.381  1.00  0.00    -0.268 N  
HETATM   10  H   UNL     1      -8.716  12.528  68.763  1.00  0.00     0.000 HD 
BRANCH   9  11
HETATM   11  C   UNL     1      -9.616  10.788  68.153  1.00  0.00    -0.160 C  
HETATM   12  N   UNL     1      -9.633   9.933  69.113  1.00  0.00    -0.187 N  
HETATM   13  C   UNL     1      -9.605   8.590  68.807  1.00  0.00    -0.149 C  
HETATM   14  H   UNL     1      -9.666  10.242  70.084  1.00  0.00     0.000 HD 
HETATM   15  N   UNL     1      -9.148   8.240  67.520  1.00  0.00    -0.136 N  
HETATM   16  O   UNL     1      -9.944   7.761  69.642  1.00  0.00    -0.184 OA 
HETATM   17  F   UNL     1      -9.806  11.365  65.798  1.00  0.00    -0.223 F  
HETATM   18  C   UNL     1      -9.336   9.144  66.481  1.00  0.00    -0.190 C  
HETATM   19  C   UNL     1      -9.628  10.419  66.734  1.00  0.00    -0.171 C  
BRANCH  15  20
HETATM   20  C   UNL     1      -8.788   6.844  67.236  1.00  0.00    -0.118 C  
HETATM   21  C   UNL     1      -6.515   6.751  66.657  1.00  0.00    -0.043 C  
HETATM   22  O   UNL     1      -7.460   6.542  67.708  1.00  0.00    -0.093 OA 
HETATM   23  C   UNL     1      -6.006   8.187  66.685  1.00  0.00    -0.045 C  
HETATM   24  C   UNL     1      -7.253   6.373  65.378  1.00  0.00    -0.070 C  
HETATM   25  O   UNL     1      -6.971   5.022  64.976  1.00  0.00    -0.058 OA 
HETATM   26  C   UNL     1      -8.741   6.487  65.732  1.00  0.00    -0.120 C  
HETATM   27  H   UNL     1      -7.431   4.787  64.178  1.00  0.00     0.000 HD 
HETATM   28  O   UNL     1      -9.451   5.262  65.493  1.00  0.00    -0.277 OA 
HETATM   29  H   UNL     1      -9.422   5.042  64.569  1.00  0.00     0.000 HD 
ENDBRANCH  15  20
ENDBRANCH   9  11
ENDBRANCH   6   7
ENDBRANCH   5   6
ENDBRANCH   4   5
ENDBRANCH   3   4
ENDBRANCH   2   3
TORSDOF 7
ENDMDL
MODEL      247
REMARK 921   NORMALIZED FREE ENERGY PREDICTED BY IDOCK:   -2.70 KCAL/MOL
REMARK 922        TOTAL FREE ENERGY PREDICTED BY IDOCK:   -4.91 KCAL/MOL
REMARK 923 INTER-LIGAND FREE ENERGY PREDICTED BY IDOCK:   -5.85 KCAL/MOL
REMARK 924 INTRA-LIGAND FREE ENERGY PREDICTED BY IDOCK:    0.94 KCAL/MOL
REMARK 927      BINDING AFFINITY PREDICTED BY RF-SCORE:    0.00 PKD
ROOT
HETATM    1  C   UNL     1      -8.022   1.591  66.988  1.00  0.00    -0.066 C  
HETATM    2  C   UNL     1      -6.763   2.447  66.910  1.00  0.00    -0.040 C  
ENDROOT
BRANCH   2   3
HETATM    3  C   UNL     1      -6.832   3.403  65.724  1.00  0.00    -0.052 C  
BRANCH   3   4
HETATM    4  C   UNL     1      -6.920   4.878  66.133  1.00  0.00    -0.070 C  
BRANCH   4   5
HETATM    5  C   UNL     1      -8.103   5.516  65.407  1.00  0.00    -0.123 C  
BRANCH   5   6
HETATM    6  O   UNL     1      -7.726   6.333  64.292  1.00  0.00    -0.094 OA 
BRANCH   6   7
HETATM    7  C   UNL     1      -7.742   7.661  64.568  1.00  0.00    -0.126 C  
HETATM    8  O   UNL     1      -6.825   8.421  64.304  1.00  0.00    -0.066 OA 
HETATM    9  N   UNL     1      -8.919   7.971  65.199  1.00  0.00    -0.385 N  
HETATM   10  H   UNL     1      -9.438   7.202  65.621  1.00  0.00     0.000 HD 
BRANCH   9  11
HETATM   11  C   UNL     1      -9.459   9.229  65.311  1.00  0.00    -0.164 C  
HETATM   12  N   UNL     1      -9.307  10.123  64.399  1.00  0.00    -0.271 N  
HETATM   13  C   UNL     1      -9.823  11.382  64.611  1.00  0.00    -0.259 C  
HETATM   14  H   UNL     1      -8.813   9.904  63.535  1.00  0.00     0.000 HD 
HETATM   15  N   UNL     1     -10.110  11.736  65.945  1.00  0.00    -0.226 N  
HETATM   16  O   UNL     1      -9.991  12.146  63.668  1.00  0.00    -0.382 OA 
HETATM   17  F   UNL     1     -10.485   8.417  67.362  1.00  0.00    -0.281 F  
HETATM   18  C   UNL     1     -10.456  10.730  66.839  1.00  0.00    -0.252 C  
HETATM   19  C   UNL     1     -10.207   9.453  66.552  1.00  0.00    -0.238 C  
BRANCH  15  20
HETATM   20  C   UNL     1     -10.352  13.146  66.283  1.00  0.00    -0.287 C  
HETATM   21  C   UNL     1     -12.355  13.836  65.272  1.00  0.00    -0.464 C  
HETATM   22  O   UNL     1     -11.756  13.398  66.493  1.00  0.00    -0.337 OA 
HETATM   23  C   UNL     1     -12.871  12.640  64.481  1.00  0.00    -0.356 C  
HETATM   24  C   UNL     1     -11.270  14.637  64.561  1.00  0.00    -0.282 C  
HETATM   25  O   UNL     1     -11.403  16.048  64.800  1.00  0.00    -0.376 OA 
HETATM   26  C   UNL     1      -9.952  14.150  65.177  1.00  0.00    -0.229 C  
HETATM   27  H   UNL     1     -10.726  16.547  64.356  1.00  0.00     0.000 HD 
HETATM   28  O   UNL     1      -9.186  15.226  65.740  1.00  0.00    -0.421 OA 
HETATM   29  H   UNL     1      -8.941  15.843  65.061  1.00  0.00     0.000 HD 
ENDBRANCH  15  20
ENDBRANCH   9  11
ENDBRANCH   6   7
ENDBRANCH   5   6
ENDBRANCH   4   5
ENDBRANCH   3   4
ENDBRANCH   2   3
TORSDOF 7
ENDMDL
MODEL      248
REMARK 921   NORMALIZED FREE ENERGY PREDICTED BY IDOCK:   -2.65 KCAL/MOL
REMARK 922        TOTAL FREE ENERGY PREDICTED BY IDOCK:   -4.83 KCAL/MOL
REMARK 923 INTER-LIGAND FREE ENERGY PREDICTED BY IDOCK:   -4.02 KCAL/MOL
REMARK 924 INTRA-LIGAND FREE ENERGY PREDICTED BY IDOCK:   -0.80 KCAL/MOL
REMARK 927      BINDING AFFINITY PREDICTED BY RF-SCORE:    0.00 PKD
ROOT
HETATM    1  C   UNL     1      -8.902  17.886  68.554  1.00  0.00    -0.293 C  
HETATM    2  C   UNL     1     -10.317  17.456  68.183  1.00  0.00    -0.366 C  
ENDROOT
BRANCH   2   3
HETATM    3  C   UNL     1     -10.428  15.936  68.148  1.00  0.00    -0.270 C  
BRANCH   3   4
HETATM    4  C   UNL     1     -11.129  15.404  66.892  1.00  0.00    -0.256 C  
BRANCH   4   5
HETATM    5  C   UNL     1     -10.156  14.502  66.135  1.00  0.00    -0.305 C  
BRANCH   5   6
HETATM    6  O   UNL     1     -10.602  13.146  66.008  1.00  0.00    -0.274 OA 
BRANCH   6   7
HETATM    7  C   UNL     1      -9.841  12.263  66.703  1.00  0.00    -0.220 C  
HETATM    8  O   UNL     1      -9.428  12.463  67.833  1.00  0.00    -0.185 OA 
HETATM    9  N   UNL     1      -9.609  11.161  65.919  1.00  0.00    -0.209 N  
HETATM   10  H   UNL     1      -9.750  11.266  64.915  1.00  0.00     0.000 HD 
BRANCH   9  11
HETATM   11  C   UNL     1      -9.203   9.929  66.372  1.00  0.00    -0.158 C  
HETATM   12  N   UNL     1     -10.037   9.046  66.794  1.00  0.00    -0.256 N  
HETATM   13  C   UNL     1      -9.550   7.858  67.292  1.00  0.00    -0.159 C  
HETATM   14  H   UNL     1     -11.041   9.222  66.761  1.00  0.00     0.000 HD 
HETATM   15  N   UNL     1      -8.199   7.842  67.692  1.00  0.00    -0.123 N  
HETATM   16  O   UNL     1     -10.288   6.885  67.393  1.00  0.00    -0.179 OA 
HETATM   17  F   UNL     1      -6.967  10.614  65.702  1.00  0.00    -0.133 F  
HETATM   18  C   UNL     1      -7.307   8.697  67.055  1.00  0.00    -0.080 C  
HETATM   19  C   UNL     1      -7.752   9.725  66.333  1.00  0.00    -0.102 C  
BRANCH  15  20
HETATM   20  C   UNL     1      -7.703   6.732  68.518  1.00  0.00    -0.113 C  
HETATM   21  C   UNL     1      -7.081   7.571  70.621  1.00  0.00    -0.059 C  
HETATM   22  O   UNL     1      -8.104   6.887  69.894  1.00  0.00    -0.121 OA 
HETATM   23  C   UNL     1      -7.315   9.077  70.568  1.00  0.00    -0.086 C  
HETATM   24  C   UNL     1      -5.771   7.119  69.984  1.00  0.00    -0.023 C  
HETATM   25  O   UNL     1      -5.167   6.037  70.712  1.00  0.00    -0.012 OA 
HETATM   26  C   UNL     1      -6.162   6.622  68.587  1.00  0.00    -0.027 C  
HETATM   27  H   UNL     1      -4.351   5.756  70.316  1.00  0.00     0.000 HD 
HETATM   28  O   UNL     1      -5.754   5.263  68.361  1.00  0.00    -0.014 OA 
HETATM   29  H   UNL     1      -4.807   5.195  68.403  1.00  0.00     0.000 HD 
ENDBRANCH  15  20
ENDBRANCH   9  11
ENDBRANCH   6   7
ENDBRANCH   5   6
ENDBRANCH   4   5
ENDBRANCH   3   4
ENDBRANCH   2   3
TORSDOF 7
ENDMDL
MODEL      249
REMARK 921   NORMALIZED FREE ENERGY PREDICTED BY IDOCK:   -2.59 KCAL/MOL
REMARK 922        TOTAL FREE ENERGY PREDICTED BY IDOCK:   -4.75 KCAL/MOL
REMARK 923 INTER-LIGAND FREE ENERGY PREDICTED BY IDOCK:   -4.07 KCAL/MOL
REMARK 924 INTRA-LIGAND FREE ENERGY PREDICTED BY IDOCK:   -0.68 KCAL/MOL
REMARK 927      BINDING AFFINITY PREDICTED BY RF-SCORE:    0.00 PKD
ROOT
HETATM    1  C   UNL     1      -6.292   2.187  66.060  1.00  0.00    -0.024 C  
HETATM    2  C   UNL     1      -7.603   2.031  65.296  1.00  0.00    -0.071 C  
ENDROOT
BRANCH   2   3
HETATM    3  C   UNL     1      -8.498   3.247  65.506  1.00  0.00    -0.106 C  
BRANCH   3   4
HETATM    4  C   UNL     1      -8.440   4.254  64.351  1.00  0.00    -0.112 C  
BRANCH   4   5
HETATM    5  C   UNL     1      -7.687   5.496  64.825  1.00  0.00    -0.092 C  
BRANCH   5   6
HETATM    6  O   UNL     1      -8.305   6.730  64.439  1.00  0.00    -0.034 OA 
BRANCH   6   7
HETATM    7  C   UNL     1      -8.600   7.535  65.491  1.00  0.00    -0.083 C  
HETATM    8  O   UNL     1      -9.110   8.638  65.381  1.00  0.00    -0.179 OA 
HETATM    9  N   UNL     1      -8.209   6.916  66.650  1.00  0.00    -0.113 N  
HETATM   10  H   UNL     1      -7.533   6.157  66.568  1.00  0.00     0.000 HD 
BRANCH   9  11
HETATM   11  C   UNL     1      -8.650   7.231  67.913  1.00  0.00    -0.120 C  
HETATM   12  N   UNL     1      -8.095   8.148  68.623  1.00  0.00    -0.122 N  
HETATM   13  C   UNL     1      -8.552   8.363  69.904  1.00  0.00    -0.131 C  
HETATM   14  H   UNL     1      -7.330   8.706  68.245  1.00  0.00     0.000 HD 
HETATM   15  N   UNL     1      -9.292   7.322  70.499  1.00  0.00    -0.158 N  
HETATM   16  O   UNL     1      -8.291   9.410  70.483  1.00  0.00    -0.178 OA 
HETATM   17  F   UNL     1     -10.434   5.630  67.499  1.00  0.00    -0.189 F  
HETATM   18  C   UNL     1     -10.028   6.476  69.677  1.00  0.00    -0.164 C  
HETATM   19  C   UNL     1      -9.790   6.429  68.366  1.00  0.00    -0.137 C  
BRANCH  15  20
HETATM   20  C   UNL     1      -9.532   7.341  71.949  1.00  0.00    -0.148 C  
HETATM   21  C   UNL     1      -9.064   5.214  72.824  1.00  0.00    -0.133 C  
HETATM   22  O   UNL     1      -8.560   6.539  72.649  1.00  0.00    -0.125 OA 
HETATM   23  C   UNL     1      -8.669   4.340  71.639  1.00  0.00    -0.136 C  
HETATM   24  C   UNL     1     -10.568   5.381  73.004  1.00  0.00    -0.235 C  
HETATM   25  O   UNL     1     -10.942   5.400  74.392  1.00  0.00    -0.402 OA 
HETATM   26  C   UNL     1     -10.892   6.746  72.383  1.00  0.00    -0.238 C  
HETATM   27  H   UNL     1     -11.880   5.504  74.504  1.00  0.00     0.000 HD 
HETATM   28  O   UNL     1     -11.541   7.626  73.314  1.00  0.00    -0.643 OA 
HETATM   29  H   UNL     1     -12.376   7.260  73.582  1.00  0.00     0.000 HD 
ENDBRANCH  15  20
ENDBRANCH   9  11
ENDBRANCH   6   7
ENDBRANCH   5   6
ENDBRANCH   4   5
ENDBRANCH   3   4
ENDBRANCH   2   3
TORSDOF 7
ENDMDL
MODEL      250
REMARK 921   NORMALIZED FREE ENERGY PREDICTED BY IDOCK:   -2.59 KCAL/MOL
REMARK 922        TOTAL FREE ENERGY PREDICTED BY IDOCK:   -4.74 KCAL/MOL
REMARK 923 INTER-LIGAND FREE ENERGY PREDICTED BY IDOCK:   -4.97 KCAL/MOL
REMARK 924 INTRA-LIGAND FREE ENERGY PREDICTED BY IDOCK:    0.22 KCAL/MOL
REMARK 927      BINDING AFFINITY PREDICTED BY RF-SCORE:    0.00 PKD
ROOT
HETATM    1  C   UNL     1      -9.059  19.539  68.719  1.00  0.00    -0.381 C  
HETATM    2  C   UNL     1      -8.711  19.415  67.240  1.00  0.00    -0.336 C  
ENDROOT
BRANCH   2   3
HETATM    3  C   UNL     1      -9.086  18.035  66.711  1.00  0.00    -0.280 C  
BRANCH   3   4
HETATM    4  C   UNL     1     -10.512  17.961  66.154  1.00  0.00    -0.321 C  
BRANCH   4   5
HETATM    5  C   UNL     1     -10.694  16.615  65.456  1.00  0.00    -0.223 C  
BRANCH   5   6
HETATM    6  O   UNL     1     -11.066  15.550  66.339  1.00  0.00    -0.283 OA 
BRANCH   6   7
HETATM    7  C   UNL     1     -10.211  14.497  66.302  1.00  0.00    -0.297 C  
HETATM    8  O   UNL     1      -9.060  14.570  65.903  1.00  0.00    -0.081 OA 
HETATM    9  N   UNL     1     -10.862  13.377  66.751  1.00  0.00    -0.280 N  
HETATM   10  H   UNL     1     -11.882  13.401  66.755  1.00  0.00     0.000 HD 
BRANCH   9  11
HETATM   11  C   UNL     1     -10.259  12.226  67.196  1.00  0.00    -0.211 C  
HETATM   12  N   UNL     1      -9.060  11.906  66.858  1.00  0.00    -0.190 N  
HETATM   13  C   UNL     1      -8.546  10.705  67.293  1.00  0.00    -0.126 C  
HETATM   14  H   UNL     1      -8.500  12.531  66.278  1.00  0.00     0.000 HD 
HETATM   15  N   UNL     1      -9.473   9.732  67.717  1.00  0.00    -0.133 N  
HETATM   16  O   UNL     1      -7.336  10.512  67.278  1.00  0.00    -0.088 OA 
HETATM   17  F   UNL     1     -12.263  11.901  68.536  1.00  0.00    -0.367 F  
HETATM   18  C   UNL     1     -10.683  10.156  68.253  1.00  0.00    -0.238 C  
HETATM   19  C   UNL     1     -11.102  11.409  68.074  1.00  0.00    -0.257 C  
BRANCH  15  20
HETATM   20  C   UNL     1      -9.034   8.339  67.884  1.00  0.00    -0.134 C  
HETATM   21  C   UNL     1      -8.305   8.034  70.094  1.00  0.00    -0.126 C  
HETATM   22  O   UNL     1      -9.390   7.833  69.186  1.00  0.00    -0.151 OA 
HETATM   23  C   UNL     1      -8.436   9.388  70.780  1.00  0.00    -0.188 C  
HETATM   24  C   UNL     1      -7.046   7.880  69.249  1.00  0.00    -0.071 C  
HETATM   25  O   UNL     1      -6.500   6.553  69.338  1.00  0.00    -0.040 OA 
HETATM   26  C   UNL     1      -7.503   8.134  67.807  1.00  0.00    -0.094 C  
HETATM   27  H   UNL     1      -5.715   6.457  68.811  1.00  0.00     0.000 HD 
HETATM   28  O   UNL     1      -7.196   7.033  66.938  1.00  0.00    -0.073 OA 
HETATM   29  H   UNL     1      -6.255   6.907  66.891  1.00  0.00     0.000 HD 
ENDBRANCH  15  20
ENDBRANCH   9  11
ENDBRANCH   6   7
ENDBRANCH   5   6
ENDBRANCH   4   5
ENDBRANCH   3   4
ENDBRANCH   2   3
TORSDOF 7
ENDMDL
MODEL      251
REMARK 921   NORMALIZED FREE ENERGY PREDICTED BY IDOCK:   -2.54 KCAL/MOL
REMARK 922        TOTAL FREE ENERGY PREDICTED BY IDOCK:   -4.68 KCAL/MOL
REMARK 923 INTER-LIGAND FREE ENERGY PREDICTED BY IDOCK:   -5.04 KCAL/MOL
REMARK 924 INTRA-LIGAND FREE ENERGY PREDICTED BY IDOCK:    0.36 KCAL/MOL
REMARK 927      BINDING AFFINITY PREDICTED BY RF-SCORE:    0.00 PKD
ROOT
HETATM    1  C   UNL     1     -11.376  12.488  69.098  1.00  0.00    -0.331 C  
HETATM    2  C   UNL     1     -12.002  13.299  67.969  1.00  0.00    -0.351 C  
ENDROOT
BRANCH   2   3
HETATM    3  C   UNL     1     -10.947  14.137  67.256  1.00  0.00    -0.304 C  
BRANCH   3   4
HETATM    4  C   UNL     1     -11.240  14.348  65.766  1.00  0.00    -0.326 C  
BRANCH   4   5
HETATM    5  C   UNL     1     -11.392  12.982  65.100  1.00  0.00    -0.291 C  
BRANCH   5   6
HETATM    6  O   UNL     1     -10.156  12.419  64.643  1.00  0.00    -0.283 OA 
BRANCH   6   7
HETATM    7  C   UNL     1     -10.092  11.072  64.788  1.00  0.00    -0.308 C  
HETATM    8  O   UNL     1      -9.886  10.298  63.869  1.00  0.00    -0.305 OA 
HETATM    9  N   UNL     1     -10.321  10.754  66.103  1.00  0.00    -0.248 N  
HETATM   10  H   UNL     1     -10.775  11.461  66.681  1.00  0.00     0.000 HD 
BRANCH   9  11
HETATM   11  C   UNL     1      -9.991   9.565  66.707  1.00  0.00    -0.233 C  
HETATM   12  N   UNL     1     -10.764   8.538  66.665  1.00  0.00    -0.195 N  
HETATM   13  C   UNL     1     -10.394   7.402  67.349  1.00  0.00    -0.270 C  
HETATM   14  H   UNL     1     -11.635   8.565  66.136  1.00  0.00     0.000 HD 
HETATM   15  N   UNL     1      -9.433   7.555  68.368  1.00  0.00    -0.148 N  
HETATM   16  O   UNL     1     -10.912   6.325  67.078  1.00  0.00    -0.355 OA 
HETATM   17  F   UNL     1      -7.864  10.623  67.231  1.00  0.00    -0.105 F  
HETATM   18  C   UNL     1      -8.500   8.580  68.252  1.00  0.00    -0.135 C  
HETATM   19  C   UNL     1      -8.697   9.582  67.397  1.00  0.00    -0.125 C  
BRANCH  15  20
HETATM   20  C   UNL     1      -9.229   6.472  69.340  1.00  0.00    -0.144 C  
HETATM   21  C   UNL     1      -6.946   5.931  69.406  1.00  0.00    -0.064 C  
HETATM   22  O   UNL     1      -7.995   6.646  70.063  1.00  0.00    -0.112 OA 
HETATM   23  C   UNL     1      -6.264   6.825  68.377  1.00  0.00    -0.030 C  
HETATM   24  C   UNL     1      -7.618   4.696  68.815  1.00  0.00    -0.068 C  
HETATM   25  O   UNL     1      -7.477   3.549  69.669  1.00  0.00    -0.045 OA 
HETATM   26  C   UNL     1      -9.104   5.063  68.716  1.00  0.00    -0.109 C  
HETATM   27  H   UNL     1      -7.895   2.780  69.300  1.00  0.00     0.000 HD 
HETATM   28  O   UNL     1      -9.940   4.134  69.421  1.00  0.00    -0.158 OA 
HETATM   29  H   UNL     1      -9.863   3.268  69.038  1.00  0.00     0.000 HD 
ENDBRANCH  15  20
ENDBRANCH   9  11
ENDBRANCH   6   7
ENDBRANCH   5   6
ENDBRANCH   4   5
ENDBRANCH   3   4
ENDBRANCH   2   3
TORSDOF 7
ENDMDL
MODEL      252
REMARK 921   NORMALIZED FREE ENERGY PREDICTED BY IDOCK:   -2.54 KCAL/MOL
REMARK 922        TOTAL FREE ENERGY PREDICTED BY IDOCK:   -4.68 KCAL/MOL
REMARK 923 INTER-LIGAND FREE ENERGY PREDICTED BY IDOCK:   -3.65 KCAL/MOL
REMARK 924 INTRA-LIGAND FREE ENERGY PREDICTED BY IDOCK:   -1.03 KCAL/MOL
REMARK 927      BINDING AFFINITY PREDICTED BY RF-SCORE:    0.00 PKD
ROOT
HETATM    1  C   UNL     1      -7.665  15.881  69.229  1.00  0.00    -0.222 C  
HETATM    2  C   UNL     1      -8.287  14.966  68.181  1.00  0.00    -0.144 C  
ENDROOT
BRANCH   2   3
HETATM    3  C   UNL     1      -7.735  13.550  68.303  1.00  0.00    -0.137 C  
BRANCH   3   4
HETATM    4  C   UNL     1      -6.275  13.502  68.770  1.00  0.00    -0.090 C  
BRANCH   4   5
HETATM    5  C   UNL     1      -6.199  12.670  70.049  1.00  0.00    -0.060 C  
BRANCH   5   6
HETATM    6  O   UNL     1      -5.563  11.398  69.875  1.00  0.00    -0.064 OA 
BRANCH   6   7
HETATM    7  C   UNL     1      -6.423  10.351  69.952  1.00  0.00    -0.109 C  
HETATM    8  O   UNL     1      -7.102  10.100  70.934  1.00  0.00    -0.325 OA 
HETATM    9  N   UNL     1      -6.368   9.642  68.780  1.00  0.00    -0.046 N  
HETATM   10  H   UNL     1      -5.550   9.784  68.188  1.00  0.00     0.000 HD 
BRANCH   9  11
HETATM   11  C   UNL     1      -7.320   8.757  68.336  1.00  0.00    -0.086 C  
HETATM   12  N   UNL     1      -8.573   8.925  68.569  1.00  0.00    -0.133 N  
HETATM   13  C   UNL     1      -9.462   7.962  68.146  1.00  0.00    -0.147 C  
HETATM   14  H   UNL     1      -8.903   9.757  69.057  1.00  0.00     0.000 HD 
HETATM   15  N   UNL     1      -8.933   6.686  67.867  1.00  0.00    -0.114 N  
HETATM   16  O   UNL     1     -10.655   8.224  68.051  1.00  0.00    -0.201 OA 
HETATM   17  F   UNL     1      -5.485   7.612  67.222  1.00  0.00    -0.026 F  
HETATM   18  C   UNL     1      -7.616   6.594  67.434  1.00  0.00    -0.104 C  
HETATM   19  C   UNL     1      -6.777   7.617  67.589  1.00  0.00    -0.067 C  
BRANCH  15  20
HETATM   20  C   UNL     1      -9.843   5.540  67.728  1.00  0.00    -0.138 C  
HETATM   21  C   UNL     1      -9.656   4.187  69.638  1.00  0.00    -0.207 C  
HETATM   22  O   UNL     1     -10.441   5.193  68.993  1.00  0.00    -0.180 OA 
HETATM   23  C   UNL     1      -8.594   4.833  70.519  1.00  0.00    -0.114 C  
HETATM   24  C   UNL     1      -9.096   3.334  68.506  1.00  0.00    -0.155 C  
HETATM   25  O   UNL     1      -9.892   2.160  68.275  1.00  0.00    -0.218 OA 
HETATM   26  C   UNL     1      -9.162   4.232  67.264  1.00  0.00    -0.150 C  
HETATM   27  H   UNL     1      -9.543   1.628  67.569  1.00  0.00     0.000 HD 
HETATM   28  O   UNL     1      -9.918   3.632  66.200  1.00  0.00    -0.410 OA 
HETATM   29  H   UNL     1      -9.500   2.828  65.915  1.00  0.00     0.000 HD 
ENDBRANCH  15  20
ENDBRANCH   9  11
ENDBRANCH   6   7
ENDBRANCH   5   6
ENDBRANCH   4   5
ENDBRANCH   3   4
ENDBRANCH   2   3
TORSDOF 7
ENDMDL
MODEL      253
REMARK 921   NORMALIZED FREE ENERGY PREDICTED BY IDOCK:   -2.52 KCAL/MOL
REMARK 922        TOTAL FREE ENERGY PREDICTED BY IDOCK:   -4.66 KCAL/MOL
REMARK 923 INTER-LIGAND FREE ENERGY PREDICTED BY IDOCK:   -5.10 KCAL/MOL
REMARK 924 INTRA-LIGAND FREE ENERGY PREDICTED BY IDOCK:    0.44 KCAL/MOL
REMARK 927      BINDING AFFINITY PREDICTED BY RF-SCORE:    0.00 PKD
ROOT
HETATM    1  C   UNL     1     -10.522  16.416  69.758  1.00  0.00    -0.246 C  
HETATM    2  C   UNL     1     -11.458  15.216  69.678  1.00  0.00    -0.314 C  
ENDROOT
BRANCH   2   3
HETATM    3  C   UNL     1     -12.833  15.565  70.236  1.00  0.00    -0.239 C  
BRANCH   3   4
HETATM    4  C   UNL     1     -13.401  14.495  71.176  1.00  0.00    -0.415 C  
BRANCH   4   5
HETATM    5  C   UNL     1     -12.437  13.310  71.204  1.00  0.00    -0.308 C  
BRANCH   5   6
HETATM    6  O   UNL     1     -12.871  12.192  70.419  1.00  0.00     0.039 OA 
BRANCH   6   7
HETATM    7  C   UNL     1     -11.879  11.306  70.151  1.00  0.00    -0.364 C  
HETATM    8  O   UNL     1     -11.158  11.369  69.169  1.00  0.00    -0.228 OA 
HETATM    9  N   UNL     1     -11.858  10.349  71.133  1.00  0.00    -0.357 N  
HETATM   10  H   UNL     1     -12.696  10.250  71.705  1.00  0.00     0.000 HD 
BRANCH   9  11
HETATM   11  C   UNL     1     -10.804   9.514  71.413  1.00  0.00    -0.312 C  
HETATM   12  N   UNL     1      -9.596   9.799  71.077  1.00  0.00    -0.201 N  
HETATM   13  C   UNL     1      -8.602   8.882  71.334  1.00  0.00    -0.172 C  
HETATM   14  H   UNL     1      -9.378  10.688  70.628  1.00  0.00     0.000 HD 
HETATM   15  N   UNL     1      -9.005   7.551  71.558  1.00  0.00    -0.131 N  
HETATM   16  O   UNL     1      -7.427   9.232  71.337  1.00  0.00    -0.316 OA 
HETATM   17  F   UNL     1     -12.429   8.147  72.599  1.00  0.00    -0.346 F  
HETATM   18  C   UNL     1     -10.262   7.321  72.106  1.00  0.00    -0.190 C  
HETATM   19  C   UNL     1     -11.185   8.283  72.113  1.00  0.00    -0.345 C  
BRANCH  15  20
HETATM   20  C   UNL     1      -8.005   6.474  71.518  1.00  0.00    -0.104 C  
HETATM   21  C   UNL     1      -8.030   5.338  73.572  1.00  0.00    -0.110 C  
HETATM   22  O   UNL     1      -8.473   5.302  72.213  1.00  0.00    -0.123 OA 
HETATM   23  C   UNL     1      -9.061   6.048  74.442  1.00  0.00    -0.140 C  
HETATM   24  C   UNL     1      -6.669   6.023  73.528  1.00  0.00    -0.075 C  
HETATM   25  O   UNL     1      -5.592   5.072  73.501  1.00  0.00    -0.016 OA 
HETATM   26  C   UNL     1      -6.667   6.814  72.214  1.00  0.00    -0.059 C  
HETATM   27  H   UNL     1      -4.743   5.500  73.474  1.00  0.00     0.000 HD 
HETATM   28  O   UNL     1      -5.564   6.456  71.367  1.00  0.00    -0.026 OA 
HETATM   29  H   UNL     1      -4.742   6.665  71.794  1.00  0.00     0.000 HD 
ENDBRANCH  15  20
ENDBRANCH   9  11
ENDBRANCH   6   7
ENDBRANCH   5   6
ENDBRANCH   4   5
ENDBRANCH   3   4
ENDBRANCH   2   3
TORSDOF 7
ENDMDL
MODEL      254
REMARK 921   NORMALIZED FREE ENERGY PREDICTED BY IDOCK:   -2.47 KCAL/MOL
REMARK 922        TOTAL FREE ENERGY PREDICTED BY IDOCK:   -4.59 KCAL/MOL
REMARK 923 INTER-LIGAND FREE ENERGY PREDICTED BY IDOCK:   -4.49 KCAL/MOL
REMARK 924 INTRA-LIGAND FREE ENERGY PREDICTED BY IDOCK:   -0.10 KCAL/MOL
REMARK 927      BINDING AFFINITY PREDICTED BY RF-SCORE:    0.00 PKD
ROOT
HETATM    1  C   UNL     1     -10.409  16.420  69.790  1.00  0.00    -0.197 C  
HETATM    2  C   UNL     1     -11.147  15.108  69.548  1.00  0.00    -0.287 C  
ENDROOT
BRANCH   2   3
HETATM    3  C   UNL     1     -12.461  15.076  70.320  1.00  0.00    -0.385 C  
BRANCH   3   4
HETATM    4  C   UNL     1     -12.806  13.692  70.882  1.00  0.00    -0.321 C  
BRANCH   4   5
HETATM    5  C   UNL     1     -11.917  12.654  70.201  1.00  0.00    -0.299 C  
BRANCH   5   6
HETATM    6  O   UNL     1     -12.536  12.003  69.084  1.00  0.00     0.005 OA 
BRANCH   6   7
HETATM    7  C   UNL     1     -11.656  11.336  68.295  1.00  0.00    -0.300 C  
HETATM    8  O   UNL     1     -11.023  11.856  67.392  1.00  0.00    -0.235 OA 
HETATM    9  N   UNL     1     -11.635  10.016  68.669  1.00  0.00    -0.506 N  
HETATM   10  H   UNL     1     -12.425   9.674  69.216  1.00  0.00     0.000 HD 
BRANCH   9  11
HETATM   11  C   UNL     1     -10.642   9.116  68.369  1.00  0.00    -0.172 C  
HETATM   12  N   UNL     1     -10.893   7.962  67.861  1.00  0.00    -0.479 N  
HETATM   13  C   UNL     1      -9.850   7.089  67.647  1.00  0.00    -0.147 C  
HETATM   14  H   UNL     1     -11.848   7.697  67.621  1.00  0.00     0.000 HD 
HETATM   15  N   UNL     1      -8.660   7.333  68.361  1.00  0.00    -0.124 N  
HETATM   16  O   UNL     1      -9.987   6.140  66.884  1.00  0.00    -0.147 OA 
HETATM   17  F   UNL     1      -9.093  10.873  69.028  1.00  0.00    -0.160 F  
HETATM   18  C   UNL     1      -8.354   8.641  68.716  1.00  0.00    -0.121 C  
HETATM   19  C   UNL     1      -9.290   9.589  68.684  1.00  0.00    -0.142 C  
BRANCH  15  20
HETATM   20  C   UNL     1      -7.633   6.284  68.435  1.00  0.00    -0.096 C  
HETATM   21  C   UNL     1      -7.601   5.405  70.612  1.00  0.00    -0.081 C  
HETATM   22  O   UNL     1      -8.061   5.193  69.275  1.00  0.00    -0.083 OA 
HETATM   23  C   UNL     1      -8.637   6.190  71.406  1.00  0.00    -0.128 C  
HETATM   24  C   UNL     1      -6.259   6.112  70.463  1.00  0.00    -0.035 C  
HETATM   25  O   UNL     1      -5.157   5.192  70.534  1.00  0.00    -0.004 OA 
HETATM   26  C   UNL     1      -6.294   6.738  69.063  1.00  0.00    -0.035 C  
HETATM   27  H   UNL     1      -4.321   5.633  70.441  1.00  0.00     0.000 HD 
HETATM   28  O   UNL     1      -5.194   6.306  68.247  1.00  0.00    -0.006 OA 
HETATM   29  H   UNL     1      -4.372   6.585  68.633  1.00  0.00     0.000 HD 
ENDBRANCH  15  20
ENDBRANCH   9  11
ENDBRANCH   6   7
ENDBRANCH   5   6
ENDBRANCH   4   5
ENDBRANCH   3   4
ENDBRANCH   2   3
TORSDOF 7
ENDMDL
MODEL      255
REMARK 921   NORMALIZED FREE ENERGY PREDICTED BY IDOCK:   -2.47 KCAL/MOL
REMARK 922        TOTAL FREE ENERGY PREDICTED BY IDOCK:   -4.58 KCAL/MOL
REMARK 923 INTER-LIGAND FREE ENERGY PREDICTED BY IDOCK:   -5.10 KCAL/MOL
REMARK 924 INTRA-LIGAND FREE ENERGY PREDICTED BY IDOCK:    0.52 KCAL/MOL
REMARK 927      BINDING AFFINITY PREDICTED BY RF-SCORE:    0.00 PKD
ROOT
HETATM    1  C   UNL     1      -8.296   1.929  67.442  1.00  0.00    -0.084 C  
HETATM    2  C   UNL     1      -7.326   2.861  68.159  1.00  0.00    -0.049 C  
ENDROOT
BRANCH   2   3
HETATM    3  C   UNL     1      -7.927   4.255  68.308  1.00  0.00    -0.078 C  
BRANCH   3   4
HETATM    4  C   UNL     1      -7.357   5.041  69.495  1.00  0.00    -0.057 C  
BRANCH   4   5
HETATM    5  C   UNL     1      -7.917   6.461  69.454  1.00  0.00    -0.110 C  
BRANCH   5   6
HETATM    6  O   UNL     1      -7.585   7.180  68.259  1.00  0.00    -0.109 OA 
BRANCH   6   7
HETATM    7  C   UNL     1      -7.649   8.527  68.406  1.00  0.00    -0.096 C  
HETATM    8  O   UNL     1      -6.746   9.203  68.872  1.00  0.00    -0.051 OA 
HETATM    9  N   UNL     1      -8.876   8.966  67.980  1.00  0.00    -0.133 N  
HETATM   10  H   UNL     1      -9.621   8.272  67.912  1.00  0.00     0.000 HD 
BRANCH   9  11
HETATM   11  C   UNL     1      -9.188  10.258  67.637  1.00  0.00    -0.144 C  
HETATM   12  N   UNL     1      -8.688  11.270  68.252  1.00  0.00    -0.151 N  
HETATM   13  C   UNL     1      -9.097  12.535  67.893  1.00  0.00    -0.199 C  
HETATM   14  H   UNL     1      -8.000  11.139  68.994  1.00  0.00     0.000 HD 
HETATM   15  N   UNL     1     -10.313  12.634  67.187  1.00  0.00    -0.231 N  
HETATM   16  O   UNL     1      -8.428  13.512  68.208  1.00  0.00    -0.162 OA 
HETATM   17  F   UNL     1     -10.462   9.281  65.809  1.00  0.00    -0.281 F  
HETATM   18  C   UNL     1     -10.703  11.569  66.384  1.00  0.00    -0.273 C  
HETATM   19  C   UNL     1     -10.136  10.371  66.524  1.00  0.00    -0.228 C  
BRANCH  15  20
HETATM   20  C   UNL     1     -10.969  13.943  67.055  1.00  0.00    -0.295 C  
HETATM   21  C   UNL     1     -11.143  14.478  64.776  1.00  0.00    -0.391 C  
HETATM   22  O   UNL     1     -11.847  13.973  65.913  1.00  0.00    -0.352 OA 
HETATM   23  C   UNL     1     -10.483  13.333  64.016  1.00  0.00    -0.160 C  
HETATM   24  C   UNL     1     -10.164  15.502  65.338  1.00  0.00    -0.377 C  
HETATM   25  O   UNL     1     -10.683  16.840  65.253  1.00  0.00    -0.576 OA 
HETATM   26  C   UNL     1     -10.001  15.125  66.816  1.00  0.00    -0.239 C  
HETATM   27  H   UNL     1     -10.072  17.479  65.603  1.00  0.00     0.000 HD 
HETATM   28  O   UNL     1     -10.325  16.214  67.693  1.00  0.00    -0.273 OA 
HETATM   29  H   UNL     1      -9.731  16.941  67.545  1.00  0.00     0.000 HD 
ENDBRANCH  15  20
ENDBRANCH   9  11
ENDBRANCH   6   7
ENDBRANCH   5   6
ENDBRANCH   4   5
ENDBRANCH   3   4
ENDBRANCH   2   3
TORSDOF 7
ENDMDL
MODEL      256
REMARK 921   NORMALIZED FREE ENERGY PREDICTED BY IDOCK:   -2.44 KCAL/MOL
REMARK 922        TOTAL FREE ENERGY PREDICTED BY IDOCK:   -4.53 KCAL/MOL
REMARK 923 INTER-LIGAND FREE ENERGY PREDICTED BY IDOCK:   -4.80 KCAL/MOL
REMARK 924 INTRA-LIGAND FREE ENERGY PREDICTED BY IDOCK:    0.27 KCAL/MOL
REMARK 927      BINDING AFFINITY PREDICTED BY RF-SCORE:    0.00 PKD
ROOT
HETATM    1  C   UNL     1      -9.082  17.276  66.791  1.00  0.00    -0.269 C  
HETATM    2  C   UNL     1     -10.336  17.147  65.934  1.00  0.00    -0.294 C  
ENDROOT
BRANCH   2   3
HETATM    3  C   UNL     1     -10.662  15.681  65.671  1.00  0.00    -0.376 C  
BRANCH   3   4
HETATM    4  C   UNL     1     -11.512  15.037  66.774  1.00  0.00    -0.252 C  
BRANCH   4   5
HETATM    5  C   UNL     1     -10.731  13.869  67.372  1.00  0.00    -0.272 C  
BRANCH   5   6
HETATM    6  O   UNL     1     -10.450  12.820  66.437  1.00  0.00    -0.246 OA 
BRANCH   6   7
HETATM    7  C   UNL     1     -10.769  11.585  66.902  1.00  0.00    -0.263 C  
HETATM    8  O   UNL     1     -11.911  11.162  66.979  1.00  0.00    -0.411 OA 
HETATM    9  N   UNL     1      -9.620  10.941  67.281  1.00  0.00    -0.163 N  
HETATM   10  H   UNL     1      -8.795  11.518  67.447  1.00  0.00     0.000 HD 
BRANCH   9  11
HETATM   11  C   UNL     1      -9.484   9.585  67.455  1.00  0.00    -0.130 C  
HETATM   12  N   UNL     1      -9.998   8.969  68.460  1.00  0.00    -0.170 N  
HETATM   13  C   UNL     1      -9.765   7.619  68.601  1.00  0.00    -0.155 C  
HETATM   14  H   UNL     1     -10.568   9.471  69.141  1.00  0.00     0.000 HD 
HETATM   15  N   UNL     1      -8.667   7.086  67.897  1.00  0.00    -0.126 N  
HETATM   16  O   UNL     1     -10.481   6.944  69.330  1.00  0.00    -0.199 OA 
HETATM   17  F   UNL     1      -8.368   9.595  65.294  1.00  0.00    -0.118 F  
HETATM   18  C   UNL     1      -8.281   7.694  66.708  1.00  0.00    -0.124 C  
HETATM   19  C   UNL     1      -8.704   8.921  66.406  1.00  0.00    -0.129 C  
BRANCH  15  20
HETATM   20  C   UNL     1      -8.166   5.748  68.243  1.00  0.00    -0.108 C  
HETATM   21  C   UNL     1      -9.437   4.142  67.095  1.00  0.00    -0.189 C  
HETATM   22  O   UNL     1      -8.205   4.866  67.103  1.00  0.00    -0.106 OA 
HETATM   23  C   UNL     1     -10.494   4.911  66.311  1.00  0.00    -0.349 C  
HETATM   24  C   UNL     1      -9.781   3.926  68.564  1.00  0.00    -0.044 C  
HETATM   25  O   UNL     1      -9.355   2.634  69.030  1.00  0.00    -0.149 OA 
HETATM   26  C   UNL     1      -8.998   5.009  69.317  1.00  0.00    -0.096 C  
HETATM   27  H   UNL     1      -9.570   2.499  69.945  1.00  0.00     0.000 HD 
HETATM   28  O   UNL     1      -8.130   4.454  70.318  1.00  0.00    -0.061 OA 
HETATM   29  H   UNL     1      -8.641   4.000  70.978  1.00  0.00     0.000 HD 
ENDBRANCH  15  20
ENDBRANCH   9  11
ENDBRANCH   6   7
ENDBRANCH   5   6
ENDBRANCH   4   5
ENDBRANCH   3   4
ENDBRANCH   2   3
TORSDOF 7
ENDMDL
MODEL      257
REMARK 921   NORMALIZED FREE ENERGY PREDICTED BY IDOCK:   -2.41 KCAL/MOL
REMARK 922        TOTAL FREE ENERGY PREDICTED BY IDOCK:   -4.50 KCAL/MOL
REMARK 923 INTER-LIGAND FREE ENERGY PREDICTED BY IDOCK:   -4.10 KCAL/MOL
REMARK 924 INTRA-LIGAND FREE ENERGY PREDICTED BY IDOCK:   -0.40 KCAL/MOL
REMARK 927      BINDING AFFINITY PREDICTED BY RF-SCORE:    0.00 PKD
ROOT
HETATM    1  C   UNL     1     -11.585  15.241  66.644  1.00  0.00    -0.036 C  
HETATM    2  C   UNL     1     -10.677  14.172  67.242  1.00  0.00    -0.279 C  
ENDROOT
BRANCH   2   3
HETATM    3  C   UNL     1     -11.116  12.781  66.798  1.00  0.00    -0.314 C  
BRANCH   3   4
HETATM    4  C   UNL     1     -10.552  12.370  65.432  1.00  0.00    -0.316 C  
BRANCH   4   5
HETATM    5  C   UNL     1      -9.410  11.380  65.654  1.00  0.00    -0.222 C  
BRANCH   5   6
HETATM    6  O   UNL     1      -9.810  10.006  65.570  1.00  0.00    -0.268 OA 
BRANCH   6   7
HETATM    7  C   UNL     1      -9.946   9.411  66.782  1.00  0.00    -0.239 C  
HETATM    8  O   UNL     1     -11.000   8.968  67.207  1.00  0.00    -0.137 OA 
HETATM    9  N   UNL     1      -8.734   9.425  67.424  1.00  0.00    -0.125 N  
HETATM   10  H   UNL     1      -8.036  10.087  67.087  1.00  0.00     0.000 HD 
BRANCH   9  11
HETATM   11  C   UNL     1      -8.380   8.622  68.481  1.00  0.00    -0.123 C  
HETATM   12  N   UNL     1      -7.783   7.496  68.316  1.00  0.00    -0.117 N  
HETATM   13  C   UNL     1      -7.518   6.717  69.420  1.00  0.00    -0.094 C  
HETATM   14  H   UNL     1      -7.511   7.184  67.384  1.00  0.00     0.000 HD 
HETATM   15  N   UNL     1      -8.265   6.987  70.584  1.00  0.00    -0.117 N  
HETATM   16  O   UNL     1      -6.684   5.822  69.357  1.00  0.00    -0.055 OA 
HETATM   17  F   UNL     1      -9.193  10.426  69.896  1.00  0.00    -0.204 F  
HETATM   18  C   UNL     1      -8.722   8.283  70.794  1.00  0.00    -0.140 C  
HETATM   19  C   UNL     1      -8.750   9.163  69.793  1.00  0.00    -0.151 C  
BRANCH  15  20
HETATM   20  C   UNL     1      -8.274   6.010  71.682  1.00  0.00    -0.119 C  
HETATM   21  C   UNL     1      -9.594   4.174  71.054  1.00  0.00    -0.183 C  
HETATM   22  O   UNL     1      -8.255   4.660  71.178  1.00  0.00    -0.088 OA 
HETATM   23  C   UNL     1     -10.143   4.494  69.668  1.00  0.00    -0.161 C  
HETATM   24  C   UNL     1     -10.362   4.826  72.198  1.00  0.00    -0.190 C  
HETATM   25  O   UNL     1     -10.457   3.959  73.341  1.00  0.00    -0.148 OA 
HETATM   26  C   UNL     1      -9.534   6.060  72.577  1.00  0.00    -0.147 C  
HETATM   27  H   UNL     1     -10.937   4.366  74.054  1.00  0.00     0.000 HD 
HETATM   28  O   UNL     1      -9.156   6.055  73.962  1.00  0.00    -0.125 OA 
HETATM   29  H   UNL     1      -9.931   6.085  74.512  1.00  0.00     0.000 HD 
ENDBRANCH  15  20
ENDBRANCH   9  11
ENDBRANCH   6   7
ENDBRANCH   5   6
ENDBRANCH   4   5
ENDBRANCH   3   4
ENDBRANCH   2   3
TORSDOF 7
ENDMDL
MODEL      258
REMARK 921   NORMALIZED FREE ENERGY PREDICTED BY IDOCK:   -2.36 KCAL/MOL
REMARK 922        TOTAL FREE ENERGY PREDICTED BY IDOCK:   -4.43 KCAL/MOL
REMARK 923 INTER-LIGAND FREE ENERGY PREDICTED BY IDOCK:   -4.34 KCAL/MOL
REMARK 924 INTRA-LIGAND FREE ENERGY PREDICTED BY IDOCK:   -0.08 KCAL/MOL
REMARK 927      BINDING AFFINITY PREDICTED BY RF-SCORE:    0.00 PKD
ROOT
HETATM    1  C   UNL     1      -9.368  15.345  66.006  1.00  0.00    -0.364 C  
HETATM    2  C   UNL     1      -8.407  16.012  66.983  1.00  0.00    -0.251 C  
ENDROOT
BRANCH   2   3
HETATM    3  C   UNL     1      -7.110  15.218  67.093  1.00  0.00    -0.090 C  
BRANCH   3   4
HETATM    4  C   UNL     1      -7.021  14.368  68.366  1.00  0.00    -0.109 C  
BRANCH   4   5
HETATM    5  C   UNL     1      -6.708  12.927  67.969  1.00  0.00    -0.109 C  
BRANCH   5   6
HETATM    6  O   UNL     1      -7.744  12.299  67.203  1.00  0.00    -0.160 OA 
BRANCH   6   7
HETATM    7  C   UNL     1      -8.205  11.151  67.761  1.00  0.00    -0.119 C  
HETATM    8  O   UNL     1      -8.490  10.151  67.123  1.00  0.00    -0.125 OA 
HETATM    9  N   UNL     1      -8.315  11.327  69.117  1.00  0.00    -0.376 N  
HETATM   10  H   UNL     1      -8.339  12.286  69.462  1.00  0.00     0.000 HD 
BRANCH   9  11
HETATM   11  C   UNL     1      -8.395  10.321  70.049  1.00  0.00     0.100 C  
HETATM   12  N   UNL     1      -7.348   9.771  70.554  1.00  0.00    -0.140 N  
HETATM   13  C   UNL     1      -7.508   8.725  71.435  1.00  0.00    -0.101 C  
HETATM   14  H   UNL     1      -6.416  10.102  70.306  1.00  0.00     0.000 HD 
HETATM   15  N   UNL     1      -8.749   8.058  71.414  1.00  0.00    -0.129 N  
HETATM   16  O   UNL     1      -6.587   8.397  72.174  1.00  0.00    -0.069 OA 
HETATM   17  F   UNL     1     -10.799  10.687  69.982  1.00  0.00    -0.291 F  
HETATM   18  C   UNL     1      -9.880   8.773  71.037  1.00  0.00    -0.230 C  
HETATM   19  C   UNL     1      -9.765   9.939  70.402  1.00  0.00    -0.090 C  
BRANCH  15  20
HETATM   20  C   UNL     1      -8.882   6.754  72.080  1.00  0.00    -0.134 C  
HETATM   21  C   UNL     1     -10.372   5.423  70.849  1.00  0.00    -0.242 C  
HETATM   22  O   UNL     1      -8.994   5.687  71.118  1.00  0.00    -0.136 OA 
HETATM   23  C   UNL     1     -10.856   6.282  69.687  1.00  0.00    -0.403 C  
HETATM   24  C   UNL     1     -11.092   5.689  72.166  1.00  0.00    -0.241 C  
HETATM   25  O   UNL     1     -11.301   4.480  72.916  1.00  0.00    -0.163 OA 
HETATM   26  C   UNL     1     -10.148   6.606  72.954  1.00  0.00    -0.182 C  
HETATM   27  H   UNL     1     -11.750   4.646  73.737  1.00  0.00     0.000 HD 
HETATM   28  O   UNL     1      -9.802   6.056  74.235  1.00  0.00    -0.187 OA 
HETATM   29  H   UNL     1     -10.580   5.964  74.773  1.00  0.00     0.000 HD 
ENDBRANCH  15  20
ENDBRANCH   9  11
ENDBRANCH   6   7
ENDBRANCH   5   6
ENDBRANCH   4   5
ENDBRANCH   3   4
ENDBRANCH   2   3
TORSDOF 7
ENDMDL
MODEL      259
REMARK 921   NORMALIZED FREE ENERGY PREDICTED BY IDOCK:   -2.33 KCAL/MOL
REMARK 922        TOTAL FREE ENERGY PREDICTED BY IDOCK:   -4.38 KCAL/MOL
REMARK 923 INTER-LIGAND FREE ENERGY PREDICTED BY IDOCK:   -4.61 KCAL/MOL
REMARK 924 INTRA-LIGAND FREE ENERGY PREDICTED BY IDOCK:    0.23 KCAL/MOL
REMARK 927      BINDING AFFINITY PREDICTED BY RF-SCORE:    0.00 PKD
ROOT
HETATM    1  C   UNL     1     -10.913  11.074  69.465  1.00  0.00    -0.297 C  
HETATM    2  C   UNL     1     -11.809  11.377  68.269  1.00  0.00    -0.320 C  
ENDROOT
BRANCH   2   3
HETATM    3  C   UNL     1     -11.529  12.773  67.724  1.00  0.00    -0.376 C  
BRANCH   3   4
HETATM    4  C   UNL     1     -11.790  12.904  66.218  1.00  0.00    -0.477 C  
BRANCH   4   5
HETATM    5  C   UNL     1     -10.580  12.357  65.464  1.00  0.00    -0.275 C  
BRANCH   5   6
HETATM    6  O   UNL     1      -9.368  12.367  66.228  1.00  0.00    -0.230 OA 
BRANCH   6   7
HETATM    7  C   UNL     1      -8.643  11.227  66.101  1.00  0.00    -0.156 C  
HETATM    8  O   UNL     1      -7.486  11.112  66.469  1.00  0.00    -0.143 OA 
HETATM    9  N   UNL     1      -9.412  10.276  65.480  1.00  0.00    -0.204 N  
HETATM   10  H   UNL     1     -10.228  10.602  64.963  1.00  0.00     0.000 HD 
BRANCH   9  11
HETATM   11  C   UNL     1      -9.177   8.923  65.496  1.00  0.00    -0.178 C  
HETATM   12  N   UNL     1      -9.784   8.132  66.307  1.00  0.00    -0.409 N  
HETATM   13  C   UNL     1      -9.448   6.796  66.307  1.00  0.00    -0.067 C  
HETATM   14  H   UNL     1     -10.500   8.486  66.940  1.00  0.00     0.000 HD 
HETATM   15  N   UNL     1      -8.206   6.451  65.739  1.00  0.00    -0.127 N  
HETATM   16  O   UNL     1     -10.204   5.971  66.808  1.00  0.00    -0.181 OA 
HETATM   17  F   UNL     1      -7.734   9.328  63.579  1.00  0.00    -0.108 F  
HETATM   18  C   UNL     1      -7.694   7.253  64.725  1.00  0.00    -0.115 C  
HETATM   19  C   UNL     1      -8.178   8.477  64.518  1.00  0.00    -0.156 C  
BRANCH  15  20
HETATM   20  C   UNL     1      -7.641   5.117  65.988  1.00  0.00    -0.087 C  
HETATM   21  C   UNL     1      -8.118   3.737  64.150  1.00  0.00    -0.089 C  
HETATM   22  O   UNL     1      -7.115   4.540  64.776  1.00  0.00    -0.059 OA 
HETATM   23  C   UNL     1      -8.938   4.581  63.181  1.00  0.00    -0.130 C  
HETATM   24  C   UNL     1      -8.925   3.141  65.297  1.00  0.00    -0.144 C  
HETATM   25  O   UNL     1      -8.480   1.816  65.633  1.00  0.00    -0.092 OA 
HETATM   26  C   UNL     1      -8.663   4.071  66.489  1.00  0.00    -0.116 C  
HETATM   27  H   UNL     1      -8.983   1.444  66.349  1.00  0.00     0.000 HD 
HETATM   28  O   UNL     1      -8.132   3.365  67.622  1.00  0.00    -0.080 OA 
HETATM   29  H   UNL     1      -8.760   2.721  67.929  1.00  0.00     0.000 HD 
ENDBRANCH  15  20
ENDBRANCH   9  11
ENDBRANCH   6   7
ENDBRANCH   5   6
ENDBRANCH   4   5
ENDBRANCH   3   4
ENDBRANCH   2   3
TORSDOF 7
ENDMDL
MODEL      260
REMARK 921   NORMALIZED FREE ENERGY PREDICTED BY IDOCK:   -2.22 KCAL/MOL
REMARK 922        TOTAL FREE ENERGY PREDICTED BY IDOCK:   -4.23 KCAL/MOL
REMARK 923 INTER-LIGAND FREE ENERGY PREDICTED BY IDOCK:   -3.38 KCAL/MOL
REMARK 924 INTRA-LIGAND FREE ENERGY PREDICTED BY IDOCK:   -0.85 KCAL/MOL
REMARK 927      BINDING AFFINITY PREDICTED BY RF-SCORE:    0.00 PKD
ROOT
HETATM    1  C   UNL     1      -5.997   1.565  64.622  1.00  0.00    -0.013 C  
HETATM    2  C   UNL     1      -6.803   1.722  65.906  1.00  0.00    -0.035 C  
ENDROOT
BRANCH   2   3
HETATM    3  C   UNL     1      -7.536   3.058  65.924  1.00  0.00    -0.073 C  
BRANCH   3   4
HETATM    4  C   UNL     1      -9.060   2.920  65.831  1.00  0.00    -0.132 C  
BRANCH   4   5
HETATM    5  C   UNL     1      -9.702   4.127  66.512  1.00  0.00    -0.209 C  
BRANCH   5   6
HETATM    6  O   UNL     1      -9.651   5.328  65.732  1.00  0.00    -0.153 OA 
BRANCH   6   7
HETATM    7  C   UNL     1      -8.999   6.344  66.351  1.00  0.00    -0.153 C  
HETATM    8  O   UNL     1      -8.397   6.224  67.404  1.00  0.00    -0.109 OA 
HETATM    9  N   UNL     1      -9.162   7.491  65.617  1.00  0.00    -0.387 N  
HETATM   10  H   UNL     1      -9.929   7.509  64.945  1.00  0.00     0.000 HD 
BRANCH   9  11
HETATM   11  C   UNL     1      -8.381   8.617  65.709  1.00  0.00    -0.144 C  
HETATM   12  N   UNL     1      -7.112   8.555  65.910  1.00  0.00    -0.075 N  
HETATM   13  C   UNL     1      -6.405   9.728  66.054  1.00  0.00    -0.076 C  
HETATM   14  H   UNL     1      -6.638   7.654  65.961  1.00  0.00     0.000 HD 
HETATM   15  N   UNL     1      -7.145  10.881  66.387  1.00  0.00    -0.133 N  
HETATM   16  O   UNL     1      -5.188   9.734  65.919  1.00  0.00    -0.034 OA 
HETATM   17  F   UNL     1     -10.404   9.854  65.166  1.00  0.00    -0.380 F  
HETATM   18  C   UNL     1      -8.468  10.963  65.970  1.00  0.00    -0.167 C  
HETATM   19  C   UNL     1      -9.121   9.874  65.565  1.00  0.00    -0.189 C  
BRANCH  15  20
HETATM   20  C   UNL     1      -6.442  12.078  66.869  1.00  0.00    -0.059 C  
HETATM   21  C   UNL     1      -6.270  11.968  69.207  1.00  0.00    -0.096 C  
HETATM   22  O   UNL     1      -5.574  11.763  67.976  1.00  0.00    -0.043 OA 
HETATM   23  C   UNL     1      -6.980  10.687  69.629  1.00  0.00    -0.134 C  
HETATM   24  C   UNL     1      -7.204  13.144  68.945  1.00  0.00    -0.048 C  
HETATM   25  O   UNL     1      -6.637  14.387  69.389  1.00  0.00    -0.120 OA 
HETATM   26  C   UNL     1      -7.367  13.188  67.421  1.00  0.00    -0.111 C  
HETATM   27  H   UNL     1      -7.220  15.120  69.226  1.00  0.00     0.000 HD 
HETATM   28  O   UNL     1      -6.993  14.461  66.872  1.00  0.00    -0.306 OA 
HETATM   29  H   UNL     1      -7.561  15.143  67.211  1.00  0.00     0.000 HD 
ENDBRANCH  15  20
ENDBRANCH   9  11
ENDBRANCH   6   7
ENDBRANCH   5   6
ENDBRANCH   4   5
ENDBRANCH   3   4
ENDBRANCH   2   3
TORSDOF 7
ENDMDL
MODEL      261
REMARK 921   NORMALIZED FREE ENERGY PREDICTED BY IDOCK:   -2.01 KCAL/MOL
REMARK 922        TOTAL FREE ENERGY PREDICTED BY IDOCK:   -3.93 KCAL/MOL
REMARK 923 INTER-LIGAND FREE ENERGY PREDICTED BY IDOCK:   -4.16 KCAL/MOL
REMARK 924 INTRA-LIGAND FREE ENERGY PREDICTED BY IDOCK:    0.23 KCAL/MOL
REMARK 927      BINDING AFFINITY PREDICTED BY RF-SCORE:    0.00 PKD
ROOT
HETATM    1  C   UNL     1      -6.575  16.580  68.941  1.00  0.00    -0.173 C  
HETATM    2  C   UNL     1      -7.003  16.132  67.549  1.00  0.00    -0.196 C  
ENDROOT
BRANCH   2   3
HETATM    3  C   UNL     1      -7.173  14.617  67.497  1.00  0.00    -0.216 C  
BRANCH   3   4
HETATM    4  C   UNL     1      -8.628  14.171  67.310  1.00  0.00    -0.231 C  
BRANCH   4   5
HETATM    5  C   UNL     1      -8.643  12.679  66.985  1.00  0.00    -0.181 C  
BRANCH   5   6
HETATM    6  O   UNL     1      -9.754  12.273  66.176  1.00  0.00    -0.239 OA 
BRANCH   6   7
HETATM    7  C   UNL     1      -9.923  10.928  66.130  1.00  0.00    -0.233 C  
HETATM    8  O   UNL     1     -10.082  10.298  65.097  1.00  0.00    -0.310 OA 
HETATM    9  N   UNL     1      -9.911  10.432  67.409  1.00  0.00    -0.174 N  
HETATM   10  H   UNL     1     -10.078  11.094  68.166  1.00  0.00     0.000 HD 
BRANCH   9  11
HETATM   11  C   UNL     1      -9.693   9.121  67.756  1.00  0.00    -0.154 C  
HETATM   12  N   UNL     1      -8.884   8.365  67.102  1.00  0.00    -0.128 N  
HETATM   13  C   UNL     1      -8.766   7.044  67.471  1.00  0.00    -0.120 C  
HETATM   14  H   UNL     1      -8.340   8.737  66.324  1.00  0.00     0.000 HD 
HETATM   15  N   UNL     1      -9.812   6.503  68.245  1.00  0.00    -0.130 N  
HETATM   16  O   UNL     1      -7.797   6.388  67.109  1.00  0.00    -0.105 OA 
HETATM   17  F   UNL     1     -11.135   9.569  69.663  1.00  0.00    -0.235 F  
HETATM   18  C   UNL     1     -10.528   7.352  69.080  1.00  0.00    -0.210 C  
HETATM   19  C   UNL     1     -10.463   8.674  68.920  1.00  0.00    -0.192 C  
BRANCH  15  20
HETATM   20  C   UNL     1      -9.918   5.045  68.401  1.00  0.00    -0.136 C  
HETATM   21  C   UNL     1      -8.816   4.412  70.375  1.00  0.00    -0.087 C  
HETATM   22  O   UNL     1     -10.090   4.680  69.784  1.00  0.00    -0.234 OA 
HETATM   23  C   UNL     1      -8.232   5.688  70.968  1.00  0.00    -0.121 C  
HETATM   24  C   UNL     1      -7.980   3.802  69.255  1.00  0.00    -0.054 C  
HETATM   25  O   UNL     1      -7.986   2.366  69.303  1.00  0.00    -0.045 OA 
HETATM   26  C   UNL     1      -8.661   4.259  67.959  1.00  0.00    -0.105 C  
HETATM   27  H   UNL     1      -7.465   1.986  68.606  1.00  0.00     0.000 HD 
HETATM   28  O   UNL     1      -9.039   3.153  67.125  1.00  0.00    -0.151 OA 
HETATM   29  H   UNL     1      -8.267   2.669  66.854  1.00  0.00     0.000 HD 
ENDBRANCH  15  20
ENDBRANCH   9  11
ENDBRANCH   6   7
ENDBRANCH   5   6
ENDBRANCH   4   5
ENDBRANCH   3   4
ENDBRANCH   2   3
TORSDOF 7
ENDMDL
MODEL      262
REMARK 921   NORMALIZED FREE ENERGY PREDICTED BY IDOCK:   -1.98 KCAL/MOL
REMARK 922        TOTAL FREE ENERGY PREDICTED BY IDOCK:   -3.89 KCAL/MOL
REMARK 923 INTER-LIGAND FREE ENERGY PREDICTED BY IDOCK:   -4.29 KCAL/MOL
REMARK 924 INTRA-LIGAND FREE ENERGY PREDICTED BY IDOCK:    0.40 KCAL/MOL
REMARK 927      BINDING AFFINITY PREDICTED BY RF-SCORE:    0.00 PKD
ROOT
HETATM    1  C   UNL     1      -6.832   3.193  68.099  1.00  0.00    -0.049 C  
HETATM    2  C   UNL     1      -7.709   3.661  69.254  1.00  0.00    -0.052 C  
ENDROOT
BRANCH   2   3
HETATM    3  C   UNL     1      -7.541   5.158  69.489  1.00  0.00    -0.065 C  
BRANCH   3   4
HETATM    4  C   UNL     1      -8.769   5.982  69.085  1.00  0.00    -0.120 C  
BRANCH   4   5
HETATM    5  C   UNL     1      -8.955   7.111  70.096  1.00  0.00    -0.145 C  
BRANCH   5   6
HETATM    6  O   UNL     1      -8.289   8.327  69.735  1.00  0.00    -0.119 OA 
BRANCH   6   7
HETATM    7  C   UNL     1      -9.131   9.382  69.599  1.00  0.00    -0.181 C  
HETATM    8  O   UNL     1     -10.063   9.610  70.353  1.00  0.00    -0.249 OA 
HETATM    9  N   UNL     1      -8.773  10.099  68.486  1.00  0.00    -0.119 N  
HETATM   10  H   UNL     1      -8.187   9.627  67.797  1.00  0.00     0.000 HD 
BRANCH   9  11
HETATM   11  C   UNL     1      -9.137  11.396  68.219  1.00  0.00    -0.179 C  
HETATM   12  N   UNL     1      -9.817  12.101  69.051  1.00  0.00    -0.408 N  
HETATM   13  C   UNL     1     -10.199  13.373  68.687  1.00  0.00    -0.182 C  
HETATM   14  H   UNL     1     -10.070  11.726  69.965  1.00  0.00     0.000 HD 
HETATM   15  N   UNL     1     -10.190  13.671  67.310  1.00  0.00    -0.244 N  
HETATM   16  O   UNL     1     -10.548  14.180  69.541  1.00  0.00    -0.112 OA 
HETATM   17  F   UNL     1      -7.820  11.163  66.187  1.00  0.00    -0.157 F  
HETATM   18  C   UNL     1      -9.288  13.000  66.491  1.00  0.00    -0.217 C  
HETATM   19  C   UNL     1      -8.687  11.888  66.913  1.00  0.00    -0.191 C  
BRANCH  15  20
HETATM   20  C   UNL     1     -10.879  14.875  66.825  1.00  0.00    -0.320 C  
HETATM   21  C   UNL     1      -9.275  16.494  66.263  1.00  0.00    -0.310 C  
HETATM   22  O   UNL     1     -10.152  15.492  65.744  1.00  0.00    -0.305 OA 
HETATM   23  C   UNL     1      -7.917  15.884  66.592  1.00  0.00    -0.270 C  
HETATM   24  C   UNL     1     -10.006  17.078  67.466  1.00  0.00    -0.274 C  
HETATM   25  O   UNL     1     -10.716  18.282  67.127  1.00  0.00    -0.385 OA 
HETATM   26  C   UNL     1     -11.019  16.002  67.874  1.00  0.00    -0.327 C  
HETATM   27  H   UNL     1     -11.172  18.646  67.877  1.00  0.00     0.000 HD 
HETATM   28  O   UNL     1     -12.366  16.500  67.887  1.00  0.00     0.686 OA 
HETATM   29  H   UNL     1     -12.452  17.193  68.532  1.00  0.00     0.000 HD 
ENDBRANCH  15  20
ENDBRANCH   9  11
ENDBRANCH   6   7
ENDBRANCH   5   6
ENDBRANCH   4   5
ENDBRANCH   3   4
ENDBRANCH   2   3
TORSDOF 7
ENDMDL
MODEL      263
REMARK 921   NORMALIZED FREE ENERGY PREDICTED BY IDOCK:   -1.91 KCAL/MOL
REMARK 922        TOTAL FREE ENERGY PREDICTED BY IDOCK:   -3.79 KCAL/MOL
REMARK 923 INTER-LIGAND FREE ENERGY PREDICTED BY IDOCK:   -3.44 KCAL/MOL
REMARK 924 INTRA-LIGAND FREE ENERGY PREDICTED BY IDOCK:   -0.36 KCAL/MOL
REMARK 927      BINDING AFFINITY PREDICTED BY RF-SCORE:    0.00 PKD
ROOT
HETATM    1  C   UNL     1      -6.065   1.724  64.617  1.00  0.00    -0.017 C  
HETATM    2  C   UNL     1      -7.366   1.486  65.376  1.00  0.00    -0.053 C  
ENDROOT
BRANCH   2   3
HETATM    3  C   UNL     1      -8.278   2.704  65.278  1.00  0.00    -0.088 C  
BRANCH   3   4
HETATM    4  C   UNL     1      -9.275   2.627  64.115  1.00  0.00    -0.121 C  
BRANCH   4   5
HETATM    5  C   UNL     1     -10.601   3.235  64.568  1.00  0.00     0.126 C  
BRANCH   5   6
HETATM    6  O   UNL     1     -10.701   4.646  64.335  1.00  0.00     0.176 OA 
BRANCH   6   7
HETATM    7  C   UNL     1     -10.045   5.392  65.259  1.00  0.00     0.502 C  
HETATM    8  O   UNL     1      -8.955   5.904  65.070  1.00  0.00    -0.013 OA 
HETATM    9  N   UNL     1     -10.793   5.436  66.408  1.00  0.00    -0.651 N  
HETATM   10  H   UNL     1     -11.513   4.723  66.524  1.00  0.00     0.000 HD 
BRANCH   9  11
HETATM   11  C   UNL     1     -10.655   6.359  67.417  1.00  0.00    -0.295 C  
HETATM   12  N   UNL     1     -10.787   7.621  67.213  1.00  0.00    -0.533 N  
HETATM   13  C   UNL     1     -10.571   8.489  68.260  1.00  0.00    -0.119 C  
HETATM   14  H   UNL     1     -11.048   7.974  66.292  1.00  0.00     0.000 HD 
HETATM   15  N   UNL     1      -9.829   7.997  69.352  1.00  0.00    -0.178 N  
HETATM   16  O   UNL     1     -10.995   9.637  68.205  1.00  0.00    -0.206 OA 
HETATM   17  F   UNL     1     -10.410   4.444  68.898  1.00  0.00    -0.161 F  
HETATM   18  C   UNL     1      -9.883   6.636  69.632  1.00  0.00    -0.157 C  
HETATM   19  C   UNL     1     -10.340   5.775  68.724  1.00  0.00    -0.224 C  
BRANCH  15  20
HETATM   20  C   UNL     1      -9.288   8.938  70.342  1.00  0.00    -0.193 C  
HETATM   21  C   UNL     1      -7.283   9.838  69.518  1.00  0.00    -0.087 C  
HETATM   22  O   UNL     1      -8.680  10.077  69.701  1.00  0.00    -0.186 OA 
HETATM   23  C   UNL     1      -7.036   9.171  68.169  1.00  0.00    -0.076 C  
HETATM   24  C   UNL     1      -6.862   8.998  70.718  1.00  0.00    -0.075 C  
HETATM   25  O   UNL     1      -6.296   9.804  71.764  1.00  0.00    -0.306 OA 
HETATM   26  C   UNL     1      -8.160   8.360  71.229  1.00  0.00    -0.127 C  
HETATM   27  H   UNL     1      -6.033   9.280  72.512  1.00  0.00     0.000 HD 
HETATM   28  O   UNL     1      -8.410   8.669  72.609  1.00  0.00    -0.378 OA 
HETATM   29  H   UNL     1      -7.717   8.314  73.154  1.00  0.00     0.000 HD 
ENDBRANCH  15  20
ENDBRANCH   9  11
ENDBRANCH   6   7
ENDBRANCH   5   6
ENDBRANCH   4   5
ENDBRANCH   3   4
ENDBRANCH   2   3
TORSDOF 7
ENDMDL
MODEL      264
REMARK 921   NORMALIZED FREE ENERGY PREDICTED BY IDOCK:   -1.14 KCAL/MOL
REMARK 922        TOTAL FREE ENERGY PREDICTED BY IDOCK:   -2.70 KCAL/MOL
REMARK 923 INTER-LIGAND FREE ENERGY PREDICTED BY IDOCK:   -2.73 KCAL/MOL
REMARK 924 INTRA-LIGAND FREE ENERGY PREDICTED BY IDOCK:    0.02 KCAL/MOL
REMARK 927      BINDING AFFINITY PREDICTED BY RF-SCORE:    0.00 PKD
ROOT
HETATM    1  C   UNL     1      -8.877   8.676  72.472  1.00  0.00    -0.153 C  
HETATM    2  C   UNL     1     -10.006   7.707  72.139  1.00  0.00    -0.232 C  
ENDROOT
BRANCH   2   3
HETATM    3  C   UNL     1     -10.289   6.781  73.316  1.00  0.00    -0.293 C  
BRANCH   3   4
HETATM    4  C   UNL     1      -9.025   6.159  73.921  1.00  0.00    -0.130 C  
BRANCH   4   5
HETATM    5  C   UNL     1      -8.285   5.394  72.826  1.00  0.00    -0.109 C  
BRANCH   5   6
HETATM    6  O   UNL     1      -9.068   4.363  72.210  1.00  0.00    -0.118 OA 
BRANCH   6   7
HETATM    7  C   UNL     1      -8.908   4.297  70.864  1.00  0.00    -0.098 C  
HETATM    8  O   UNL     1      -9.471   3.483  70.152  1.00  0.00    -0.164 OA 
HETATM    9  N   UNL     1      -8.011   5.259  70.474  1.00  0.00    -0.097 N  
HETATM   10  H   UNL     1      -7.403   5.648  71.194  1.00  0.00     0.000 HD 
BRANCH   9  11
HETATM   11  C   UNL     1      -7.862   5.742  69.197  1.00  0.00    -0.090 C  
HETATM   12  N   UNL     1      -8.470   5.219  68.192  1.00  0.00    -0.097 N  
HETATM   13  C   UNL     1      -8.221   5.718  66.933  1.00  0.00    -0.101 C  
HETATM   14  H   UNL     1      -9.126   4.449  68.325  1.00  0.00     0.000 HD 
HETATM   15  N   UNL     1      -7.038   6.464  66.766  1.00  0.00    -0.071 N  
HETATM   16  O   UNL     1      -8.998   5.486  66.014  1.00  0.00    -0.144 OA 
HETATM   17  F   UNL     1      -6.509   7.494  70.205  1.00  0.00    -0.036 F  
HETATM   18  C   UNL     1      -6.535   7.165  67.857  1.00  0.00    -0.048 C  
HETATM   19  C   UNL     1      -6.952   6.887  69.092  1.00  0.00    -0.078 C  
BRANCH  15  20
HETATM   20  C   UNL     1      -6.546   6.749  65.411  1.00  0.00    -0.050 C  
HETATM   21  C   UNL     1      -7.319   8.865  64.752  1.00  0.00    -0.097 C  
HETATM   22  O   UNL     1      -6.199   8.140  65.263  1.00  0.00    -0.045 OA 
HETATM   23  C   UNL     1      -8.178   9.384  65.899  1.00  0.00    -0.115 C  
HETATM   24  C   UNL     1      -8.035   7.888  63.826  1.00  0.00    -0.119 C  
HETATM   25  O   UNL     1      -7.652   8.073  62.453  1.00  0.00    -0.102 OA 
HETATM   26  C   UNL     1      -7.579   6.499  64.287  1.00  0.00    -0.100 C  
HETATM   27  H   UNL     1      -8.099   7.464  61.876  1.00  0.00     0.000 HD 
HETATM   28  O   UNL     1      -6.978   5.744  63.223  1.00  0.00    -0.039 OA 
HETATM   29  H   UNL     1      -7.613   5.590  62.533  1.00  0.00     0.000 HD 
ENDBRANCH  15  20
ENDBRANCH   9  11
ENDBRANCH   6   7
ENDBRANCH   5   6
ENDBRANCH   4   5
ENDBRANCH   3   4
ENDBRANCH   2   3
TORSDOF 7
ENDMDL
MODEL      265
REMARK 921   NORMALIZED FREE ENERGY PREDICTED BY IDOCK:   -1.05 KCAL/MOL
REMARK 922        TOTAL FREE ENERGY PREDICTED BY IDOCK:   -2.58 KCAL/MOL
REMARK 923 INTER-LIGAND FREE ENERGY PREDICTED BY IDOCK:   -3.03 KCAL/MOL
REMARK 924 INTRA-LIGAND FREE ENERGY PREDICTED BY IDOCK:    0.45 KCAL/MOL
REMARK 927      BINDING AFFINITY PREDICTED BY RF-SCORE:    0.00 PKD
ROOT
HETATM    1  C   UNL     1      -6.008   1.731  64.640  1.00  0.00    -0.013 C  
HETATM    2  C   UNL     1      -7.139   1.630  65.657  1.00  0.00    -0.050 C  
ENDROOT
BRANCH   2   3
HETATM    3  C   UNL     1      -7.909   2.944  65.741  1.00  0.00    -0.081 C  
BRANCH   3   4
HETATM    4  C   UNL     1      -9.134   2.994  64.820  1.00  0.00    -0.142 C  
BRANCH   4   5
HETATM    5  C   UNL     1     -10.286   3.652  65.576  1.00  0.00     0.181 C  
BRANCH   5   6
HETATM    6  O   UNL     1     -10.404   5.061  65.340  1.00  0.00    -0.021 OA 
BRANCH   6   7
HETATM    7  C   UNL     1      -9.595   5.808  66.133  1.00  0.00    -0.099 C  
HETATM    8  O   UNL     1      -8.595   6.382  65.735  1.00  0.00    -0.148 OA 
HETATM    9  N   UNL     1     -10.075   5.776  67.417  1.00  0.00    -0.156 N  
HETATM   10  H   UNL     1     -10.722   5.023  67.654  1.00  0.00     0.000 HD 
BRANCH   9  11
HETATM   11  C   UNL     1      -9.761   6.670  68.411  1.00  0.00    -0.126 C  
HETATM   12  N   UNL     1      -8.743   7.451  68.332  1.00  0.00    -0.124 N  
HETATM   13  C   UNL     1      -8.454   8.276  69.397  1.00  0.00    -0.123 C  
HETATM   14  H   UNL     1      -8.159   7.461  67.496  1.00  0.00     0.000 HD 
HETATM   15  N   UNL     1      -9.018   7.929  70.641  1.00  0.00    -0.147 N  
HETATM   16  O   UNL     1      -7.719   9.244  69.244  1.00  0.00    -0.077 OA 
HETATM   17  F   UNL     1     -11.822   5.942  69.478  1.00  0.00    -0.286 F  
HETATM   18  C   UNL     1     -10.227   7.244  70.654  1.00  0.00    -0.195 C  
HETATM   19  C   UNL     1     -10.678   6.643  69.554  1.00  0.00    -0.260 C  
BRANCH  15  20
HETATM   20  C   UNL     1      -8.506   8.558  71.867  1.00  0.00    -0.170 C  
HETATM   21  C   UNL     1      -6.208   8.115  72.045  1.00  0.00    -0.049 C  
HETATM   22  O   UNL     1      -7.182   9.090  71.667  1.00  0.00    -0.262 OA 
HETATM   23  C   UNL     1      -5.846   7.242  70.850  1.00  0.00    -0.031 C  
HETATM   24  C   UNL     1      -6.837   7.355  73.207  1.00  0.00    -0.066 C  
HETATM   25  O   UNL     1      -6.403   7.865  74.479  1.00  0.00    -0.093 OA 
HETATM   26  C   UNL     1      -8.346   7.593  73.065  1.00  0.00    -0.133 C  
HETATM   27  H   UNL     1      -6.795   7.391  75.203  1.00  0.00     0.000 HD 
HETATM   28  O   UNL     1      -8.918   8.174  74.247  1.00  0.00    -0.360 OA 
HETATM   29  H   UNL     1      -8.819   7.582  74.983  1.00  0.00     0.000 HD 
ENDBRANCH  15  20
ENDBRANCH   9  11
ENDBRANCH   6   7
ENDBRANCH   5   6
ENDBRANCH   4   5
ENDBRANCH   3   4
ENDBRANCH   2   3
TORSDOF 7
ENDMDL
MODEL      266
REMARK 921   NORMALIZED FREE ENERGY PREDICTED BY IDOCK:   -1.05 KCAL/MOL
REMARK 922        TOTAL FREE ENERGY PREDICTED BY IDOCK:   -2.58 KCAL/MOL
REMARK 923 INTER-LIGAND FREE ENERGY PREDICTED BY IDOCK:   -3.22 KCAL/MOL
REMARK 924 INTRA-LIGAND FREE ENERGY PREDICTED BY IDOCK:    0.65 KCAL/MOL
REMARK 927      BINDING AFFINITY PREDICTED BY RF-SCORE:    0.00 PKD
ROOT
HETATM    1  C   UNL     1      -7.115   9.359  71.379  1.00  0.00     0.109 C  
HETATM    2  C   UNL     1      -7.811   8.040  71.695  1.00  0.00    -0.116 C  
ENDROOT
BRANCH   2   3
HETATM    3  C   UNL     1      -7.443   7.558  73.094  1.00  0.00    -0.105 C  
BRANCH   3   4
HETATM    4  C   UNL     1      -5.950   7.253  73.262  1.00  0.00    -0.056 C  
BRANCH   4   5
HETATM    5  C   UNL     1      -5.666   5.869  72.682  1.00  0.00    -0.035 C  
BRANCH   5   6
HETATM    6  O   UNL     1      -6.535   4.843  73.179  1.00  0.00    -0.054 OA 
BRANCH   6   7
HETATM    7  C   UNL     1      -7.336   4.307  72.225  1.00  0.00    -0.067 C  
HETATM    8  O   UNL     1      -8.321   3.629  72.466  1.00  0.00    -0.083 OA 
HETATM    9  N   UNL     1      -6.837   4.631  70.989  1.00  0.00    -0.035 N  
HETATM   10  H   UNL     1      -5.863   4.929  70.944  1.00  0.00     0.000 HD 
BRANCH   9  11
HETATM   11  C   UNL     1      -7.537   4.590  69.808  1.00  0.00    -0.054 C  
HETATM   12  N   UNL     1      -8.775   4.926  69.734  1.00  0.00    -0.085 N  
HETATM   13  C   UNL     1      -9.427   4.797  68.528  1.00  0.00    -0.145 C  
HETATM   14  H   UNL     1      -9.267   5.282  70.553  1.00  0.00     0.000 HD 
HETATM   15  N   UNL     1      -8.843   3.936  67.577  1.00  0.00    -0.110 N  
HETATM   16  O   UNL     1     -10.477   5.396  68.328  1.00  0.00    -0.178 OA 
HETATM   17  F   UNL     1      -5.419   3.980  68.777  1.00  0.00    -0.010 F  
HETATM   18  C   UNL     1      -7.464   3.765  67.595  1.00  0.00    -0.067 C  
HETATM   19  C   UNL     1      -6.750   4.126  68.661  1.00  0.00    -0.046 C  
BRANCH  15  20
HETATM   20  C   UNL     1      -9.630   3.501  66.415  1.00  0.00    -0.094 C  
HETATM   21  C   UNL     1      -8.238   3.472  64.524  1.00  0.00    -0.090 C  
HETATM   22  O   UNL     1      -8.847   2.667  65.537  1.00  0.00    -0.123 OA 
HETATM   23  C   UNL     1      -6.872   3.960  64.990  1.00  0.00    -0.049 C  
HETATM   24  C   UNL     1      -9.240   4.586  64.247  1.00  0.00    -0.117 C  
HETATM   25  O   UNL     1     -10.071   4.290  63.112  1.00  0.00    -0.322 OA 
HETATM   26  C   UNL     1     -10.119   4.650  65.503  1.00  0.00    -0.183 C  
HETATM   27  H   UNL     1     -10.695   4.985  62.939  1.00  0.00     0.000 HD 
HETATM   28  O   UNL     1     -11.512   4.481  65.200  1.00  0.00    -1.105 OA 
HETATM   29  H   UNL     1     -11.813   5.187  64.639  1.00  0.00     0.000 HD 
ENDBRANCH  15  20
ENDBRANCH   9  11
ENDBRANCH   6   7
ENDBRANCH   5   6
ENDBRANCH   4   5
ENDBRANCH   3   4
ENDBRANCH   2   3
TORSDOF 7
ENDMDL
MODEL      267
REMARK 921   NORMALIZED FREE ENERGY PREDICTED BY IDOCK:   -1.02 KCAL/MOL
REMARK 922        TOTAL FREE ENERGY PREDICTED BY IDOCK:   -2.54 KCAL/MOL
REMARK 923 INTER-LIGAND FREE ENERGY PREDICTED BY IDOCK:   -3.41 KCAL/MOL
REMARK 924 INTRA-LIGAND FREE ENERGY PREDICTED BY IDOCK:    0.87 KCAL/MOL
REMARK 927      BINDING AFFINITY PREDICTED BY RF-SCORE:    0.00 PKD
ROOT
HETATM    1  C   UNL     1      -5.233  19.755  71.387  1.00  0.00    -0.351 C  
HETATM    2  C   UNL     1      -5.909  20.548  70.274  1.00  0.00    -0.306 C  
ENDROOT
BRANCH   2   3
HETATM    3  C   UNL     1      -7.004  19.721  69.609  1.00  0.00    -0.251 C  
BRANCH   3   4
HETATM    4  C   UNL     1      -6.474  18.478  68.884  1.00  0.00    -0.254 C  
BRANCH   4   5
HETATM    5  C   UNL     1      -7.377  18.192  67.685  1.00  0.00    -0.213 C  
BRANCH   5   6
HETATM    6  O   UNL     1      -7.040  16.990  66.980  1.00  0.00    -0.157 OA 
BRANCH   6   7
HETATM    7  C   UNL     1      -7.324  15.860  67.676  1.00  0.00    -0.157 C  
HETATM    8  O   UNL     1      -6.634  15.430  68.585  1.00  0.00    -0.095 OA 
HETATM    9  N   UNL     1      -8.469  15.301  67.170  1.00  0.00    -0.192 N  
HETATM   10  H   UNL     1      -8.756  15.592  66.235  1.00  0.00     0.000 HD 
BRANCH   9  11
HETATM   11  C   UNL     1      -9.262  14.382  67.813  1.00  0.00    -0.192 C  
HETATM   12  N   UNL     1     -10.370  14.709  68.376  1.00  0.00    -0.231 N  
HETATM   13  C   UNL     1     -11.079  13.745  69.057  1.00  0.00    -0.259 C  
HETATM   14  H   UNL     1     -10.719  15.666  68.321  1.00  0.00     0.000 HD 
HETATM   15  N   UNL     1     -10.371  12.591  69.448  1.00  0.00     0.332 N  
HETATM   16  O   UNL     1     -12.263  13.920  69.318  1.00  0.00    -0.346 OA 
HETATM   17  F   UNL     1      -7.669  12.719  67.029  1.00  0.00    -0.159 F  
HETATM   18  C   UNL     1      -9.289  12.183  68.676  1.00  0.00    -0.025 C  
HETATM   19  C   UNL     1      -8.728  13.016  67.800  1.00  0.00    -0.188 C  
BRANCH  15  20
HETATM   20  C   UNL     1     -10.961  11.681  70.440  1.00  0.00     0.989 C  
HETATM   21  C   UNL     1     -11.408   9.620  69.407  1.00  0.00     0.002 C  
HETATM   22  O   UNL     1     -10.496  10.330  70.249  1.00  0.00    -0.265 OA 
HETATM   23  C   UNL     1     -11.005   9.776  67.946  1.00  0.00    -0.246 C  
HETATM   24  C   UNL     1     -12.782  10.189  69.742  1.00  0.00     0.398 C  
HETATM   25  O   UNL     1     -13.479   9.375  70.701  1.00  0.00    -0.556 OA 
HETATM   26  C   UNL     1     -12.501  11.561  70.366  1.00  0.00    -0.240 C  
HETATM   27  H   UNL     1     -14.336   9.729  70.909  1.00  0.00     0.000 HD 
HETATM   28  O   UNL     1     -13.069  11.687  71.679  1.00  0.00    -0.445 OA 
HETATM   29  H   UNL     1     -14.015  11.614  71.634  1.00  0.00     0.000 HD 
ENDBRANCH  15  20
ENDBRANCH   9  11
ENDBRANCH   6   7
ENDBRANCH   5   6
ENDBRANCH   4   5
ENDBRANCH   3   4
ENDBRANCH   2   3
TORSDOF 7
ENDMDL
MODEL      268
REMARK 921   NORMALIZED FREE ENERGY PREDICTED BY IDOCK:   -0.72 KCAL/MOL
REMARK 922        TOTAL FREE ENERGY PREDICTED BY IDOCK:   -2.12 KCAL/MOL
REMARK 923 INTER-LIGAND FREE ENERGY PREDICTED BY IDOCK:   -2.07 KCAL/MOL
REMARK 924 INTRA-LIGAND FREE ENERGY PREDICTED BY IDOCK:   -0.05 KCAL/MOL
REMARK 927      BINDING AFFINITY PREDICTED BY RF-SCORE:    0.00 PKD
ROOT
HETATM    1  C   UNL     1      -6.226   1.808  65.066  1.00  0.00    -0.018 C  
HETATM    2  C   UNL     1      -7.492   1.641  65.898  1.00  0.00    -0.061 C  
ENDROOT
BRANCH   2   3
HETATM    3  C   UNL     1      -8.339   2.908  65.854  1.00  0.00    -0.092 C  
BRANCH   3   4
HETATM    4  C   UNL     1      -9.383   2.906  64.731  1.00  0.00    -0.147 C  
BRANCH   4   5
HETATM    5  C   UNL     1     -10.646   3.600  65.237  1.00  0.00     0.412 C  
BRANCH   5   6
HETATM    6  O   UNL     1     -10.618   5.026  65.098  1.00  0.00     0.159 OA 
BRANCH   6   7
HETATM    7  C   UNL     1     -10.080   5.661  66.170  1.00  0.00    -0.048 C  
HETATM    8  O   UNL     1     -10.319   5.361  67.328  1.00  0.00    -0.202 OA 
HETATM    9  N   UNL     1      -9.273   6.677  65.728  1.00  0.00    -0.374 N  
HETATM   10  H   UNL     1      -9.411   6.998  64.770  1.00  0.00     0.000 HD 
BRANCH   9  11
HETATM   11  C   UNL     1      -8.294   7.300  66.465  1.00  0.00    -0.121 C  
HETATM   12  N   UNL     1      -7.284   6.661  66.939  1.00  0.00    -0.076 N  
HETATM   13  C   UNL     1      -6.378   7.341  67.722  1.00  0.00    -0.048 C  
HETATM   14  H   UNL     1      -7.156   5.670  66.739  1.00  0.00     0.000 HD 
HETATM   15  N   UNL     1      -6.813   8.553  68.293  1.00  0.00    -0.065 N  
HETATM   16  O   UNL     1      -5.261   6.876  67.915  1.00  0.00    -0.013 OA 
HETATM   17  F   UNL     1      -9.483   9.364  65.975  1.00  0.00    -0.209 F  
HETATM   18  C   UNL     1      -7.781   9.293  67.624  1.00  0.00    -0.092 C  
HETATM   19  C   UNL     1      -8.514   8.736  66.660  1.00  0.00    -0.108 C  
BRANCH  15  20
HETATM   20  C   UNL     1      -6.034   9.162  69.381  1.00  0.00    -0.037 C  
HETATM   21  C   UNL     1      -6.121   7.753  71.257  1.00  0.00    -0.035 C  
HETATM   22  O   UNL     1      -5.328   8.160  70.140  1.00  0.00    -0.023 OA 
HETATM   23  C   UNL     1      -7.011   6.577  70.869  1.00  0.00    -0.068 C  
HETATM   24  C   UNL     1      -6.884   9.003  71.679  1.00  0.00    -0.007 C  
HETATM   25  O   UNL     1      -6.230   9.690  72.758  1.00  0.00    -0.207 OA 
HETATM   26  C   UNL     1      -6.881   9.906  70.439  1.00  0.00    -0.140 C  
HETATM   27  H   UNL     1      -6.706  10.470  73.022  1.00  0.00     0.000 HD 
HETATM   28  O   UNL     1      -6.311  11.196  70.709  1.00  0.00    -0.455 OA 
HETATM   29  H   UNL     1      -6.831  11.654  71.360  1.00  0.00     0.000 HD 
ENDBRANCH  15  20
ENDBRANCH   9  11
ENDBRANCH   6   7
ENDBRANCH   5   6
ENDBRANCH   4   5
ENDBRANCH   3   4
ENDBRANCH   2   3
TORSDOF 7
ENDMDL
MODEL      269
REMARK 921   NORMALIZED FREE ENERGY PREDICTED BY IDOCK:   -0.01 KCAL/MOL
REMARK 922        TOTAL FREE ENERGY PREDICTED BY IDOCK:   -1.11 KCAL/MOL
REMARK 923 INTER-LIGAND FREE ENERGY PREDICTED BY IDOCK:   -0.97 KCAL/MOL
REMARK 924 INTRA-LIGAND FREE ENERGY PREDICTED BY IDOCK:   -0.14 KCAL/MOL
REMARK 927      BINDING AFFINITY PREDICTED BY RF-SCORE:    0.00 PKD
ROOT
HETATM    1  C   UNL     1      -6.242   1.830  65.071  1.00  0.00    -0.018 C  
HETATM    2  C   UNL     1      -7.544   1.656  65.845  1.00  0.00    -0.065 C  
ENDROOT
BRANCH   2   3
HETATM    3  C   UNL     1      -8.446   2.872  65.665  1.00  0.00    -0.103 C  
BRANCH   3   4
HETATM    4  C   UNL     1      -9.401   2.752  64.471  1.00  0.00    -0.142 C  
BRANCH   4   5
HETATM    5  C   UNL     1     -10.740   3.379  64.853  1.00  0.00     0.470 C  
BRANCH   5   6
HETATM    6  O   UNL     1     -10.818   4.785  64.590  1.00  0.00     0.209 OA 
BRANCH   6   7
HETATM    7  C   UNL     1     -10.497   5.552  65.663  1.00  0.00     0.393 C  
HETATM    8  O   UNL     1     -10.864   5.314  66.802  1.00  0.00    -0.232 OA 
HETATM    9  N   UNL     1      -9.741   6.615  65.242  1.00  0.00     0.440 N  
HETATM   10  H   UNL     1      -9.776   6.848  64.249  1.00  0.00     0.000 HD 
BRANCH   9  11
HETATM   11  C   UNL     1      -8.939   7.393  66.041  1.00  0.00    -0.121 C  
HETATM   12  N   UNL     1      -9.269   7.705  67.244  1.00  0.00    -0.129 N  
HETATM   13  C   UNL     1      -8.444   8.541  67.963  1.00  0.00    -0.131 C  
HETATM   14  H   UNL     1     -10.126   7.340  67.659  1.00  0.00     0.000 HD 
HETATM   15  N   UNL     1      -7.532   9.323  67.227  1.00  0.00    -0.091 N  
HETATM   16  O   UNL     1      -8.539   8.599  69.183  1.00  0.00    -0.126 OA 
HETATM   17  F   UNL     1      -7.332   7.306  64.217  1.00  0.00    -0.064 F  
HETATM   18  C   UNL     1      -7.066   8.832  66.012  1.00  0.00    -0.084 C  
HETATM   19  C   UNL     1      -7.695   7.830  65.400  1.00  0.00    -0.106 C  
BRANCH  15  20
HETATM   20  C   UNL     1      -6.857  10.454  67.879  1.00  0.00    -0.070 C  
HETATM   21  C   UNL     1      -8.457  12.087  68.412  1.00  0.00    -0.147 C  
HETATM   22  O   UNL     1      -7.671  11.011  68.930  1.00  0.00    -0.125 OA 
HETATM   23  C   UNL     1      -9.793  11.562  67.898  1.00  0.00    -0.192 C  
HETATM   24  C   UNL     1      -7.587  12.737  67.343  1.00  0.00    -0.152 C  
HETATM   25  O   UNL     1      -6.876  13.878  67.851  1.00  0.00    -0.124 OA 
HETATM   26  C   UNL     1      -6.573  11.656  66.947  1.00  0.00    -0.129 C  
HETATM   27  H   UNL     1      -6.334  14.283  67.184  1.00  0.00     0.000 HD 
HETATM   28  O   UNL     1      -5.216  12.098  67.112  1.00  0.00    -0.134 OA 
HETATM   29  H   UNL     1      -5.042  12.836  66.540  1.00  0.00     0.000 HD 
ENDBRANCH  15  20
ENDBRANCH   9  11
ENDBRANCH   6   7
ENDBRANCH   5   6
ENDBRANCH   4   5
ENDBRANCH   3   4
ENDBRANCH   2   3
TORSDOF 7
ENDMDL
MODEL      270
REMARK 921   NORMALIZED FREE ENERGY PREDICTED BY IDOCK:    0.33 KCAL/MOL
REMARK 922        TOTAL FREE ENERGY PREDICTED BY IDOCK:   -0.64 KCAL/MOL
REMARK 923 INTER-LIGAND FREE ENERGY PREDICTED BY IDOCK:   -3.24 KCAL/MOL
REMARK 924 INTRA-LIGAND FREE ENERGY PREDICTED BY IDOCK:    2.60 KCAL/MOL
REMARK 927      BINDING AFFINITY PREDICTED BY RF-SCORE:    0.00 PKD
ROOT
HETATM    1  C   UNL     1     -10.758  16.449  67.310  1.00  0.00    -0.257 C  
HETATM    2  C   UNL     1     -10.770  17.450  68.461  1.00  0.00    -0.279 C  
ENDROOT
BRANCH   2   3
HETATM    3  C   UNL     1      -9.806  17.019  69.561  1.00  0.00     0.084 C  
BRANCH   3   4
HETATM    4  C   UNL     1      -8.396  16.703  69.048  1.00  0.00    -0.182 C  
BRANCH   4   5
HETATM    5  C   UNL     1      -8.471  15.479  68.137  1.00  0.00    -0.147 C  
BRANCH   5   6
HETATM    6  O   UNL     1      -9.568  14.605  68.431  1.00  0.00    -0.204 OA 
BRANCH   6   7
HETATM    7  C   UNL     1      -9.240  13.290  68.366  1.00  0.00    -0.145 C  
HETATM    8  O   UNL     1     -10.042  12.382  68.508  1.00  0.00    -0.221 OA 
HETATM    9  N   UNL     1      -7.890  13.177  68.151  1.00  0.00    -0.134 N  
HETATM   10  H   UNL     1      -7.315  13.993  68.361  1.00  0.00     0.000 HD 
BRANCH   9  11
HETATM   11  C   UNL     1      -7.247  12.059  67.677  1.00  0.00    -0.117 C  
HETATM   12  N   UNL     1      -6.590  12.065  66.572  1.00  0.00    -0.323 N  
HETATM   13  C   UNL     1      -6.025  10.889  66.130  1.00  0.00    -0.141 C  
HETATM   14  H   UNL     1      -6.488  12.924  66.033  1.00  0.00     0.000 HD 
HETATM   15  N   UNL     1      -6.536   9.693  66.674  1.00  0.00    -0.070 N  
HETATM   16  O   UNL     1      -5.138  10.911  65.285  1.00  0.00    -0.134 OA 
HETATM   17  F   UNL     1      -7.921  11.002  69.762  1.00  0.00    -0.050 F  
HETATM   18  C   UNL     1      -7.065   9.721  67.959  1.00  0.00    -0.079 C  
HETATM   19  C   UNL     1      -7.386  10.879  68.535  1.00  0.00    -0.098 C  
BRANCH  15  20
HETATM   20  C   UNL     1      -6.219   8.411  66.028  1.00  0.00    -0.052 C  
HETATM   21  C   UNL     1      -7.434   8.249  64.026  1.00  0.00    -0.110 C  
HETATM   22  O   UNL     1      -6.158   8.551  64.595  1.00  0.00    -0.063 OA 
HETATM   23  C   UNL     1      -8.281   9.514  63.935  1.00  0.00    -0.161 C  
HETATM   24  C   UNL     1      -8.023   7.166  64.922  1.00  0.00    -0.127 C  
HETATM   25  O   UNL     1      -7.794   5.850  64.391  1.00  0.00    -0.099 OA 
HETATM   26  C   UNL     1      -7.273   7.302  66.253  1.00  0.00    -0.078 C  
HETATM   27  H   UNL     1      -8.161   5.174  64.949  1.00  0.00     0.000 HD 
HETATM   28  O   UNL     1      -6.627   6.079  66.640  1.00  0.00    -0.054 OA 
HETATM   29  H   UNL     1      -7.274   5.397  66.777  1.00  0.00     0.000 HD 
ENDBRANCH  15  20
ENDBRANCH   9  11
ENDBRANCH   6   7
ENDBRANCH   5   6
ENDBRANCH   4   5
ENDBRANCH   3   4
ENDBRANCH   2   3
TORSDOF 7
ENDMDL
MODEL      271
REMARK 921   NORMALIZED FREE ENERGY PREDICTED BY IDOCK:    0.43 KCAL/MOL
REMARK 922        TOTAL FREE ENERGY PREDICTED BY IDOCK:   -0.50 KCAL/MOL
REMARK 923 INTER-LIGAND FREE ENERGY PREDICTED BY IDOCK:   -1.96 KCAL/MOL
REMARK 924 INTRA-LIGAND FREE ENERGY PREDICTED BY IDOCK:    1.47 KCAL/MOL
REMARK 927      BINDING AFFINITY PREDICTED BY RF-SCORE:    0.00 PKD
ROOT
HETATM    1  C   UNL     1     -10.591   5.486  72.863  1.00  0.00    -0.268 C  
HETATM    2  C   UNL     1     -11.150   6.770  72.262  1.00  0.00    -0.286 C  
ENDROOT
BRANCH   2   3
HETATM    3  C   UNL     1     -10.931   6.801  70.753  1.00  0.00    -0.306 C  
BRANCH   3   4
HETATM    4  C   UNL     1     -10.583   5.431  70.159  1.00  0.00    -0.344 C  
BRANCH   4   5
HETATM    5  C   UNL     1     -10.599   5.542  68.636  1.00  0.00    -0.145 C  
BRANCH   5   6
HETATM    6  O   UNL     1     -11.687   6.320  68.123  1.00  0.00     0.310 OA 
BRANCH   6   7
HETATM    7  C   UNL     1     -11.288   7.458  67.500  1.00  0.00     0.473 C  
HETATM    8  O   UNL     1     -11.411   7.656  66.303  1.00  0.00     1.616 OA 
HETATM    9  N   UNL     1     -10.719   8.296  68.424  1.00  0.00    -0.424 N  
HETATM   10  H   UNL     1     -10.411   7.880  69.303  1.00  0.00     0.000 HD 
BRANCH   9  11
HETATM   11  C   UNL     1     -10.529   9.647  68.268  1.00  0.00    -0.219 C  
HETATM   12  N   UNL     1     -11.336  10.515  68.767  1.00  0.00    -0.356 N  
HETATM   13  C   UNL     1     -11.114  11.850  68.513  1.00  0.00    -0.243 C  
HETATM   14  H   UNL     1     -12.126  10.220  69.340  1.00  0.00     0.000 HD 
HETATM   15  N   UNL     1     -10.293  12.162  67.411  1.00  0.00    -0.204 N  
HETATM   16  O   UNL     1     -11.640  12.706  69.215  1.00  0.00    -0.285 OA 
HETATM   17  F   UNL     1      -8.445   9.049  67.164  1.00  0.00    -0.111 F  
HETATM   18  C   UNL     1      -9.307  11.254  67.041  1.00  0.00    -0.172 C  
HETATM   19  C   UNL     1      -9.340   9.998  67.484  1.00  0.00    -0.144 C  
BRANCH  15  20
HETATM   20  C   UNL     1     -10.272  13.535  66.889  1.00  0.00    -0.256 C  
HETATM   21  C   UNL     1      -8.933  14.860  68.290  1.00  0.00    -0.177 C  
HETATM   22  O   UNL     1      -8.973  14.137  67.057  1.00  0.00    -0.220 OA 
HETATM   23  C   UNL     1      -8.460  13.949  69.418  1.00  0.00     0.629 C  
HETATM   24  C   UNL     1     -10.343  15.407  68.477  1.00  0.00    -0.226 C  
HETATM   25  O   UNL     1     -10.456  16.764  68.016  1.00  0.00    -0.304 OA 
HETATM   26  C   UNL     1     -11.234  14.510  67.608  1.00  0.00    -0.322 C  
HETATM   27  H   UNL     1     -11.336  17.105  68.132  1.00  0.00     0.000 HD 
HETATM   28  O   UNL     1     -11.985  15.263  66.643  1.00  0.00     0.019 OA 
HETATM   29  H   UNL     1     -12.576  15.863  67.084  1.00  0.00     0.000 HD 
ENDBRANCH  15  20
ENDBRANCH   9  11
ENDBRANCH   6   7
ENDBRANCH   5   6
ENDBRANCH   4   5
ENDBRANCH   3   4
ENDBRANCH   2   3
TORSDOF 7
ENDMDL
MODEL      272
REMARK 921   NORMALIZED FREE ENERGY PREDICTED BY IDOCK:    1.23 KCAL/MOL
REMARK 922        TOTAL FREE ENERGY PREDICTED BY IDOCK:    0.63 KCAL/MOL
REMARK 923 INTER-LIGAND FREE ENERGY PREDICTED BY IDOCK:   -2.57 KCAL/MOL
REMARK 924 INTRA-LIGAND FREE ENERGY PREDICTED BY IDOCK:    3.20 KCAL/MOL
REMARK 927      BINDING AFFINITY PREDICTED BY RF-SCORE:    0.00 PKD
ROOT
HETATM    1  C   UNL     1      -5.990   8.664  70.509  1.00  0.00    -0.031 C  
HETATM    2  C   UNL     1      -6.860   7.718  71.327  1.00  0.00    -0.049 C  
ENDROOT
BRANCH   2   3
HETATM    3  C   UNL     1      -8.320   8.157  71.289  1.00  0.00    -0.140 C  
BRANCH   3   4
HETATM    4  C   UNL     1      -8.503   9.633  70.914  1.00  0.00     0.205 C  
BRANCH   4   5
HETATM    5  C   UNL     1      -8.100   9.818  69.453  1.00  0.00    -0.129 C  
BRANCH   5   6
HETATM    6  O   UNL     1      -9.210   9.892  68.550  1.00  0.00    -0.132 OA 
BRANCH   6   7
HETATM    7  C   UNL     1      -9.404   8.751  67.841  1.00  0.00    -0.142 C  
HETATM    8  O   UNL     1     -10.026   8.699  66.793  1.00  0.00    -0.223 OA 
HETATM    9  N   UNL     1      -8.819   7.706  68.509  1.00  0.00    -0.131 N  
HETATM   10  H   UNL     1      -8.612   7.843  69.498  1.00  0.00     0.000 HD 
BRANCH   9  11
HETATM   11  C   UNL     1      -8.489   6.491  67.960  1.00  0.00    -0.119 C  
HETATM   12  N   UNL     1      -7.472   6.342  67.188  1.00  0.00    -0.083 N  
HETATM   13  C   UNL     1      -7.241   5.107  66.624  1.00  0.00    -0.081 C  
HETATM   14  H   UNL     1      -6.847   7.125  66.996  1.00  0.00     0.000 HD 
HETATM   15  N   UNL     1      -8.329   4.212  66.585  1.00  0.00    -0.101 N  
HETATM   16  O   UNL     1      -6.138   4.836  66.165  1.00  0.00    -0.025 OA 
HETATM   17  F   UNL     1     -10.317   5.590  69.289  1.00  0.00    -0.241 F  
HETATM   18  C   UNL     1      -9.304   4.308  67.571  1.00  0.00    -0.162 C  
HETATM   19  C   UNL     1      -9.397   5.400  68.329  1.00  0.00    -0.114 C  
BRANCH  15  20
HETATM   20  C   UNL     1      -8.256   3.022  65.726  1.00  0.00    -0.088 C  
HETATM   21  C   UNL     1      -7.526   3.671  63.591  1.00  0.00    -0.059 C  
HETATM   22  O   UNL     1      -7.125   3.091  64.834  1.00  0.00    -0.055 OA 
HETATM   23  C   UNL     1      -7.357   5.185  63.637  1.00  0.00    -0.051 C  
HETATM   24  C   UNL     1      -8.964   3.208  63.382  1.00  0.00    -0.092 C  
HETATM   25  O   UNL     1      -9.035   2.047  62.537  1.00  0.00    -0.073 OA 
HETATM   26  C   UNL     1      -9.467   2.835  64.782  1.00  0.00    -0.128 C  
HETATM   27  H   UNL     1      -9.931   1.759  62.406  1.00  0.00     0.000 HD 
HETATM   28  O   UNL     1      -9.939   1.481  64.847  1.00  0.00    -0.329 OA 
HETATM   29  H   UNL     1     -10.683   1.366  64.267  1.00  0.00     0.000 HD 
ENDBRANCH  15  20
ENDBRANCH   9  11
ENDBRANCH   6   7
ENDBRANCH   5   6
ENDBRANCH   4   5
ENDBRANCH   3   4
ENDBRANCH   2   3
TORSDOF 7
ENDMDL
MODEL      273
REMARK 921   NORMALIZED FREE ENERGY PREDICTED BY IDOCK:    1.77 KCAL/MOL
REMARK 922        TOTAL FREE ENERGY PREDICTED BY IDOCK:    1.39 KCAL/MOL
REMARK 923 INTER-LIGAND FREE ENERGY PREDICTED BY IDOCK:   -2.33 KCAL/MOL
REMARK 924 INTRA-LIGAND FREE ENERGY PREDICTED BY IDOCK:    3.72 KCAL/MOL
REMARK 927      BINDING AFFINITY PREDICTED BY RF-SCORE:    0.00 PKD
ROOT
HETATM    1  C   UNL     1      -6.160  16.152  71.300  1.00  0.00     1.135 C  
HETATM    2  C   UNL     1      -5.127  17.269  71.402  1.00  0.00     0.032 C  
ENDROOT
BRANCH   2   3
HETATM    3  C   UNL     1      -5.744  18.612  71.029  1.00  0.00     0.022 C  
BRANCH   3   4
HETATM    4  C   UNL     1      -6.760  18.520  69.884  1.00  0.00     0.146 C  
BRANCH   4   5
HETATM    5  C   UNL     1      -6.262  19.375  68.720  1.00  0.00    -0.247 C  
BRANCH   5   6
HETATM    6  O   UNL     1      -5.623  18.624  67.681  1.00  0.00    -0.164 OA 
BRANCH   6   7
HETATM    7  C   UNL     1      -6.298  17.497  67.338  1.00  0.00    -0.145 C  
HETATM    8  O   UNL     1      -5.846  16.629  66.611  1.00  0.00    -0.320 OA 
HETATM    9  N   UNL     1      -7.542  17.530  67.915  1.00  0.00    -0.199 N  
HETATM   10  H   UNL     1      -7.885  18.437  68.230  1.00  0.00     0.000 HD 
BRANCH   9  11
HETATM   11  C   UNL     1      -8.364  16.446  68.104  1.00  0.00    -0.186 C  
HETATM   12  N   UNL     1      -8.896  16.182  69.244  1.00  0.00    -0.232 N  
HETATM   13  C   UNL     1      -9.658  15.042  69.372  1.00  0.00    -0.139 C  
HETATM   14  H   UNL     1      -8.757  16.804  70.039  1.00  0.00     0.000 HD 
HETATM   15  N   UNL     1      -9.473  14.040  68.399  1.00  0.00    -0.213 N  
HETATM   16  O   UNL     1     -10.434  14.922  70.313  1.00  0.00    -0.089 OA 
HETATM   17  F   UNL     1      -8.138  16.078  65.710  1.00  0.00    -0.139 F  
HETATM   18  C   UNL     1      -9.076  14.419  67.122  1.00  0.00    -0.227 C  
HETATM   19  C   UNL     1      -8.567  15.631  66.902  1.00  0.00    -0.248 C  
BRANCH  15  20
HETATM   20  C   UNL     1      -9.997  12.688  68.643  1.00  0.00    -0.097 C  
HETATM   21  C   UNL     1      -9.397  11.306  66.843  1.00  0.00    -0.177 C  
HETATM   22  O   UNL     1      -9.075  11.680  68.184  1.00  0.00    -0.170 OA 
HETATM   23  C   UNL     1      -8.646  12.190  65.854  1.00  0.00     0.365 C  
HETATM   24  C   UNL     1     -10.915  11.416  66.753  1.00  0.00    -0.291 C  
HETATM   25  O   UNL     1     -11.557  10.147  66.959  1.00  0.00    -0.092 OA 
HETATM   26  C   UNL     1     -11.310  12.364  67.892  1.00  0.00    -0.289 C  
HETATM   27  H   UNL     1     -12.503  10.215  66.903  1.00  0.00     0.000 HD 
HETATM   28  O   UNL     1     -12.258  11.767  68.791  1.00  0.00    -0.367 OA 
HETATM   29  H   UNL     1     -13.064  11.567  68.330  1.00  0.00     0.000 HD 
ENDBRANCH  15  20
ENDBRANCH   9  11
ENDBRANCH   6   7
ENDBRANCH   5   6
ENDBRANCH   4   5
ENDBRANCH   3   4
ENDBRANCH   2   3
TORSDOF 7
ENDMDL
MODEL      274
REMARK 921   NORMALIZED FREE ENERGY PREDICTED BY IDOCK:    2.21 KCAL/MOL
REMARK 922        TOTAL FREE ENERGY PREDICTED BY IDOCK:    2.02 KCAL/MOL
REMARK 923 INTER-LIGAND FREE ENERGY PREDICTED BY IDOCK:    0.35 KCAL/MOL
REMARK 924 INTRA-LIGAND FREE ENERGY PREDICTED BY IDOCK:    1.67 KCAL/MOL
REMARK 927      BINDING AFFINITY PREDICTED BY RF-SCORE:    0.00 PKD
ROOT
HETATM    1  C   UNL     1      -9.857  11.601  68.819  1.00  0.00    -0.129 C  
HETATM    2  C   UNL     1     -10.308  11.922  67.398  1.00  0.00    -0.228 C  
ENDROOT
BRANCH   2   3
HETATM    3  C   UNL     1     -10.638  13.404  67.259  1.00  0.00    -0.256 C  
BRANCH   3   4
HETATM    4  C   UNL     1     -10.407  13.951  65.845  1.00  0.00    -0.318 C  
BRANCH   4   5
HETATM    5  C   UNL     1      -8.916  13.859  65.524  1.00  0.00     1.137 C  
BRANCH   5   6
HETATM    6  O   UNL     1      -8.120  13.361  66.607  1.00  0.00     0.149 OA 
BRANCH   6   7
HETATM    7  C   UNL     1      -7.382  12.272  66.275  1.00  0.00     0.915 C  
HETATM    8  O   UNL     1      -6.212  12.124  66.584  1.00  0.00    -0.148 OA 
HETATM    9  N   UNL     1      -8.157  11.417  65.533  1.00  0.00    -0.339 N  
HETATM   10  H   UNL     1      -8.995  11.805  65.101  1.00  0.00     0.000 HD 
BRANCH   9  11
HETATM   11  C   UNL     1      -7.901  10.084  65.324  1.00  0.00    -0.138 C  
HETATM   12  N   UNL     1      -7.614   9.282  66.287  1.00  0.00    -0.096 N  
HETATM   13  C   UNL     1      -7.306   7.973  65.991  1.00  0.00    -0.073 C  
HETATM   14  H   UNL     1      -7.614   9.609  67.252  1.00  0.00     0.000 HD 
HETATM   15  N   UNL     1      -6.921   7.693  64.664  1.00  0.00    -0.051 N  
HETATM   16  O   UNL     1      -7.351   7.117  66.866  1.00  0.00    -0.084 OA 
HETATM   17  F   UNL     1      -8.472  10.520  62.999  1.00  0.00    -0.154 F  
HETATM   18  C   UNL     1      -7.425   8.492  63.644  1.00  0.00    -0.115 C  
HETATM   19  C   UNL     1      -7.979   9.673  63.918  1.00  0.00    -0.143 C  
BRANCH  15  20
HETATM   20  C   UNL     1      -6.277   6.409  64.353  1.00  0.00    -0.030 C  
HETATM   21  C   UNL     1      -7.916   4.896  63.622  1.00  0.00    -0.095 C  
HETATM   22  O   UNL     1      -6.882   5.789  63.201  1.00  0.00    -0.035 OA 
HETATM   23  C   UNL     1      -9.248   5.634  63.702  1.00  0.00     0.736 C  
HETATM   24  C   UNL     1      -7.435   4.328  64.952  1.00  0.00    -0.073 C  
HETATM   25  O   UNL     1      -6.793   3.052  64.788  1.00  0.00    -0.039 OA 
HETATM   26  C   UNL     1      -6.403   5.341  65.464  1.00  0.00    -0.035 C  
HETATM   27  H   UNL     1      -6.493   2.698  65.617  1.00  0.00     0.000 HD 
HETATM   28  O   UNL     1      -5.126   4.735  65.714  1.00  0.00    -0.008 OA 
HETATM   29  H   UNL     1      -5.203   4.079  66.397  1.00  0.00     0.000 HD 
ENDBRANCH  15  20
ENDBRANCH   9  11
ENDBRANCH   6   7
ENDBRANCH   5   6
ENDBRANCH   4   5
ENDBRANCH   3   4
ENDBRANCH   2   3
TORSDOF 7
ENDMDL
MODEL      275
REMARK 921   NORMALIZED FREE ENERGY PREDICTED BY IDOCK:    4.49 KCAL/MOL
REMARK 922        TOTAL FREE ENERGY PREDICTED BY IDOCK:    5.22 KCAL/MOL
REMARK 923 INTER-LIGAND FREE ENERGY PREDICTED BY IDOCK:   -4.29 KCAL/MOL
REMARK 924 INTRA-LIGAND FREE ENERGY PREDICTED BY IDOCK:    9.51 KCAL/MOL
REMARK 927      BINDING AFFINITY PREDICTED BY RF-SCORE:    0.00 PKD
ROOT
HETATM    1  C   UNL     1     -12.094  11.159  69.591  1.00  0.00    -0.406 C  
HETATM    2  C   UNL     1     -11.556   9.737  69.489  1.00  0.00     0.017 C  
ENDROOT
BRANCH   2   3
HETATM    3  C   UNL     1     -10.040   9.744  69.321  1.00  0.00    -0.207 C  
BRANCH   3   4
HETATM    4  C   UNL     1      -9.511   8.554  68.511  1.00  0.00    -0.146 C  
BRANCH   4   5
HETATM    5  C   UNL     1      -9.454   8.954  67.038  1.00  0.00    -0.166 C  
BRANCH   5   6
HETATM    6  O   UNL     1     -10.199  10.138  66.730  1.00  0.00    -0.212 OA 
BRANCH   6   7
HETATM    7  C   UNL     1      -9.815  11.219  67.454  1.00  0.00    -0.181 C  
HETATM    8  O   UNL     1      -9.268  11.149  68.542  1.00  0.00    -0.172 OA 
HETATM    9  N   UNL     1     -10.168  12.359  66.777  1.00  0.00    -0.218 N  
HETATM   10  H   UNL     1     -10.877  12.268  66.050  1.00  0.00     0.000 HD 
BRANCH   9  11
HETATM   11  C   UNL     1      -9.647  13.611  66.993  1.00  0.00    -0.251 C  
HETATM   12  N   UNL     1      -8.380  13.827  67.043  1.00  0.00    -0.379 N  
HETATM   13  C   UNL     1      -7.934  15.098  67.328  1.00  0.00    -0.205 C  
HETATM   14  H   UNL     1      -7.718  13.070  66.875  1.00  0.00     0.000 HD 
HETATM   15  N   UNL     1      -8.851  15.971  67.945  1.00  0.00    -0.180 N  
HETATM   16  O   UNL     1      -6.780  15.418  67.067  1.00  0.00    -0.261 OA 
HETATM   17  F   UNL     1     -11.949  14.393  66.908  1.00  0.00    -0.385 F  
HETATM   18  C   UNL     1     -10.207  15.796  67.694  1.00  0.00    -0.266 C  
HETATM   19  C   UNL     1     -10.658  14.659  67.166  1.00  0.00    -0.282 C  
BRANCH  15  20
HETATM   20  C   UNL     1      -8.364  17.213  68.564  1.00  0.00    -0.262 C  
HETATM   21  C   UNL     1      -7.000  18.343  67.024  1.00  0.00    -0.192 C  
HETATM   22  O   UNL     1      -8.306  18.285  67.603  1.00  0.00    -0.243 OA 
HETATM   23  C   UNL     1      -6.937  17.464  65.781  1.00  0.00     0.029 C  
HETATM   24  C   UNL     1      -6.052  17.919  68.140  1.00  0.00    -0.174 C  
HETATM   25  O   UNL     1      -5.488  19.052  68.822  1.00  0.00    -0.194 OA 
HETATM   26  C   UNL     1      -6.925  17.130  69.123  1.00  0.00    -0.224 C  
HETATM   27  H   UNL     1      -4.896  18.787  69.517  1.00  0.00     0.000 HD 
HETATM   28  O   UNL     1      -6.878  17.677  70.450  1.00  0.00     0.876 OA 
HETATM   29  H   UNL     1      -5.994  17.627  70.793  1.00  0.00     0.000 HD 
ENDBRANCH  15  20
ENDBRANCH   9  11
ENDBRANCH   6   7
ENDBRANCH   5   6
ENDBRANCH   4   5
ENDBRANCH   3   4
ENDBRANCH   2   3
TORSDOF 7
ENDMDL
MODEL      276
REMARK 921   NORMALIZED FREE ENERGY PREDICTED BY IDOCK:    5.54 KCAL/MOL
REMARK 922        TOTAL FREE ENERGY PREDICTED BY IDOCK:    6.71 KCAL/MOL
REMARK 923 INTER-LIGAND FREE ENERGY PREDICTED BY IDOCK:   -4.04 KCAL/MOL
REMARK 924 INTRA-LIGAND FREE ENERGY PREDICTED BY IDOCK:   10.74 KCAL/MOL
REMARK 927      BINDING AFFINITY PREDICTED BY RF-SCORE:    0.00 PKD
ROOT
HETATM    1  C   UNL     1     -11.936  11.642  69.392  1.00  0.00    -0.381 C  
HETATM    2  C   UNL     1     -11.409  10.214  69.314  1.00  0.00    -0.211 C  
ENDROOT
BRANCH   2   3
HETATM    3  C   UNL     1      -9.895  10.206  69.134  1.00  0.00    -0.225 C  
BRANCH   3   4
HETATM    4  C   UNL     1      -9.378   8.982  68.367  1.00  0.00    -0.143 C  
BRANCH   4   5
HETATM    5  C   UNL     1      -9.366   9.311  66.876  1.00  0.00    -0.151 C  
BRANCH   5   6
HETATM    6  O   UNL     1     -10.164  10.449  66.526  1.00  0.00    -0.218 OA 
BRANCH   6   7
HETATM    7  C   UNL     1      -9.833  11.570  67.216  1.00  0.00    -0.190 C  
HETATM    8  O   UNL     1      -9.297  11.560  68.312  1.00  0.00    -0.178 OA 
HETATM    9  N   UNL     1     -10.225  12.669  66.495  1.00  0.00    -0.239 N  
HETATM   10  H   UNL     1     -10.921  12.523  65.764  1.00  0.00     0.000 HD 
BRANCH   9  11
HETATM   11  C   UNL     1      -9.759  13.949  66.673  1.00  0.00    -0.289 C  
HETATM   12  N   UNL     1      -9.570  14.453  67.840  1.00  0.00    -0.214 N  
HETATM   13  C   UNL     1      -9.162  15.764  67.939  1.00  0.00    -0.191 C  
HETATM   14  H   UNL     1      -9.721  13.892  68.679  1.00  0.00     0.000 HD 
HETATM   15  N   UNL     1      -9.374  16.583  66.812  1.00  0.00    -0.231 N  
HETATM   16  O   UNL     1      -8.664  16.177  68.980  1.00  0.00    -0.235 OA 
HETATM   17  F   UNL     1      -9.542  14.019  64.251  1.00  0.00     0.160 F  
HETATM   18  C   UNL     1      -9.376  15.993  65.554  1.00  0.00     0.077 C  
HETATM   19  C   UNL     1      -9.508  14.674  65.423  1.00  0.00     0.173 C  
BRANCH  15  20
HETATM   20  C   UNL     1      -9.267  18.043  66.948  1.00  0.00    -0.269 C  
HETATM   21  C   UNL     1      -7.260  18.557  68.053  1.00  0.00    -0.245 C  
HETATM   22  O   UNL     1      -7.905  18.484  66.779  1.00  0.00    -0.227 OA 
HETATM   23  C   UNL     1      -6.600  17.224  68.386  1.00  0.00    -0.174 C  
HETATM   24  C   UNL     1      -8.354  18.975  69.029  1.00  0.00    -0.180 C  
HETATM   25  O   UNL     1      -8.349  20.393  69.264  1.00  0.00     0.525 OA 
HETATM   26  C   UNL     1      -9.668  18.590  68.338  1.00  0.00    -0.364 C  
HETATM   27  H   UNL     1      -9.031  20.653  69.873  1.00  0.00     0.000 HD 
HETATM   28  O   UNL     1     -10.553  19.712  68.190  1.00  0.00    -0.416 OA 
HETATM   29  H   UNL     1     -10.799  20.048  69.044  1.00  0.00     0.000 HD 
ENDBRANCH  15  20
ENDBRANCH   9  11
ENDBRANCH   6   7
ENDBRANCH   5   6
ENDBRANCH   4   5
ENDBRANCH   3   4
ENDBRANCH   2   3
TORSDOF 7
ENDMDL
MODEL      277
REMARK 921   NORMALIZED FREE ENERGY PREDICTED BY IDOCK:    6.89 KCAL/MOL
REMARK 922        TOTAL FREE ENERGY PREDICTED BY IDOCK:    8.61 KCAL/MOL
REMARK 923 INTER-LIGAND FREE ENERGY PREDICTED BY IDOCK:    0.51 KCAL/MOL
REMARK 924 INTRA-LIGAND FREE ENERGY PREDICTED BY IDOCK:    8.11 KCAL/MOL
REMARK 927      BINDING AFFINITY PREDICTED BY RF-SCORE:    0.00 PKD
ROOT
HETATM    1  C   UNL     1      -5.352   9.460  70.046  1.00  0.00    -0.032 C  
HETATM    2  C   UNL     1      -6.387   8.677  70.845  1.00  0.00    -0.044 C  
ENDROOT
BRANCH   2   3
HETATM    3  C   UNL     1      -7.714   9.427  70.892  1.00  0.00    -0.089 C  
BRANCH   3   4
HETATM    4  C   UNL     1      -7.556  10.951  70.848  1.00  0.00     2.770 C  
BRANCH   4   5
HETATM    5  C   UNL     1      -6.799  11.327  69.576  1.00  0.00    -0.115 C  
BRANCH   5   6
HETATM    6  O   UNL     1      -7.650  11.697  68.484  1.00  0.00    -0.114 OA 
BRANCH   6   7
HETATM    7  C   UNL     1      -7.896  10.677  67.624  1.00  0.00    -0.105 C  
HETATM    8  O   UNL     1      -7.837  10.782  66.410  1.00  0.00    -0.137 OA 
HETATM    9  N   UNL     1      -8.237   9.559  68.343  1.00  0.00    -0.112 N  
HETATM   10  H   UNL     1      -8.540   9.700  69.306  1.00  0.00     0.000 HD 
BRANCH   9  11
HETATM   11  C   UNL     1      -8.204   8.268  67.876  1.00  0.00    -0.128 C  
HETATM   12  N   UNL     1      -7.109   7.602  67.780  1.00  0.00    -0.083 N  
HETATM   13  C   UNL     1      -7.147   6.335  67.243  1.00  0.00    -0.073 C  
HETATM   14  H   UNL     1      -6.227   8.005  68.095  1.00  0.00     0.000 HD 
HETATM   15  N   UNL     1      -8.275   6.007  66.464  1.00  0.00    -0.106 N  
HETATM   16  O   UNL     1      -6.218   5.558  67.430  1.00  0.00    -0.029 OA 
HETATM   17  F   UNL     1     -10.631   8.416  67.809  1.00  0.00    -0.276 F  
HETATM   18  C   UNL     1      -9.484   6.632  66.750  1.00  0.00    -0.160 C  
HETATM   19  C   UNL     1      -9.517   7.734  67.499  1.00  0.00    -0.141 C  
BRANCH  15  20
HETATM   20  C   UNL     1      -8.241   4.814  65.606  1.00  0.00    -0.113 C  
HETATM   21  C   UNL     1      -6.004   4.298  65.113  1.00  0.00    -0.023 C  
HETATM   22  O   UNL     1      -7.124   3.966  65.938  1.00  0.00    -0.064 OA 
HETATM   23  C   UNL     1      -5.158   5.374  65.784  1.00  0.00    -0.009 C  
HETATM   24  C   UNL     1      -6.606   4.718  63.777  1.00  0.00    -0.041 C  
HETATM   25  O   UNL     1      -6.617   3.636  62.832  1.00  0.00    -0.028 OA 
HETATM   26  C   UNL     1      -8.053   5.111  64.100  1.00  0.00    -0.119 C  
HETATM   27  H   UNL     1      -6.992   3.897  61.998  1.00  0.00     0.000 HD 
HETATM   28  O   UNL     1      -9.004   4.363  63.327  1.00  0.00    -0.126 OA 
HETATM   29  H   UNL     1      -8.888   4.546  62.402  1.00  0.00     0.000 HD 
ENDBRANCH  15  20
ENDBRANCH   9  11
ENDBRANCH   6   7
ENDBRANCH   5   6
ENDBRANCH   4   5
ENDBRANCH   3   4
ENDBRANCH   2   3
TORSDOF 7
ENDMDL
MODEL      278
REMARK 921   NORMALIZED FREE ENERGY PREDICTED BY IDOCK:    9.05 KCAL/MOL
REMARK 922        TOTAL FREE ENERGY PREDICTED BY IDOCK:   11.65 KCAL/MOL
REMARK 923 INTER-LIGAND FREE ENERGY PREDICTED BY IDOCK:    0.12 KCAL/MOL
REMARK 924 INTRA-LIGAND FREE ENERGY PREDICTED BY IDOCK:   11.53 KCAL/MOL
REMARK 927      BINDING AFFINITY PREDICTED BY RF-SCORE:    0.00 PKD
ROOT
HETATM    1  C   UNL     1      -5.372   9.455  70.058  1.00  0.00    -0.032 C  
HETATM    2  C   UNL     1      -6.334   8.784  71.032  1.00  0.00    -0.053 C  
ENDROOT
BRANCH   2   3
HETATM    3  C   UNL     1      -7.618   9.594  71.169  1.00  0.00     0.315 C  
BRANCH   3   4
HETATM    4  C   UNL     1      -7.445  11.076  70.812  1.00  0.00     2.404 C  
BRANCH   4   5
HETATM    5  C   UNL     1      -7.075  11.181  69.334  1.00  0.00    -0.110 C  
BRANCH   5   6
HETATM    6  O   UNL     1      -8.181  11.499  68.480  1.00  0.00    -0.145 OA 
BRANCH   6   7
HETATM    7  C   UNL     1      -8.856  10.406  68.044  1.00  0.00    -0.130 C  
HETATM    8  O   UNL     1      -9.179  10.225  66.881  1.00  0.00    -0.148 OA 
HETATM    9  N   UNL     1      -9.123   9.590  69.114  1.00  0.00    -0.145 N  
HETATM   10  H   UNL     1      -9.070  10.008  70.042  1.00  0.00     0.000 HD 
BRANCH   9  11
HETATM   11  C   UNL     1      -9.455   8.260  69.041  1.00  0.00    -0.155 C  
HETATM   12  N   UNL     1      -9.383   7.479  70.060  1.00  0.00    -0.154 N  
HETATM   13  C   UNL     1      -9.671   6.143  69.894  1.00  0.00    -0.163 C  
HETATM   14  H   UNL     1      -9.116   7.842  70.974  1.00  0.00     0.000 HD 
HETATM   15  N   UNL     1      -9.620   5.638  68.579  1.00  0.00    -0.125 N  
HETATM   16  O   UNL     1      -9.932   5.444  70.866  1.00  0.00    -0.181 OA 
HETATM   17  F   UNL     1     -10.122   8.731  66.749  1.00  0.00    -0.258 F  
HETATM   18  C   UNL     1      -9.898   6.502  67.526  1.00  0.00    -0.124 C  
HETATM   19  C   UNL     1      -9.887   7.822  67.710  1.00  0.00    -0.161 C  
BRANCH  15  20
HETATM   20  C   UNL     1      -9.596   4.185  68.362  1.00  0.00    -0.125 C  
HETATM   21  C   UNL     1      -8.733   3.145  70.281  1.00  0.00    -0.069 C  
HETATM   22  O   UNL     1      -9.929   3.472  69.569  1.00  0.00     0.030 OA 
HETATM   23  C   UNL     1      -8.376   4.264  71.252  1.00  0.00    -0.089 C  
HETATM   24  C   UNL     1      -7.685   2.893  69.203  1.00  0.00    -0.046 C  
HETATM   25  O   UNL     1      -7.549   1.494  68.904  1.00  0.00    -0.042 OA 
HETATM   26  C   UNL     1      -8.214   3.619  67.960  1.00  0.00    -0.083 C  
HETATM   27  H   UNL     1      -6.896   1.337  68.233  1.00  0.00     0.000 HD 
HETATM   28  O   UNL     1      -8.350   2.737  66.834  1.00  0.00    -0.087 OA 
HETATM   29  H   UNL     1      -7.502   2.389  66.587  1.00  0.00     0.000 HD 
ENDBRANCH  15  20
ENDBRANCH   9  11
ENDBRANCH   6   7
ENDBRANCH   5   6
ENDBRANCH   4   5
ENDBRANCH   3   4
ENDBRANCH   2   3
TORSDOF 7
ENDMDL
MODEL      279
REMARK 921   NORMALIZED FREE ENERGY PREDICTED BY IDOCK:   10.12 KCAL/MOL
REMARK 922        TOTAL FREE ENERGY PREDICTED BY IDOCK:   13.17 KCAL/MOL
REMARK 923 INTER-LIGAND FREE ENERGY PREDICTED BY IDOCK:   11.38 KCAL/MOL
REMARK 924 INTRA-LIGAND FREE ENERGY PREDICTED BY IDOCK:    1.78 KCAL/MOL
REMARK 927      BINDING AFFINITY PREDICTED BY RF-SCORE:    0.00 PKD
ROOT
HETATM    1  C   UNL     1      -9.655  19.471  64.760  1.00  0.00     3.235 C  
HETATM    2  C   UNL     1     -10.859  20.226  65.310  1.00  0.00     0.190 C  
ENDROOT
BRANCH   2   3
HETATM    3  C   UNL     1     -10.506  20.929  66.616  1.00  0.00     0.906 C  
BRANCH   3   4
HETATM    4  C   UNL     1      -9.077  20.647  67.094  1.00  0.00    -0.401 C  
BRANCH   4   5
HETATM    5  C   UNL     1      -9.140  20.052  68.498  1.00  0.00    -0.056 C  
BRANCH   5   6
HETATM    6  O   UNL     1      -8.441  18.807  68.632  1.00  0.00    -0.338 OA 
BRANCH   6   7
HETATM    7  C   UNL     1      -8.710  17.930  67.632  1.00  0.00    -0.242 C  
HETATM    8  O   UNL     1      -8.231  18.007  66.513  1.00  0.00    -0.254 OA 
HETATM    9  N   UNL     1      -9.605  16.995  68.087  1.00  0.00    -0.258 N  
HETATM   10  H   UNL     1     -10.141  17.232  68.922  1.00  0.00     0.000 HD 
BRANCH   9  11
HETATM   11  C   UNL     1      -9.840  15.769  67.515  1.00  0.00    -0.229 C  
HETATM   12  N   UNL     1      -9.030  14.781  67.658  1.00  0.00    -0.177 N  
HETATM   13  C   UNL     1      -9.301  13.601  67.002  1.00  0.00    -0.248 C  
HETATM   14  H   UNL     1      -8.202  14.869  68.246  1.00  0.00     0.000 HD 
HETATM   15  N   UNL     1     -10.190  13.668  65.911  1.00  0.00    -0.304 N  
HETATM   16  O   UNL     1      -8.760  12.560  67.357  1.00  0.00    -0.171 OA 
HETATM   17  F   UNL     1     -11.965  16.708  66.793  1.00  0.00     0.894 F  
HETATM   18  C   UNL     1     -11.171  14.654  65.914  1.00  0.00    -0.336 C  
HETATM   19  C   UNL     1     -11.079  15.699  66.735  1.00  0.00    -0.169 C  
BRANCH  15  20
HETATM   20  C   UNL     1     -10.277  12.538  64.976  1.00  0.00    -0.279 C  
HETATM   21  C   UNL     1     -12.534  11.961  64.690  1.00  0.00     0.059 C  
HETATM   22  O   UNL     1     -11.427  12.659  64.116  1.00  0.00    -0.335 OA 
HETATM   23  C   UNL     1     -13.333  12.893  65.594  1.00  0.00     1.465 C  
HETATM   24  C   UNL     1     -11.920  10.766  65.410  1.00  0.00     2.410 C  
HETATM   25  O   UNL     1     -11.956   9.577  64.602  1.00  0.00     6.516 OA 
HETATM   26  C   UNL     1     -10.457  11.158  65.651  1.00  0.00    -0.248 C  
HETATM   27  H   UNL     1     -11.574   8.832  65.051  1.00  0.00     0.000 HD 
HETATM   28  O   UNL     1      -9.540  10.208  65.086  1.00  0.00    -0.245 OA 
HETATM   29  H   UNL     1      -9.651   9.361  65.501  1.00  0.00     0.000 HD 
ENDBRANCH  15  20
ENDBRANCH   9  11
ENDBRANCH   6   7
ENDBRANCH   5   6
ENDBRANCH   4   5
ENDBRANCH   3   4
ENDBRANCH   2   3
TORSDOF 7
ENDMDL
