MODEL        1
REMARK 921   NORMALIZED FREE ENERGY PREDICTED BY IDOCK:   -9.11 KCAL/MOL
REMARK 922        TOTAL FREE ENERGY PREDICTED BY IDOCK:  -11.90 KCAL/MOL
REMARK 923 INTER-LIGAND FREE ENERGY PREDICTED BY IDOCK:  -11.24 KCAL/MOL
REMARK 924 INTRA-LIGAND FREE ENERGY PREDICTED BY IDOCK:   -0.66 KCAL/MOL
REMARK 927      BINDING AFFINITY PREDICTED BY RF-SCORE:    0.00 PKD
ROOT
HETATM    1  C   UNL     1      -5.605  20.926  69.822  1.00  0.00    -0.273 C  
HETATM    2  N   UNL     1      -6.376  19.959  69.081  1.00  0.00    -0.301 N  
HETATM    3  C   UNL     1      -6.967  20.278  67.878  1.00  0.00    -0.290 C  
HETATM    4  H   UNL     1      -6.486  19.017  69.455  1.00  0.00     0.000 HD 
HETATM    5  O   UNL     1      -6.839  21.373  67.342  1.00  0.00    -0.573 OA 
ENDROOT
BRANCH   3   6
HETATM    6  C   UNL     1      -7.818  19.234  67.236  1.00  0.00    -0.279 A  
HETATM    7  C   UNL     1      -9.206  19.439  67.162  1.00  0.00    -0.375 A  
HETATM    8  C   UNL     1     -10.049  18.449  66.636  1.00  0.00    -0.399 A  
HETATM    9  C   UNL     1      -9.515  17.235  66.186  1.00  0.00    -0.204 A  
HETATM   10  C   UNL     1      -8.130  17.051  66.206  1.00  0.00    -0.332 A  
HETATM   11  F   UNL     1      -5.982  17.785  66.766  1.00  0.00    -0.144 F  
HETATM   12  C   UNL     1      -7.299  18.040  66.735  1.00  0.00    -0.204 A  
BRANCH   9  13
HETATM   13  C   UNL     1     -10.436  16.143  65.763  1.00  0.00    -0.367 C  
HETATM   14  N   UNL     1     -10.402  14.973  66.342  1.00  0.00    -0.278 NA 
HETATM   15  N   UNL     1     -11.264  14.072  65.771  1.00  0.00    -0.300 NA 
HETATM   16  C   UNL     1     -11.459  12.763  66.148  1.00  0.00    -0.351 A  
HETATM   17  C   UNL     1     -11.379  16.423  64.601  1.00  0.00    -0.161 C  
HETATM   18  C   UNL     1     -12.356  12.261  65.230  1.00  0.00    -0.152 A  
HETATM   19  N   UNL     1     -12.757  13.222  64.346  1.00  0.00    -0.667 NA 
HETATM   20  N   UNL     1     -12.178  15.540  64.102  1.00  0.00    -0.530 NA 
HETATM   21  C   UNL     1     -12.108  14.315  64.684  1.00  0.00    -0.463 A  
BRANCH  16  22
HETATM   22  C   UNL     1     -10.850  12.128  67.344  1.00  0.00    -0.286 C  
BRANCH  22  23
HETATM   23  C   UNL     1     -11.552  12.446  68.644  1.00  0.00    -0.365 A  
HETATM   24  C   UNL     1     -12.534  11.693  70.730  1.00  0.00    -0.425 A  
HETATM   25  C   UNL     1     -11.940  11.411  69.497  1.00  0.00    -0.409 A  
HETATM   26  C   UNL     1     -12.791  12.993  71.138  1.00  0.00    -0.245 A  
HETATM   27  N   UNL     1     -13.377  13.201  72.331  1.00  0.00    -0.532 NA 
HETATM   28  C   UNL     1     -13.658  14.473  72.685  1.00  0.00    -0.478 A  
HETATM   29  C   UNL     1     -13.378  15.571  71.895  1.00  0.00    -0.569 A  
HETATM   30  C   UNL     1     -12.748  15.353  70.674  1.00  0.00    -0.490 A  
HETATM   31  C   UNL     1     -12.440  14.046  70.268  1.00  0.00    -0.403 A  
HETATM   32  C   UNL     1     -11.811  13.767  69.036  1.00  0.00    -0.397 A  
ENDBRANCH  22  23
ENDBRANCH  16  22
ENDBRANCH   9  13
ENDBRANCH   3   6
TORSDOF 4
ENDMDL
MODEL        2
REMARK 921   NORMALIZED FREE ENERGY PREDICTED BY IDOCK:   -8.78 KCAL/MOL
REMARK 922        TOTAL FREE ENERGY PREDICTED BY IDOCK:  -11.49 KCAL/MOL
REMARK 923 INTER-LIGAND FREE ENERGY PREDICTED BY IDOCK:  -10.79 KCAL/MOL
REMARK 924 INTRA-LIGAND FREE ENERGY PREDICTED BY IDOCK:   -0.70 KCAL/MOL
REMARK 927      BINDING AFFINITY PREDICTED BY RF-SCORE:    0.00 PKD
ROOT
HETATM    1  C   UNL     1      -5.589  20.888  69.071  1.00  0.00    -0.365 C  
HETATM    2  N   UNL     1      -6.408  19.846  68.504  1.00  0.00    -0.265 N  
HETATM    3  C   UNL     1      -7.393  20.124  67.582  1.00  0.00    -0.293 C  
HETATM    4  H   UNL     1      -6.256  18.880  68.792  1.00  0.00     0.000 HD 
HETATM    5  O   UNL     1      -7.603  21.254  67.151  1.00  0.00    -0.371 OA 
ENDROOT
BRANCH   3   6
HETATM    6  C   UNL     1      -8.245  18.988  67.125  1.00  0.00    -0.286 A  
HETATM    7  C   UNL     1      -7.652  17.730  66.927  1.00  0.00    -0.238 A  
HETATM    8  C   UNL     1      -8.400  16.656  66.424  1.00  0.00    -0.353 A  
HETATM    9  C   UNL     1      -9.752  16.829  66.100  1.00  0.00    -0.315 A  
HETATM   10  C   UNL     1     -10.359  18.063  66.349  1.00  0.00    -0.382 A  
HETATM   11  F   UNL     1     -10.235  20.299  67.022  1.00  0.00    -0.527 F  
HETATM   12  C   UNL     1      -9.605  19.128  66.846  1.00  0.00    -0.325 A  
BRANCH   9  13
HETATM   13  C   UNL     1     -10.494  15.720  65.437  1.00  0.00    -0.414 C  
HETATM   14  N   UNL     1     -10.043  14.496  65.471  1.00  0.00    -0.352 NA 
HETATM   15  N   UNL     1     -10.813  13.625  64.744  1.00  0.00    -0.372 NA 
HETATM   16  C   UNL     1     -10.604  12.275  64.581  1.00  0.00    -0.303 A  
HETATM   17  C   UNL     1     -11.765  16.075  64.678  1.00  0.00    -0.073 C  
HETATM   18  C   UNL     1     -11.592  11.867  63.711  1.00  0.00    -0.462 A  
HETATM   19  N   UNL     1     -12.427  12.897  63.383  1.00  0.00    -0.725 NA 
HETATM   20  N   UNL     1     -12.459  15.216  64.010  1.00  0.00    -0.738 NA 
HETATM   21  C   UNL     1     -11.963  13.952  64.019  1.00  0.00    -0.387 A  
BRANCH  16  22
HETATM   22  C   UNL     1      -9.558  11.490  65.285  1.00  0.00    -0.244 C  
BRANCH  22  23
HETATM   23  C   UNL     1     -10.025  10.837  66.564  1.00  0.00    -0.260 A  
HETATM   24  C   UNL     1     -10.037   8.921  68.052  1.00  0.00    -0.239 A  
HETATM   25  C   UNL     1      -9.664   9.517  66.845  1.00  0.00    -0.237 A  
HETATM   26  C   UNL     1     -10.800   9.593  68.995  1.00  0.00    -0.183 A  
HETATM   27  N   UNL     1     -11.139   8.961  70.134  1.00  0.00    -0.231 NA 
HETATM   28  C   UNL     1     -11.920   9.621  71.015  1.00  0.00    -0.343 A  
HETATM   29  C   UNL     1     -12.389  10.905  70.816  1.00  0.00    -0.487 A  
HETATM   30  C   UNL     1     -12.015  11.563  69.650  1.00  0.00    -0.407 A  
HETATM   31  C   UNL     1     -11.205  10.913  68.707  1.00  0.00    -0.329 A  
HETATM   32  C   UNL     1     -10.803  11.530  67.503  1.00  0.00    -0.285 A  
ENDBRANCH  22  23
ENDBRANCH  16  22
ENDBRANCH   9  13
ENDBRANCH   3   6
TORSDOF 4
ENDMDL
MODEL        3
REMARK 921   NORMALIZED FREE ENERGY PREDICTED BY IDOCK:   -8.70 KCAL/MOL
REMARK 922        TOTAL FREE ENERGY PREDICTED BY IDOCK:  -11.39 KCAL/MOL
REMARK 923 INTER-LIGAND FREE ENERGY PREDICTED BY IDOCK:  -10.50 KCAL/MOL
REMARK 924 INTRA-LIGAND FREE ENERGY PREDICTED BY IDOCK:   -0.89 KCAL/MOL
REMARK 927      BINDING AFFINITY PREDICTED BY RF-SCORE:    0.00 PKD
ROOT
HETATM    1  C   UNL     1     -11.147   4.174  73.468  1.00  0.00    -0.270 C  
HETATM    2  N   UNL     1     -11.542   5.514  73.113  1.00  0.00    -0.531 N  
HETATM    3  C   UNL     1     -11.403   5.991  71.828  1.00  0.00    -0.265 C  
HETATM    4  H   UNL     1     -11.935   6.123  73.830  1.00  0.00     0.000 HD 
HETATM    5  O   UNL     1     -10.984   5.302  70.904  1.00  0.00    -0.126 OA 
ENDROOT
BRANCH   3   6
HETATM    6  C   UNL     1     -11.757   7.419  71.585  1.00  0.00    -0.311 A  
HETATM    7  C   UNL     1     -10.734   8.330  71.272  1.00  0.00    -0.276 A  
HETATM    8  C   UNL     1     -11.014   9.695  71.113  1.00  0.00    -0.430 A  
HETATM    9  C   UNL     1     -12.322  10.170  71.276  1.00  0.00    -0.501 A  
HETATM   10  C   UNL     1     -13.350   9.259  71.532  1.00  0.00    -0.436 A  
HETATM   11  F   UNL     1     -14.086   7.085  71.981  1.00  0.00    -0.411 F  
HETATM   12  C   UNL     1     -13.062   7.903  71.693  1.00  0.00    -0.332 A  
BRANCH   9  13
HETATM   13  C   UNL     1     -12.577  11.638  71.243  1.00  0.00    -0.320 C  
HETATM   14  N   UNL     1     -11.833  12.433  70.522  1.00  0.00    -0.193 NA 
HETATM   15  N   UNL     1     -12.165  13.754  70.674  1.00  0.00    -0.352 NA 
HETATM   16  C   UNL     1     -11.572  14.832  70.057  1.00  0.00    -0.286 A  
HETATM   17  C   UNL     1     -13.700  12.180  72.116  1.00  0.00    -0.047 C  
HETATM   18  C   UNL     1     -12.201  15.935  70.591  1.00  0.00    -0.309 A  
HETATM   19  N   UNL     1     -13.189  15.575  71.463  1.00  0.00    -0.489 NA 
HETATM   20  N   UNL     1     -13.977  13.437  72.222  1.00  0.00    -0.581 NA 
HETATM   21  C   UNL     1     -13.174  14.259  71.499  1.00  0.00    -0.348 A  
BRANCH  16  22
HETATM   22  C   UNL     1     -10.534  14.734  69.000  1.00  0.00    -0.249 C  
BRANCH  22  23
HETATM   23  C   UNL     1     -11.034  14.187  67.684  1.00  0.00    -0.278 A  
HETATM   24  C   UNL     1     -12.575  14.315  65.815  1.00  0.00    -0.405 A  
HETATM   25  C   UNL     1     -12.140  14.771  67.062  1.00  0.00    -0.120 A  
HETATM   26  C   UNL     1     -11.958  13.257  65.167  1.00  0.00    -0.381 A  
HETATM   27  N   UNL     1     -12.431  12.855  63.973  1.00  0.00    -0.638 NA 
HETATM   28  C   UNL     1     -11.842  11.793  63.384  1.00  0.00    -0.333 A  
HETATM   29  C   UNL     1     -10.782  11.098  63.934  1.00  0.00    -0.407 A  
HETATM   30  C   UNL     1     -10.280  11.533  65.155  1.00  0.00    -0.322 A  
HETATM   31  C   UNL     1     -10.865  12.632  65.802  1.00  0.00    -0.304 A  
HETATM   32  C   UNL     1     -10.402  13.110  67.046  1.00  0.00    -0.249 A  
ENDBRANCH  22  23
ENDBRANCH  16  22
ENDBRANCH   9  13
ENDBRANCH   3   6
TORSDOF 4
ENDMDL
MODEL        4
REMARK 921   NORMALIZED FREE ENERGY PREDICTED BY IDOCK:   -8.58 KCAL/MOL
REMARK 922        TOTAL FREE ENERGY PREDICTED BY IDOCK:  -11.25 KCAL/MOL
REMARK 923 INTER-LIGAND FREE ENERGY PREDICTED BY IDOCK:  -10.66 KCAL/MOL
REMARK 924 INTRA-LIGAND FREE ENERGY PREDICTED BY IDOCK:   -0.59 KCAL/MOL
REMARK 927      BINDING AFFINITY PREDICTED BY RF-SCORE:    0.00 PKD
ROOT
HETATM    1  C   UNL     1     -10.787   4.247  73.720  1.00  0.00    -0.277 C  
HETATM    2  N   UNL     1     -11.255   5.563  73.362  1.00  0.00    -0.472 N  
HETATM    3  C   UNL     1     -11.313   5.975  72.049  1.00  0.00    -0.290 C  
HETATM    4  H   UNL     1     -11.550   6.204  74.098  1.00  0.00     0.000 HD 
HETATM    5  O   UNL     1     -11.022   5.244  71.108  1.00  0.00    -0.131 OA 
ENDROOT
BRANCH   3   6
HETATM    6  C   UNL     1     -11.725   7.385  71.791  1.00  0.00    -0.319 A  
HETATM    7  C   UNL     1     -10.732   8.363  71.612  1.00  0.00    -0.333 A  
HETATM    8  C   UNL     1     -11.076   9.712  71.445  1.00  0.00    -0.397 A  
HETATM    9  C   UNL     1     -12.420  10.104  71.465  1.00  0.00    -0.526 A  
HETATM   10  C   UNL     1     -13.413   9.128  71.586  1.00  0.00    -0.452 A  
HETATM   11  F   UNL     1     -14.059   6.905  71.911  1.00  0.00    -0.438 F  
HETATM   12  C   UNL     1     -13.061   7.788  71.756  1.00  0.00    -0.322 A  
BRANCH   9  13
HETATM   13  C   UNL     1     -12.760  11.555  71.427  1.00  0.00    -0.364 C  
HETATM   14  N   UNL     1     -12.180  12.359  70.578  1.00  0.00    -0.349 NA 
HETATM   15  N   UNL     1     -12.559  13.667  70.739  1.00  0.00    -0.340 NA 
HETATM   16  C   UNL     1     -12.127  14.748  70.007  1.00  0.00    -0.329 A  
HETATM   17  C   UNL     1     -13.767  12.072  72.445  1.00  0.00     0.185 C  
HETATM   18  C   UNL     1     -12.730  15.838  70.597  1.00  0.00    -0.290 A  
HETATM   19  N   UNL     1     -13.553  15.461  71.620  1.00  0.00    -0.485 NA 
HETATM   20  N   UNL     1     -14.095  13.315  72.555  1.00  0.00    -0.701 NA 
HETATM   21  C   UNL     1     -13.459  14.150  71.693  1.00  0.00    -0.369 A  
BRANCH  16  22
HETATM   22  C   UNL     1     -11.256  14.664  68.807  1.00  0.00    -0.285 C  
BRANCH  22  23
HETATM   23  C   UNL     1     -10.403  15.888  68.569  1.00  0.00    -0.232 A  
HETATM   24  C   UNL     1      -8.267  17.019  68.764  1.00  0.00    -0.245 A  
HETATM   25  C   UNL     1      -9.086  15.919  69.031  1.00  0.00    -0.240 A  
HETATM   26  C   UNL     1      -8.730  18.125  68.070  1.00  0.00    -0.269 A  
HETATM   27  N   UNL     1      -7.897  19.160  67.855  1.00  0.00    -0.277 NA 
HETATM   28  C   UNL     1      -8.386  20.244  67.215  1.00  0.00    -0.347 A  
HETATM   29  C   UNL     1      -9.689  20.351  66.769  1.00  0.00    -0.528 A  
HETATM   30  C   UNL     1     -10.539  19.269  66.970  1.00  0.00    -0.571 A  
HETATM   31  C   UNL     1     -10.071  18.123  67.632  1.00  0.00    -0.367 A  
HETATM   32  C   UNL     1     -10.892  17.001  67.871  1.00  0.00    -0.302 A  
ENDBRANCH  22  23
ENDBRANCH  16  22
ENDBRANCH   9  13
ENDBRANCH   3   6
TORSDOF 4
ENDMDL
MODEL        5
REMARK 921   NORMALIZED FREE ENERGY PREDICTED BY IDOCK:   -8.55 KCAL/MOL
REMARK 922        TOTAL FREE ENERGY PREDICTED BY IDOCK:  -11.20 KCAL/MOL
REMARK 923 INTER-LIGAND FREE ENERGY PREDICTED BY IDOCK:  -10.47 KCAL/MOL
REMARK 924 INTRA-LIGAND FREE ENERGY PREDICTED BY IDOCK:   -0.73 KCAL/MOL
REMARK 927      BINDING AFFINITY PREDICTED BY RF-SCORE:    0.00 PKD
ROOT
HETATM    1  C   UNL     1     -12.660  15.804  74.082  1.00  0.00    -0.619 C  
HETATM    2  N   UNL     1     -12.278  15.256  72.805  1.00  0.00    -0.379 N  
HETATM    3  C   UNL     1     -13.017  14.266  72.195  1.00  0.00    -0.373 C  
HETATM    4  H   UNL     1     -11.442  15.609  72.341  1.00  0.00     0.000 HD 
HETATM    5  O   UNL     1     -14.060  13.826  72.667  1.00  0.00    -0.715 OA 
ENDROOT
BRANCH   3   6
HETATM    6  C   UNL     1     -12.487  13.704  70.919  1.00  0.00    -0.448 A  
HETATM    7  C   UNL     1     -12.194  14.578  69.859  1.00  0.00    -0.379 A  
HETATM    8  C   UNL     1     -11.769  14.083  68.618  1.00  0.00    -0.389 A  
HETATM    9  C   UNL     1     -11.641  12.704  68.416  1.00  0.00    -0.370 A  
HETATM   10  C   UNL     1     -11.877  11.834  69.484  1.00  0.00    -0.402 A  
HETATM   11  F   UNL     1     -12.556  11.446  71.688  1.00  0.00    -0.444 F  
HETATM   12  C   UNL     1     -12.304  12.335  70.715  1.00  0.00    -0.290 A  
BRANCH   9  13
HETATM   13  C   UNL     1     -11.324  12.189  67.054  1.00  0.00    -0.337 C  
HETATM   14  N   UNL     1     -10.438  11.247  66.881  1.00  0.00    -0.234 NA 
HETATM   15  N   UNL     1     -10.222  10.955  65.558  1.00  0.00    -0.264 NA 
HETATM   16  C   UNL     1      -9.353  10.018  65.050  1.00  0.00    -0.256 A  
HETATM   17  C   UNL     1     -12.033  12.836  65.872  1.00  0.00    -0.449 C  
HETATM   18  C   UNL     1      -9.442  10.159  63.682  1.00  0.00    -0.267 A  
HETATM   19  N   UNL     1     -10.368  11.102  63.335  1.00  0.00    -0.376 NA 
HETATM   20  N   UNL     1     -11.798  12.522  64.641  1.00  0.00    -0.359 NA 
HETATM   21  C   UNL     1     -10.847  11.569  64.468  1.00  0.00    -0.327 A  
BRANCH  16  22
HETATM   22  C   UNL     1      -8.578   9.052  65.868  1.00  0.00    -0.172 C  
BRANCH  22  23
HETATM   23  C   UNL     1      -9.383   8.357  66.941  1.00  0.00    -0.221 A  
HETATM   24  C   UNL     1     -10.884   6.570  67.603  1.00  0.00    -0.419 A  
HETATM   25  C   UNL     1     -10.182   7.260  66.611  1.00  0.00    -0.232 A  
HETATM   26  C   UNL     1     -10.845   6.960  68.933  1.00  0.00    -0.207 A  
HETATM   27  N   UNL     1     -11.552   6.263  69.841  1.00  0.00    -0.402 NA 
HETATM   28  C   UNL     1     -11.534   6.690  71.121  1.00  0.00    -0.320 A  
HETATM   29  C   UNL     1     -10.831   7.798  71.552  1.00  0.00    -0.260 A  
HETATM   30  C   UNL     1     -10.080   8.500  70.615  1.00  0.00    -0.225 A  
HETATM   31  C   UNL     1     -10.073   8.090  69.273  1.00  0.00    -0.198 A  
HETATM   32  C   UNL     1      -9.337   8.771  68.280  1.00  0.00    -0.143 A  
ENDBRANCH  22  23
ENDBRANCH  16  22
ENDBRANCH   9  13
ENDBRANCH   3   6
TORSDOF 4
ENDMDL
MODEL        6
REMARK 921   NORMALIZED FREE ENERGY PREDICTED BY IDOCK:   -8.44 KCAL/MOL
REMARK 922        TOTAL FREE ENERGY PREDICTED BY IDOCK:  -11.07 KCAL/MOL
REMARK 923 INTER-LIGAND FREE ENERGY PREDICTED BY IDOCK:  -11.05 KCAL/MOL
REMARK 924 INTRA-LIGAND FREE ENERGY PREDICTED BY IDOCK:   -0.02 KCAL/MOL
REMARK 927      BINDING AFFINITY PREDICTED BY RF-SCORE:    0.00 PKD
ROOT
HETATM    1  C   UNL     1     -11.073   4.135  73.694  1.00  0.00    -0.251 C  
HETATM    2  N   UNL     1     -11.458   5.453  73.256  1.00  0.00    -0.513 N  
HETATM    3  C   UNL     1     -11.251   5.872  71.960  1.00  0.00    -0.273 C  
HETATM    4  H   UNL     1     -11.895   6.091  73.921  1.00  0.00     0.000 HD 
HETATM    5  O   UNL     1     -10.776   5.146  71.093  1.00  0.00    -0.181 OA 
ENDROOT
BRANCH   3   6
HETATM    6  C   UNL     1     -11.602   7.284  71.632  1.00  0.00    -0.306 A  
HETATM    7  C   UNL     1     -10.568   8.200  71.373  1.00  0.00    -0.269 A  
HETATM    8  C   UNL     1     -10.851   9.553  71.137  1.00  0.00    -0.425 A  
HETATM    9  C   UNL     1     -12.174  10.012  71.168  1.00  0.00    -0.477 A  
HETATM   10  C   UNL     1     -13.209   9.094  71.369  1.00  0.00    -0.359 A  
HETATM   11  F   UNL     1     -13.951   6.927  71.837  1.00  0.00    -0.425 F  
HETATM   12  C   UNL     1     -12.917   7.750  71.607  1.00  0.00    -0.345 A  
BRANCH   9  13
HETATM   13  C   UNL     1     -12.445  11.473  71.056  1.00  0.00    -0.356 C  
HETATM   14  N   UNL     1     -11.971  12.169  70.058  1.00  0.00    -0.338 NA 
HETATM   15  N   UNL     1     -12.256  13.506  70.160  1.00  0.00    -0.340 NA 
HETATM   16  C   UNL     1     -11.897  14.498  69.276  1.00  0.00    -0.323 A  
HETATM   17  C   UNL     1     -13.249  12.130  72.169  1.00  0.00    -0.333 C  
HETATM   18  C   UNL     1     -12.343  15.666  69.855  1.00  0.00    -0.234 A  
HETATM   19  N   UNL     1     -13.007  15.423  71.023  1.00  0.00    -0.466 NA 
HETATM   20  N   UNL     1     -13.495  13.397  72.217  1.00  0.00    -0.551 NA 
HETATM   21  C   UNL     1     -12.966  14.119  71.197  1.00  0.00    -0.349 A  
BRANCH  16  22
HETATM   22  C   UNL     1     -11.236  14.264  67.967  1.00  0.00    -0.300 C  
BRANCH  22  23
HETATM   23  C   UNL     1     -10.395  15.420  67.478  1.00  0.00    -0.264 A  
HETATM   24  C   UNL     1      -8.391  16.233  66.380  1.00  0.00    -0.365 A  
HETATM   25  C   UNL     1      -9.151  15.178  66.892  1.00  0.00    -0.270 A  
HETATM   26  C   UNL     1      -8.818  17.549  66.462  1.00  0.00    -0.266 A  
HETATM   27  N   UNL     1      -8.036  18.524  65.962  1.00  0.00    -0.482 NA 
HETATM   28  C   UNL     1      -8.453  19.800  66.094  1.00  0.00    -0.341 A  
HETATM   29  C   UNL     1      -9.634  20.164  66.711  1.00  0.00    -0.559 A  
HETATM   30  C   UNL     1     -10.451  19.152  67.203  1.00  0.00    -0.539 A  
HETATM   31  C   UNL     1     -10.054  17.811  67.087  1.00  0.00    -0.338 A  
HETATM   32  C   UNL     1     -10.840  16.747  67.577  1.00  0.00    -0.216 A  
ENDBRANCH  22  23
ENDBRANCH  16  22
ENDBRANCH   9  13
ENDBRANCH   3   6
TORSDOF 4
ENDMDL
MODEL        7
REMARK 921   NORMALIZED FREE ENERGY PREDICTED BY IDOCK:   -8.39 KCAL/MOL
REMARK 922        TOTAL FREE ENERGY PREDICTED BY IDOCK:  -11.01 KCAL/MOL
REMARK 923 INTER-LIGAND FREE ENERGY PREDICTED BY IDOCK:  -10.48 KCAL/MOL
REMARK 924 INTRA-LIGAND FREE ENERGY PREDICTED BY IDOCK:   -0.53 KCAL/MOL
REMARK 927      BINDING AFFINITY PREDICTED BY RF-SCORE:    0.00 PKD
ROOT
HETATM    1  C   UNL     1     -10.536   7.150  73.387  1.00  0.00    -0.368 C  
HETATM    2  N   UNL     1     -10.606   8.167  72.368  1.00  0.00    -0.298 N  
HETATM    3  C   UNL     1     -11.801   8.758  72.019  1.00  0.00    -0.372 C  
HETATM    4  H   UNL     1      -9.751   8.457  71.893  1.00  0.00     0.000 HD 
HETATM    5  O   UNL     1     -12.861   8.497  72.578  1.00  0.00    -0.345 OA 
ENDROOT
BRANCH   3   6
HETATM    6  C   UNL     1     -11.779   9.733  70.891  1.00  0.00    -0.429 A  
HETATM    7  C   UNL     1     -11.103   9.391  69.708  1.00  0.00    -0.193 A  
HETATM    8  C   UNL     1     -10.993  10.309  68.654  1.00  0.00    -0.289 A  
HETATM    9  C   UNL     1     -11.550  11.588  68.773  1.00  0.00    -0.379 A  
HETATM   10  C   UNL     1     -12.272  11.912  69.924  1.00  0.00    -0.269 A  
HETATM   11  F   UNL     1     -13.042  11.380  72.067  1.00  0.00    -0.557 F  
HETATM   12  C   UNL     1     -12.373  10.994  70.970  1.00  0.00    -0.385 A  
BRANCH   9  13
HETATM   13  C   UNL     1     -11.304  12.596  67.703  1.00  0.00    -0.310 C  
HETATM   14  N   UNL     1     -11.177  13.864  67.991  1.00  0.00    -0.260 NA 
HETATM   15  N   UNL     1     -11.033  14.650  66.877  1.00  0.00    -0.316 NA 
HETATM   16  C   UNL     1     -10.881  16.017  66.845  1.00  0.00    -0.203 A  
HETATM   17  C   UNL     1     -11.256  12.103  66.264  1.00  0.00    -0.334 C  
HETATM   18  C   UNL     1     -10.857  16.338  65.506  1.00  0.00    -0.245 A  
HETATM   19  N   UNL     1     -10.929  15.222  64.722  1.00  0.00    -0.410 NA 
HETATM   20  N   UNL     1     -11.113  12.885  65.247  1.00  0.00    -0.280 NA 
HETATM   21  C   UNL     1     -11.021  14.205  65.552  1.00  0.00    -0.310 A  
BRANCH  16  22
HETATM   22  C   UNL     1     -10.716  16.878  68.044  1.00  0.00    -0.364 C  
BRANCH  22  23
HETATM   23  C   UNL     1      -9.754  18.028  67.857  1.00  0.00    -0.297 A  
HETATM   24  C   UNL     1      -9.343  20.325  67.194  1.00  0.00    -0.536 A  
HETATM   25  C   UNL     1     -10.206  19.233  67.315  1.00  0.00    -0.512 A  
HETATM   26  C   UNL     1      -8.010  20.249  67.569  1.00  0.00    -0.311 A  
HETATM   27  N   UNL     1      -7.224  21.330  67.417  1.00  0.00    -0.498 NA 
HETATM   28  C   UNL     1      -5.921  21.217  67.747  1.00  0.00    -0.355 A  
HETATM   29  C   UNL     1      -5.348  20.057  68.233  1.00  0.00    -0.224 A  
HETATM   30  C   UNL     1      -6.170  18.950  68.414  1.00  0.00    -0.236 A  
HETATM   31  C   UNL     1      -7.531  19.025  68.081  1.00  0.00    -0.306 A  
HETATM   32  C   UNL     1      -8.407  17.930  68.235  1.00  0.00    -0.286 A  
ENDBRANCH  22  23
ENDBRANCH  16  22
ENDBRANCH   9  13
ENDBRANCH   3   6
TORSDOF 4
ENDMDL
MODEL        8
REMARK 921   NORMALIZED FREE ENERGY PREDICTED BY IDOCK:   -8.30 KCAL/MOL
REMARK 922        TOTAL FREE ENERGY PREDICTED BY IDOCK:  -10.90 KCAL/MOL
REMARK 923 INTER-LIGAND FREE ENERGY PREDICTED BY IDOCK:  -10.47 KCAL/MOL
REMARK 924 INTRA-LIGAND FREE ENERGY PREDICTED BY IDOCK:   -0.42 KCAL/MOL
REMARK 927      BINDING AFFINITY PREDICTED BY RF-SCORE:    0.00 PKD
ROOT
HETATM    1  C   UNL     1     -10.607   4.879  66.045  1.00  0.00    -0.261 C  
HETATM    2  N   UNL     1     -10.884   6.154  66.658  1.00  0.00    -0.612 N  
HETATM    3  C   UNL     1      -9.933   6.822  67.396  1.00  0.00    -0.148 C  
HETATM    4  H   UNL     1     -11.807   6.572  66.542  1.00  0.00     0.000 HD 
HETATM    5  O   UNL     1      -8.788   6.406  67.539  1.00  0.00    -0.113 OA 
ENDROOT
BRANCH   3   6
HETATM    6  C   UNL     1     -10.348   8.090  68.064  1.00  0.00    -0.262 A  
HETATM    7  C   UNL     1     -10.544   8.094  69.455  1.00  0.00    -0.206 A  
HETATM    8  C   UNL     1     -11.009   9.243  70.109  1.00  0.00    -0.278 A  
HETATM    9  C   UNL     1     -11.297  10.403  69.379  1.00  0.00    -0.310 A  
HETATM   10  C   UNL     1     -11.050  10.420  68.003  1.00  0.00    -0.359 A  
HETATM   11  F   UNL     1     -10.415   9.337  66.031  1.00  0.00    -0.312 F  
HETATM   12  C   UNL     1     -10.591   9.270  67.359  1.00  0.00    -0.255 A  
BRANCH   9  13
HETATM   13  C   UNL     1     -11.922  11.567  70.068  1.00  0.00    -0.357 C  
HETATM   14  N   UNL     1     -11.663  12.790  69.691  1.00  0.00    -0.312 NA 
HETATM   15  N   UNL     1     -12.265  13.731  70.487  1.00  0.00    -0.353 NA 
HETATM   16  C   UNL     1     -12.185  15.098  70.354  1.00  0.00    -0.344 A  
HETATM   17  C   UNL     1     -12.831  11.281  71.255  1.00  0.00    -0.389 C  
HETATM   18  C   UNL     1     -12.889  15.598  71.428  1.00  0.00    -0.482 A  
HETATM   19  N   UNL     1     -13.440  14.597  72.176  1.00  0.00    -0.360 NA 
HETATM   20  N   UNL     1     -13.380  12.204  71.972  1.00  0.00    -0.467 NA 
HETATM   21  C   UNL     1     -13.074  13.473  71.597  1.00  0.00    -0.374 A  
BRANCH  16  22
HETATM   22  C   UNL     1     -11.524  15.801  69.225  1.00  0.00    -0.368 C  
BRANCH  22  23
HETATM   23  C   UNL     1     -11.172  14.910  68.057  1.00  0.00    -0.318 A  
HETATM   24  C   UNL     1      -9.517  13.644  66.816  1.00  0.00    -0.275 A  
HETATM   25  C   UNL     1      -9.847  14.517  67.856  1.00  0.00    -0.222 A  
HETATM   26  C   UNL     1     -10.470  13.165  65.932  1.00  0.00    -0.280 A  
HETATM   27  N   UNL     1     -10.088  12.336  64.942  1.00  0.00    -0.271 NA 
HETATM   28  C   UNL     1     -11.028  11.920  64.067  1.00  0.00    -0.381 A  
HETATM   29  C   UNL     1     -12.357  12.293  64.130  1.00  0.00    -0.546 A  
HETATM   30  C   UNL     1     -12.752  13.129  65.170  1.00  0.00    -0.468 A  
HETATM   31  C   UNL     1     -11.806  13.585  66.100  1.00  0.00    -0.426 A  
HETATM   32  C   UNL     1     -12.150  14.441  67.168  1.00  0.00    -0.367 A  
ENDBRANCH  22  23
ENDBRANCH  16  22
ENDBRANCH   9  13
ENDBRANCH   3   6
TORSDOF 4
ENDMDL
MODEL        9
REMARK 921   NORMALIZED FREE ENERGY PREDICTED BY IDOCK:   -8.29 KCAL/MOL
REMARK 922        TOTAL FREE ENERGY PREDICTED BY IDOCK:  -10.89 KCAL/MOL
REMARK 923 INTER-LIGAND FREE ENERGY PREDICTED BY IDOCK:  -10.47 KCAL/MOL
REMARK 924 INTRA-LIGAND FREE ENERGY PREDICTED BY IDOCK:   -0.43 KCAL/MOL
REMARK 927      BINDING AFFINITY PREDICTED BY RF-SCORE:    0.00 PKD
ROOT
HETATM    1  C   UNL     1      -9.908   3.890  70.973  1.00  0.00    -0.149 C  
HETATM    2  N   UNL     1     -10.312   5.270  70.880  1.00  0.00    -0.237 N  
HETATM    3  C   UNL     1     -11.095   5.860  71.848  1.00  0.00    -0.268 C  
HETATM    4  H   UNL     1     -10.011   5.824  70.078  1.00  0.00     0.000 HD 
HETATM    5  O   UNL     1     -11.454   5.272  72.863  1.00  0.00    -0.307 OA 
ENDROOT
BRANCH   3   6
HETATM    6  C   UNL     1     -11.533   7.266  71.613  1.00  0.00    -0.297 A  
HETATM    7  C   UNL     1     -10.562   8.246  71.346  1.00  0.00    -0.279 A  
HETATM    8  C   UNL     1     -10.925   9.592  71.197  1.00  0.00    -0.438 A  
HETATM    9  C   UNL     1     -12.265   9.979  71.323  1.00  0.00    -0.498 A  
HETATM   10  C   UNL     1     -13.240   9.000  71.532  1.00  0.00    -0.388 A  
HETATM   11  F   UNL     1     -13.847   6.776  71.926  1.00  0.00    -0.406 F  
HETATM   12  C   UNL     1     -12.869   7.663  71.684  1.00  0.00    -0.349 A  
BRANCH   9  13
HETATM   13  C   UNL     1     -12.614  11.428  71.302  1.00  0.00    -0.374 C  
HETATM   14  N   UNL     1     -12.017  12.250  70.482  1.00  0.00    -0.292 NA 
HETATM   15  N   UNL     1     -12.410  13.553  70.656  1.00  0.00    -0.360 NA 
HETATM   16  C   UNL     1     -11.967  14.650  69.953  1.00  0.00    -0.329 A  
HETATM   17  C   UNL     1     -13.650  11.920  72.302  1.00  0.00    -0.004 C  
HETATM   18  C   UNL     1     -12.592  15.724  70.547  1.00  0.00    -0.295 A  
HETATM   19  N   UNL     1     -13.438  15.325  71.542  1.00  0.00    -0.453 NA 
HETATM   20  N   UNL     1     -13.990  13.160  72.425  1.00  0.00    -0.626 NA 
HETATM   21  C   UNL     1     -13.337  14.014  71.595  1.00  0.00    -0.367 A  
BRANCH  16  22
HETATM   22  C   UNL     1     -11.065  14.592  68.775  1.00  0.00    -0.267 C  
BRANCH  22  23
HETATM   23  C   UNL     1     -10.255  15.846  68.549  1.00  0.00    -0.226 A  
HETATM   24  C   UNL     1      -8.119  16.994  68.595  1.00  0.00    -0.254 A  
HETATM   25  C   UNL     1      -8.893  15.861  68.857  1.00  0.00    -0.225 A  
HETATM   26  C   UNL     1      -8.668  18.148  68.058  1.00  0.00    -0.269 A  
HETATM   27  N   UNL     1      -7.873  19.211  67.839  1.00  0.00    -0.277 NA 
HETATM   28  C   UNL     1      -8.441  20.337  67.358  1.00  0.00    -0.339 A  
HETATM   29  C   UNL     1      -9.788  20.459  67.075  1.00  0.00    -0.594 A  
HETATM   30  C   UNL     1     -10.601  19.349  67.277  1.00  0.00    -0.599 A  
HETATM   31  C   UNL     1     -10.050  18.160  67.778  1.00  0.00    -0.371 A  
HETATM   32  C   UNL     1     -10.830  17.007  68.011  1.00  0.00    -0.330 A  
ENDBRANCH  22  23
ENDBRANCH  16  22
ENDBRANCH   9  13
ENDBRANCH   3   6
TORSDOF 4
ENDMDL
MODEL       10
REMARK 921   NORMALIZED FREE ENERGY PREDICTED BY IDOCK:   -8.24 KCAL/MOL
REMARK 922        TOTAL FREE ENERGY PREDICTED BY IDOCK:  -10.82 KCAL/MOL
REMARK 923 INTER-LIGAND FREE ENERGY PREDICTED BY IDOCK:   -9.93 KCAL/MOL
REMARK 924 INTRA-LIGAND FREE ENERGY PREDICTED BY IDOCK:   -0.89 KCAL/MOL
REMARK 927      BINDING AFFINITY PREDICTED BY RF-SCORE:    0.00 PKD
ROOT
HETATM    1  C   UNL     1     -10.340   6.110  74.448  1.00  0.00    -0.261 C  
HETATM    2  N   UNL     1     -10.669   7.214  73.581  1.00  0.00    -0.506 N  
HETATM    3  C   UNL     1     -11.481   7.049  72.481  1.00  0.00    -0.237 C  
HETATM    4  H   UNL     1     -10.292   8.139  73.787  1.00  0.00     0.000 HD 
HETATM    5  O   UNL     1     -12.010   5.979  72.197  1.00  0.00    -0.309 OA 
ENDROOT
BRANCH   3   6
HETATM    6  C   UNL     1     -11.687   8.233  71.597  1.00  0.00    -0.341 A  
HETATM    7  C   UNL     1     -10.865   8.392  70.470  1.00  0.00    -0.250 A  
HETATM    8  C   UNL     1     -10.974   9.530  69.658  1.00  0.00    -0.233 A  
HETATM    9  C   UNL     1     -11.901  10.533  69.970  1.00  0.00    -0.388 A  
HETATM   10  C   UNL     1     -12.759  10.352  71.058  1.00  0.00    -0.490 A  
HETATM   11  F   UNL     1     -13.464   9.122  72.918  1.00  0.00    -0.488 F  
HETATM   12  C   UNL     1     -12.641   9.217  71.863  1.00  0.00    -0.390 A  
BRANCH   9  13
HETATM   13  C   UNL     1     -11.907  11.797  69.181  1.00  0.00    -0.326 C  
HETATM   14  N   UNL     1     -11.963  11.774  67.876  1.00  0.00    -0.597 NA 
HETATM   15  N   UNL     1     -11.880  13.024  67.319  1.00  0.00    -0.372 NA 
HETATM   16  C   UNL     1     -11.908  13.334  65.978  1.00  0.00    -0.395 A  
HETATM   17  C   UNL     1     -11.794  13.108  69.945  1.00  0.00    -0.308 C  
HETATM   18  C   UNL     1     -11.716  14.697  65.928  1.00  0.00    -0.301 A  
HETATM   19  N   UNL     1     -11.630  15.238  67.179  1.00  0.00    -0.204 NA 
HETATM   20  N   UNL     1     -11.724  14.263  69.372  1.00  0.00    -0.295 NA 
HETATM   21  C   UNL     1     -11.744  14.228  68.015  1.00  0.00    -0.351 A  
BRANCH  16  22
HETATM   22  C   UNL     1     -12.166  12.358  64.890  1.00  0.00    -0.485 C  
BRANCH  22  23
HETATM   23  C   UNL     1     -10.937  11.625  64.405  1.00  0.00    -0.399 A  
HETATM   24  C   UNL     1      -9.118  11.413  62.815  1.00  0.00    -0.266 A  
HETATM   25  C   UNL     1     -10.291  12.043  63.240  1.00  0.00    -0.398 A  
HETATM   26  C   UNL     1      -8.574  10.339  63.502  1.00  0.00    -0.195 A  
HETATM   27  N   UNL     1      -7.449   9.766  63.035  1.00  0.00    -0.120 NA 
HETATM   28  C   UNL     1      -6.965   8.693  63.697  1.00  0.00    -0.088 A  
HETATM   29  C   UNL     1      -7.554   8.154  64.823  1.00  0.00    -0.101 A  
HETATM   30  C   UNL     1      -8.701   8.765  65.317  1.00  0.00    -0.216 A  
HETATM   31  C   UNL     1      -9.239   9.881  64.658  1.00  0.00    -0.313 A  
HETATM   32  C   UNL     1     -10.405  10.535  65.110  1.00  0.00    -0.310 A  
ENDBRANCH  22  23
ENDBRANCH  16  22
ENDBRANCH   9  13
ENDBRANCH   3   6
TORSDOF 4
ENDMDL
MODEL       11
REMARK 921   NORMALIZED FREE ENERGY PREDICTED BY IDOCK:   -8.04 KCAL/MOL
REMARK 922        TOTAL FREE ENERGY PREDICTED BY IDOCK:  -10.58 KCAL/MOL
REMARK 923 INTER-LIGAND FREE ENERGY PREDICTED BY IDOCK:   -9.91 KCAL/MOL
REMARK 924 INTRA-LIGAND FREE ENERGY PREDICTED BY IDOCK:   -0.67 KCAL/MOL
REMARK 927      BINDING AFFINITY PREDICTED BY RF-SCORE:    0.00 PKD
ROOT
HETATM    1  C   UNL     1     -12.236  15.403  73.976  1.00  0.00    -0.630 C  
HETATM    2  N   UNL     1     -12.055  14.888  72.641  1.00  0.00    -0.303 N  
HETATM    3  C   UNL     1     -12.921  13.963  72.101  1.00  0.00    -0.350 C  
HETATM    4  H   UNL     1     -11.267  15.216  72.084  1.00  0.00     0.000 HD 
HETATM    5  O   UNL     1     -13.917  13.559  72.692  1.00  0.00    -0.752 OA 
ENDROOT
BRANCH   3   6
HETATM    6  C   UNL     1     -12.595  13.426  70.749  1.00  0.00    -0.369 A  
HETATM    7  C   UNL     1     -12.459  12.037  70.582  1.00  0.00    -0.335 A  
HETATM    8  C   UNL     1     -12.077  11.498  69.346  1.00  0.00    -0.345 A  
HETATM    9  C   UNL     1     -11.813  12.341  68.260  1.00  0.00    -0.367 A  
HETATM   10  C   UNL     1     -12.001  13.718  68.406  1.00  0.00    -0.395 A  
HETATM   11  F   UNL     1     -12.500  15.580  69.729  1.00  0.00    -0.358 F  
HETATM   12  C   UNL     1     -12.378  14.247  69.642  1.00  0.00    -0.266 A  
BRANCH   9  13
HETATM   13  C   UNL     1     -11.272  11.763  66.998  1.00  0.00    -0.322 C  
HETATM   14  N   UNL     1     -10.391  10.799  67.023  1.00  0.00    -0.217 NA 
HETATM   15  N   UNL     1      -9.952  10.447  65.773  1.00  0.00    -0.255 NA 
HETATM   16  C   UNL     1      -9.029   9.475  65.465  1.00  0.00    -0.194 A  
HETATM   17  C   UNL     1     -11.745  12.368  65.683  1.00  0.00    -0.414 C  
HETATM   18  C   UNL     1      -8.871   9.557  64.099  1.00  0.00    -0.211 A  
HETATM   19  N   UNL     1      -9.699  10.498  63.555  1.00  0.00    -0.320 NA 
HETATM   20  N   UNL     1     -11.303  11.998  64.528  1.00  0.00    -0.328 NA 
HETATM   21  C   UNL     1     -10.359  11.022  64.566  1.00  0.00    -0.354 A  
BRANCH  16  22
HETATM   22  C   UNL     1      -8.434   8.533  66.447  1.00  0.00    -0.122 C  
BRANCH  22  23
HETATM   23  C   UNL     1      -9.377   8.097  67.543  1.00  0.00    -0.165 A  
HETATM   24  C   UNL     1     -11.127   6.613  68.332  1.00  0.00    -0.281 A  
HETATM   25  C   UNL     1     -10.291   7.068  67.308  1.00  0.00    -0.331 A  
HETATM   26  C   UNL     1     -11.109   7.180  69.596  1.00  0.00    -0.179 A  
HETATM   27  N   UNL     1     -11.947   6.708  70.537  1.00  0.00    -0.383 NA 
HETATM   28  C   UNL     1     -11.943   7.307  71.747  1.00  0.00    -0.307 A  
HETATM   29  C   UNL     1     -11.128   8.373  72.074  1.00  0.00    -0.397 A  
HETATM   30  C   UNL     1     -10.246   8.841  71.107  1.00  0.00    -0.316 A  
HETATM   31  C   UNL     1     -10.219   8.248  69.836  1.00  0.00    -0.201 A  
HETATM   32  C   UNL     1      -9.351   8.688  68.815  1.00  0.00    -0.142 A  
ENDBRANCH  22  23
ENDBRANCH  16  22
ENDBRANCH   9  13
ENDBRANCH   3   6
TORSDOF 4
ENDMDL
MODEL       12
REMARK 921   NORMALIZED FREE ENERGY PREDICTED BY IDOCK:   -7.89 KCAL/MOL
REMARK 922        TOTAL FREE ENERGY PREDICTED BY IDOCK:  -10.40 KCAL/MOL
REMARK 923 INTER-LIGAND FREE ENERGY PREDICTED BY IDOCK:  -10.20 KCAL/MOL
REMARK 924 INTRA-LIGAND FREE ENERGY PREDICTED BY IDOCK:   -0.19 KCAL/MOL
REMARK 927      BINDING AFFINITY PREDICTED BY RF-SCORE:    0.00 PKD
ROOT
HETATM    1  C   UNL     1     -12.447  15.942  74.326  1.00  0.00    -0.633 C  
HETATM    2  N   UNL     1     -12.176  15.518  72.975  1.00  0.00    -0.412 N  
HETATM    3  C   UNL     1     -12.925  14.538  72.362  1.00  0.00    -0.386 C  
HETATM    4  H   UNL     1     -11.411  15.955  72.461  1.00  0.00     0.000 HD 
HETATM    5  O   UNL     1     -13.889  14.003  72.900  1.00  0.00    -0.657 OA 
ENDROOT
BRANCH   3   6
HETATM    6  C   UNL     1     -12.506  14.109  70.997  1.00  0.00    -0.438 A  
HETATM    7  C   UNL     1     -12.270  15.089  70.018  1.00  0.00    -0.373 A  
HETATM    8  C   UNL     1     -11.951  14.725  68.702  1.00  0.00    -0.292 A  
HETATM    9  C   UNL     1     -11.874  13.373  68.343  1.00  0.00    -0.401 A  
HETATM   10  C   UNL     1     -12.053  12.396  69.327  1.00  0.00    -0.218 A  
HETATM   11  F   UNL     1     -12.576  11.783  71.522  1.00  0.00    -0.432 F  
HETATM   12  C   UNL     1     -12.374  12.768  70.633  1.00  0.00    -0.297 A  
BRANCH   9  13
HETATM   13  C   UNL     1     -11.673  13.005  66.913  1.00  0.00    -0.383 C  
HETATM   14  N   UNL     1     -10.671  12.253  66.548  1.00  0.00    -0.240 NA 
HETATM   15  N   UNL     1     -10.601  12.083  65.189  1.00  0.00    -0.277 NA 
HETATM   16  C   UNL     1      -9.665  11.352  64.495  1.00  0.00    -0.233 A  
HETATM   17  C   UNL     1     -12.647  13.577  65.892  1.00  0.00    -0.396 C  
HETATM   18  C   UNL     1      -9.973  11.553  63.167  1.00  0.00    -0.377 A  
HETATM   19  N   UNL     1     -11.089  12.327  63.024  1.00  0.00    -0.123 NA 
HETATM   20  N   UNL     1     -12.541  13.384  64.620  1.00  0.00    -0.637 NA 
HETATM   21  C   UNL     1     -11.473  12.632  64.246  1.00  0.00    -0.363 A  
BRANCH  16  22
HETATM   22  C   UNL     1      -8.623  10.499  65.122  1.00  0.00    -0.187 C  
BRANCH  22  23
HETATM   23  C   UNL     1      -9.075   9.782  66.373  1.00  0.00    -0.187 A  
HETATM   24  C   UNL     1      -9.286   9.722  68.789  1.00  0.00    -0.143 A  
HETATM   25  C   UNL     1      -8.820  10.342  67.627  1.00  0.00    -0.124 A  
HETATM   26  C   UNL     1      -9.980   8.523  68.750  1.00  0.00    -0.186 A  
HETATM   27  N   UNL     1     -10.393   7.967  69.904  1.00  0.00    -0.218 NA 
HETATM   28  C   UNL     1     -11.027   6.777  69.842  1.00  0.00    -0.291 A  
HETATM   29  C   UNL     1     -11.279   6.100  68.665  1.00  0.00    -0.275 A  
HETATM   30  C   UNL     1     -10.875   6.690  67.473  1.00  0.00    -0.417 A  
HETATM   31  C   UNL     1     -10.210   7.926  67.493  1.00  0.00    -0.308 A  
HETATM   32  C   UNL     1      -9.770   8.566  66.314  1.00  0.00    -0.300 A  
ENDBRANCH  22  23
ENDBRANCH  16  22
ENDBRANCH   9  13
ENDBRANCH   3   6
TORSDOF 4
ENDMDL
MODEL       13
REMARK 921   NORMALIZED FREE ENERGY PREDICTED BY IDOCK:   -7.88 KCAL/MOL
REMARK 922        TOTAL FREE ENERGY PREDICTED BY IDOCK:  -10.38 KCAL/MOL
REMARK 923 INTER-LIGAND FREE ENERGY PREDICTED BY IDOCK:   -9.45 KCAL/MOL
REMARK 924 INTRA-LIGAND FREE ENERGY PREDICTED BY IDOCK:   -0.93 KCAL/MOL
REMARK 927      BINDING AFFINITY PREDICTED BY RF-SCORE:    0.00 PKD
ROOT
HETATM    1  C   UNL     1     -12.906  16.301  73.752  1.00  0.00    -0.456 C  
HETATM    2  N   UNL     1     -12.473  15.200  72.927  1.00  0.00    -0.373 N  
HETATM    3  C   UNL     1     -13.289  14.662  71.957  1.00  0.00    -0.365 C  
HETATM    4  H   UNL     1     -11.542  14.810  73.066  1.00  0.00     0.000 HD 
HETATM    5  O   UNL     1     -14.402  15.109  71.699  1.00  0.00    -0.494 OA 
ENDROOT
BRANCH   3   6
HETATM    6  C   UNL     1     -12.783  13.468  71.220  1.00  0.00    -0.432 A  
HETATM    7  C   UNL     1     -12.961  12.194  71.786  1.00  0.00    -0.437 A  
HETATM    8  C   UNL     1     -12.432  11.054  71.165  1.00  0.00    -0.502 A  
HETATM    9  C   UNL     1     -11.706  11.173  69.973  1.00  0.00    -0.438 A  
HETATM   10  C   UNL     1     -11.575  12.431  69.379  1.00  0.00    -0.371 A  
HETATM   11  F   UNL     1     -11.905  14.746  69.408  1.00  0.00    -0.289 F  
HETATM   12  C   UNL     1     -12.102  13.562  70.006  1.00  0.00    -0.341 A  
BRANCH   9  13
HETATM   13  C   UNL     1     -11.032   9.973  69.402  1.00  0.00    -0.244 C  
HETATM   14  N   UNL     1     -10.241  10.075  68.369  1.00  0.00    -0.165 NA 
HETATM   15  N   UNL     1      -9.773   8.860  67.936  1.00  0.00    -0.155 NA 
HETATM   16  C   UNL     1      -8.927   8.632  66.875  1.00  0.00    -0.138 A  
HETATM   17  C   UNL     1     -11.340   8.622  70.034  1.00  0.00    -0.017 C  
HETATM   18  C   UNL     1      -8.819   7.260  66.799  1.00  0.00    -0.134 A  
HETATM   19  N   UNL     1      -9.517   6.647  67.801  1.00  0.00    -0.121 NA 
HETATM   20  N   UNL     1     -10.870   7.505  69.590  1.00  0.00    -0.231 NA 
HETATM   21  C   UNL     1     -10.078   7.615  68.492  1.00  0.00    -0.190 A  
BRANCH  16  22
HETATM   22  C   UNL     1      -8.260   9.694  66.082  1.00  0.00    -0.115 C  
BRANCH  22  23
HETATM   23  C   UNL     1      -9.205  10.697  65.462  1.00  0.00    -0.228 A  
HETATM   24  C   UNL     1     -10.797  11.276  63.726  1.00  0.00    -0.424 A  
HETATM   25  C   UNL     1      -9.873  10.384  64.276  1.00  0.00    -0.388 A  
HETATM   26  C   UNL     1     -11.060  12.507  64.306  1.00  0.00    -0.356 A  
HETATM   27  N   UNL     1     -11.951  13.329  63.722  1.00  0.00    -0.489 NA 
HETATM   28  C   UNL     1     -12.157  14.540  64.282  1.00  0.00    -0.425 A  
HETATM   29  C   UNL     1     -11.508  14.982  65.418  1.00  0.00    -0.287 A  
HETATM   30  C   UNL     1     -10.607  14.120  66.033  1.00  0.00    -0.297 A  
HETATM   31  C   UNL     1     -10.364  12.852  65.483  1.00  0.00    -0.304 A  
HETATM   32  C   UNL     1      -9.454  11.941  66.060  1.00  0.00    -0.241 A  
ENDBRANCH  22  23
ENDBRANCH  16  22
ENDBRANCH   9  13
ENDBRANCH   3   6
TORSDOF 4
ENDMDL
MODEL       14
REMARK 921   NORMALIZED FREE ENERGY PREDICTED BY IDOCK:   -7.85 KCAL/MOL
REMARK 922        TOTAL FREE ENERGY PREDICTED BY IDOCK:  -10.34 KCAL/MOL
REMARK 923 INTER-LIGAND FREE ENERGY PREDICTED BY IDOCK:   -9.52 KCAL/MOL
REMARK 924 INTRA-LIGAND FREE ENERGY PREDICTED BY IDOCK:   -0.82 KCAL/MOL
REMARK 927      BINDING AFFINITY PREDICTED BY RF-SCORE:    0.00 PKD
ROOT
HETATM    1  C   UNL     1     -10.666   4.757  65.936  1.00  0.00    -0.173 C  
HETATM    2  N   UNL     1     -10.913   6.043  66.538  1.00  0.00    -0.724 N  
HETATM    3  C   UNL     1      -9.985   6.645  67.359  1.00  0.00    -0.145 C  
HETATM    4  H   UNL     1     -11.796   6.519  66.353  1.00  0.00     0.000 HD 
HETATM    5  O   UNL     1      -8.884   6.158  67.589  1.00  0.00    -0.106 OA 
ENDROOT
BRANCH   3   6
HETATM    6  C   UNL     1     -10.374   7.932  68.005  1.00  0.00    -0.264 A  
HETATM    7  C   UNL     1     -10.643   7.948  69.384  1.00  0.00    -0.209 A  
HETATM    8  C   UNL     1     -11.088   9.119  70.014  1.00  0.00    -0.208 A  
HETATM    9  C   UNL     1     -11.279  10.290  69.271  1.00  0.00    -0.281 A  
HETATM   10  C   UNL     1     -10.959  10.294  67.911  1.00  0.00    -0.350 A  
HETATM   11  F   UNL     1     -10.272   9.179  65.974  1.00  0.00    -0.367 F  
HETATM   12  C   UNL     1     -10.521   9.122  67.290  1.00  0.00    -0.265 A  
BRANCH   9  13
HETATM   13  C   UNL     1     -11.884  11.483  69.927  1.00  0.00    -0.355 C  
HETATM   14  N   UNL     1     -11.761  12.673  69.403  1.00  0.00    -0.314 NA 
HETATM   15  N   UNL     1     -12.313  13.657  70.182  1.00  0.00    -0.326 NA 
HETATM   16  C   UNL     1     -12.345  15.006  69.910  1.00  0.00    -0.275 A  
HETATM   17  C   UNL     1     -12.604  11.273  71.252  1.00  0.00    -0.382 C  
HETATM   18  C   UNL     1     -12.930  15.576  71.020  1.00  0.00    -0.489 A  
HETATM   19  N   UNL     1     -13.307  14.629  71.929  1.00  0.00    -0.337 NA 
HETATM   20  N   UNL     1     -13.112  12.235  71.948  1.00  0.00    -0.418 NA 
HETATM   21  C   UNL     1     -12.946  13.473  71.414  1.00  0.00    -0.339 A  
BRANCH  16  22
HETATM   22  C   UNL     1     -11.892  15.622  68.638  1.00  0.00    -0.306 C  
BRANCH  22  23
HETATM   23  C   UNL     1     -10.536  16.285  68.715  1.00  0.00    -0.298 A  
HETATM   24  C   UNL     1      -8.165  16.148  69.204  1.00  0.00    -0.230 A  
HETATM   25  C   UNL     1      -9.435  15.566  69.186  1.00  0.00    -0.246 A  
HETATM   26  C   UNL     1      -7.952  17.455  68.796  1.00  0.00    -0.244 A  
HETATM   27  N   UNL     1      -6.707  17.963  68.849  1.00  0.00    -0.236 NA 
HETATM   28  C   UNL     1      -6.534  19.252  68.489  1.00  0.00    -0.248 A  
HETATM   29  C   UNL     1      -7.558  20.077  68.067  1.00  0.00    -0.313 A  
HETATM   30  C   UNL     1      -8.839  19.541  67.989  1.00  0.00    -0.368 A  
HETATM   31  C   UNL     1      -9.062  18.205  68.356  1.00  0.00    -0.318 A  
HETATM   32  C   UNL     1     -10.341  17.612  68.305  1.00  0.00    -0.384 A  
ENDBRANCH  22  23
ENDBRANCH  16  22
ENDBRANCH   9  13
ENDBRANCH   3   6
TORSDOF 4
ENDMDL
MODEL       15
REMARK 921   NORMALIZED FREE ENERGY PREDICTED BY IDOCK:   -7.83 KCAL/MOL
REMARK 922        TOTAL FREE ENERGY PREDICTED BY IDOCK:  -10.31 KCAL/MOL
REMARK 923 INTER-LIGAND FREE ENERGY PREDICTED BY IDOCK:   -9.35 KCAL/MOL
REMARK 924 INTRA-LIGAND FREE ENERGY PREDICTED BY IDOCK:   -0.96 KCAL/MOL
REMARK 927      BINDING AFFINITY PREDICTED BY RF-SCORE:    0.00 PKD
ROOT
HETATM    1  C   UNL     1      -8.718   7.768  74.302  1.00  0.00    -0.190 C  
HETATM    2  N   UNL     1      -9.052   8.318  73.012  1.00  0.00    -0.261 N  
HETATM    3  C   UNL     1     -10.244   8.023  72.388  1.00  0.00    -0.280 C  
HETATM    4  H   UNL     1      -8.389   8.940  72.549  1.00  0.00     0.000 HD 
HETATM    5  O   UNL     1     -11.110   7.323  72.903  1.00  0.00    -0.306 OA 
ENDROOT
BRANCH   3   6
HETATM    6  C   UNL     1     -10.454   8.570  71.016  1.00  0.00    -0.264 A  
HETATM    7  C   UNL     1      -9.807   7.953  69.932  1.00  0.00    -0.182 A  
HETATM    8  C   UNL     1      -9.915   8.483  68.638  1.00  0.00    -0.197 A  
HETATM    9  C   UNL     1     -10.665   9.644  68.412  1.00  0.00    -0.251 A  
HETATM   10  C   UNL     1     -11.355  10.227  69.478  1.00  0.00    -0.299 A  
HETATM   11  F   UNL     1     -11.890  10.327  71.752  1.00  0.00    -0.409 F  
HETATM   12  C   UNL     1     -11.238   9.696  70.763  1.00  0.00    -0.336 A  
BRANCH   9  13
HETATM   13  C   UNL     1     -10.654  10.271  67.060  1.00  0.00    -0.239 C  
HETATM   14  N   UNL     1     -11.298  11.383  66.831  1.00  0.00    -0.425 NA 
HETATM   15  N   UNL     1     -11.241  11.769  65.516  1.00  0.00    -0.292 NA 
HETATM   16  C   UNL     1     -11.816  12.887  64.957  1.00  0.00    -0.372 A  
HETATM   17  C   UNL     1      -9.911   9.543  65.949  1.00  0.00    -0.290 C  
HETATM   18  C   UNL     1     -11.542  12.790  63.611  1.00  0.00    -0.506 A  
HETATM   19  N   UNL     1     -10.779  11.692  63.333  1.00  0.00    -0.396 NA 
HETATM   20  N   UNL     1      -9.883   9.950  64.724  1.00  0.00    -0.259 NA 
HETATM   21  C   UNL     1     -10.587  11.087  64.486  1.00  0.00    -0.313 A  
BRANCH  16  22
HETATM   22  C   UNL     1     -12.503  13.957  65.724  1.00  0.00    -0.530 C  
BRANCH  22  23
HETATM   23  C   UNL     1     -11.577  14.843  66.525  1.00  0.00    -0.254 A  
HETATM   24  C   UNL     1     -10.864  15.731  68.666  1.00  0.00    -0.278 A  
HETATM   25  C   UNL     1     -11.750  14.965  67.905  1.00  0.00    -0.344 A  
HETATM   26  C   UNL     1      -9.811  16.423  68.087  1.00  0.00    -0.238 A  
HETATM   27  N   UNL     1      -8.998  17.155  68.871  1.00  0.00    -0.234 NA 
HETATM   28  C   UNL     1      -8.008  17.855  68.277  1.00  0.00    -0.291 A  
HETATM   29  C   UNL     1      -7.781  17.861  66.915  1.00  0.00    -0.244 A  
HETATM   30  C   UNL     1      -8.607  17.082  66.111  1.00  0.00    -0.252 A  
HETATM   31  C   UNL     1      -9.649  16.341  66.688  1.00  0.00    -0.264 A  
HETATM   32  C   UNL     1     -10.522  15.542  65.920  1.00  0.00    -0.356 A  
ENDBRANCH  22  23
ENDBRANCH  16  22
ENDBRANCH   9  13
ENDBRANCH   3   6
TORSDOF 4
ENDMDL
MODEL       16
REMARK 921   NORMALIZED FREE ENERGY PREDICTED BY IDOCK:   -7.82 KCAL/MOL
REMARK 922        TOTAL FREE ENERGY PREDICTED BY IDOCK:  -10.31 KCAL/MOL
REMARK 923 INTER-LIGAND FREE ENERGY PREDICTED BY IDOCK:   -9.43 KCAL/MOL
REMARK 924 INTRA-LIGAND FREE ENERGY PREDICTED BY IDOCK:   -0.87 KCAL/MOL
REMARK 927      BINDING AFFINITY PREDICTED BY RF-SCORE:    0.00 PKD
ROOT
HETATM    1  C   UNL     1     -12.865  15.632  73.873  1.00  0.00    -0.514 C  
HETATM    2  N   UNL     1     -12.437  14.886  72.717  1.00  0.00    -0.357 N  
HETATM    3  C   UNL     1     -13.233  13.916  72.148  1.00  0.00    -0.444 C  
HETATM    4  H   UNL     1     -11.522  15.081  72.309  1.00  0.00     0.000 HD 
HETATM    5  O   UNL     1     -14.362  13.661  72.553  1.00  0.00    -0.707 OA 
ENDROOT
BRANCH   3   6
HETATM    6  C   UNL     1     -12.660  13.140  71.011  1.00  0.00    -0.397 A  
HETATM    7  C   UNL     1     -12.606  11.739  71.102  1.00  0.00    -0.412 A  
HETATM    8  C   UNL     1     -12.005  10.977  70.090  1.00  0.00    -0.443 A  
HETATM    9  C   UNL     1     -11.440  11.608  68.975  1.00  0.00    -0.356 A  
HETATM   10  C   UNL     1     -11.542  12.997  68.853  1.00  0.00    -0.355 A  
HETATM   11  F   UNL     1     -12.167  15.079  69.712  1.00  0.00    -0.314 F  
HETATM   12  C   UNL     1     -12.139  13.747  69.868  1.00  0.00    -0.348 A  
BRANCH   9  13
HETATM   13  C   UNL     1     -10.683  10.797  67.979  1.00  0.00    -0.228 C  
HETATM   14  N   UNL     1     -10.907   9.518  67.846  1.00  0.00    -0.223 NA 
HETATM   15  N   UNL     1     -10.067   8.922  66.941  1.00  0.00    -0.248 NA 
HETATM   16  C   UNL     1     -10.048   7.594  66.580  1.00  0.00    -0.208 A  
HETATM   17  C   UNL     1      -9.609  11.502  67.163  1.00  0.00    -0.177 C  
HETATM   18  C   UNL     1      -8.986   7.480  65.709  1.00  0.00    -0.036 A  
HETATM   19  N   UNL     1      -8.394   8.690  65.480  1.00  0.00    -0.140 NA 
HETATM   20  N   UNL     1      -8.844  10.896  66.317  1.00  0.00    -0.172 NA 
HETATM   21  C   UNL     1      -9.058   9.559  66.213  1.00  0.00    -0.163 A  
BRANCH  16  22
HETATM   22  C   UNL     1     -11.040   6.583  67.025  1.00  0.00    -0.411 C  
BRANCH  22  23
HETATM   23  C   UNL     1     -10.694   5.902  68.328  1.00  0.00    -0.319 A  
HETATM   24  C   UNL     1      -9.454   4.204  69.537  1.00  0.00    -0.254 A  
HETATM   25  C   UNL     1      -9.831   4.805  68.333  1.00  0.00    -0.187 A  
HETATM   26  C   UNL     1      -9.941   4.643  70.758  1.00  0.00    -0.214 A  
HETATM   27  N   UNL     1      -9.552   4.016  71.883  1.00  0.00    -0.142 NA 
HETATM   28  C   UNL     1     -10.076   4.433  73.055  1.00  0.00    -0.155 A  
HETATM   29  C   UNL     1     -10.986   5.467  73.165  1.00  0.00    -0.353 A  
HETATM   30  C   UNL     1     -11.366   6.129  72.004  1.00  0.00    -0.348 A  
HETATM   31  C   UNL     1     -10.845   5.726  70.764  1.00  0.00    -0.330 A  
HETATM   32  C   UNL     1     -11.204   6.356  69.554  1.00  0.00    -0.477 A  
ENDBRANCH  22  23
ENDBRANCH  16  22
ENDBRANCH   9  13
ENDBRANCH   3   6
TORSDOF 4
ENDMDL
MODEL       17
REMARK 921   NORMALIZED FREE ENERGY PREDICTED BY IDOCK:   -7.79 KCAL/MOL
REMARK 922        TOTAL FREE ENERGY PREDICTED BY IDOCK:  -10.27 KCAL/MOL
REMARK 923 INTER-LIGAND FREE ENERGY PREDICTED BY IDOCK:   -9.50 KCAL/MOL
REMARK 924 INTRA-LIGAND FREE ENERGY PREDICTED BY IDOCK:   -0.76 KCAL/MOL
REMARK 927      BINDING AFFINITY PREDICTED BY RF-SCORE:    0.00 PKD
ROOT
HETATM    1  C   UNL     1     -10.144   6.935  73.930  1.00  0.00    -0.357 C  
HETATM    2  N   UNL     1     -10.286   7.891  72.860  1.00  0.00    -0.309 N  
HETATM    3  C   UNL     1     -11.338   7.830  71.973  1.00  0.00    -0.284 C  
HETATM    4  H   UNL     1      -9.590   8.630  72.757  1.00  0.00     0.000 HD 
HETATM    5  O   UNL     1     -12.237   7.001  72.063  1.00  0.00    -0.308 OA 
ENDROOT
BRANCH   3   6
HETATM    6  C   UNL     1     -11.343   8.810  70.849  1.00  0.00    -0.322 A  
HETATM    7  C   UNL     1     -10.692   8.474  69.650  1.00  0.00    -0.200 A  
HETATM    8  C   UNL     1     -10.607   9.396  68.598  1.00  0.00    -0.230 A  
HETATM    9  C   UNL     1     -11.164  10.674  68.734  1.00  0.00    -0.337 A  
HETATM   10  C   UNL     1     -11.862  10.992  69.902  1.00  0.00    -0.431 A  
HETATM   11  F   UNL     1     -12.583  10.450  72.059  1.00  0.00    -0.474 F  
HETATM   12  C   UNL     1     -11.938  10.069  70.946  1.00  0.00    -0.361 A  
BRANCH   9  13
HETATM   13  C   UNL     1     -10.943  11.687  67.663  1.00  0.00    -0.239 C  
HETATM   14  N   UNL     1     -11.034  12.964  67.918  1.00  0.00    -0.233 NA 
HETATM   15  N   UNL     1     -10.876  13.742  66.800  1.00  0.00    -0.283 NA 
HETATM   16  C   UNL     1     -10.919  15.116  66.737  1.00  0.00    -0.321 A  
HETATM   17  C   UNL     1     -10.661  11.179  66.256  1.00  0.00    -0.253 C  
HETATM   18  C   UNL     1     -10.787  15.412  65.398  1.00  0.00    -0.391 A  
HETATM   19  N   UNL     1     -10.609  14.283  64.651  1.00  0.00    -0.403 NA 
HETATM   20  N   UNL     1     -10.515  11.955  65.234  1.00  0.00    -0.264 NA 
HETATM   21  C   UNL     1     -10.649  13.279  65.501  1.00  0.00    -0.287 A  
BRANCH  16  22
HETATM   22  C   UNL     1     -11.017  16.014  67.915  1.00  0.00    -0.327 C  
BRANCH  22  23
HETATM   23  C   UNL     1      -9.807  16.894  68.131  1.00  0.00    -0.264 A  
HETATM   24  C   UNL     1      -7.586  17.208  69.052  1.00  0.00    -0.187 A  
HETATM   25  C   UNL     1      -8.736  16.430  68.896  1.00  0.00    -0.253 A  
HETATM   26  C   UNL     1      -7.475  18.470  68.490  1.00  0.00    -0.297 A  
HETATM   27  N   UNL     1      -6.347  19.178  68.686  1.00  0.00    -0.240 NA 
HETATM   28  C   UNL     1      -6.282  20.422  68.167  1.00  0.00    -0.288 A  
HETATM   29  C   UNL     1      -7.304  21.009  67.446  1.00  0.00    -0.311 A  
HETATM   30  C   UNL     1      -8.457  20.265  67.224  1.00  0.00    -0.415 A  
HETATM   31  C   UNL     1      -8.566  18.967  67.748  1.00  0.00    -0.328 A  
HETATM   32  C   UNL     1      -9.716  18.172  67.561  1.00  0.00    -0.304 A  
ENDBRANCH  22  23
ENDBRANCH  16  22
ENDBRANCH   9  13
ENDBRANCH   3   6
TORSDOF 4
ENDMDL
MODEL       18
REMARK 921   NORMALIZED FREE ENERGY PREDICTED BY IDOCK:   -7.75 KCAL/MOL
REMARK 922        TOTAL FREE ENERGY PREDICTED BY IDOCK:  -10.22 KCAL/MOL
REMARK 923 INTER-LIGAND FREE ENERGY PREDICTED BY IDOCK:   -9.78 KCAL/MOL
REMARK 924 INTRA-LIGAND FREE ENERGY PREDICTED BY IDOCK:   -0.44 KCAL/MOL
REMARK 927      BINDING AFFINITY PREDICTED BY RF-SCORE:    0.00 PKD
ROOT
HETATM    1  C   UNL     1      -6.543  20.846  66.677  1.00  0.00    -0.284 C  
HETATM    2  N   UNL     1      -7.300  19.865  67.413  1.00  0.00    -0.247 N  
HETATM    3  C   UNL     1      -7.772  18.719  66.813  1.00  0.00    -0.241 C  
HETATM    4  H   UNL     1      -7.492  20.023  68.402  1.00  0.00     0.000 HD 
HETATM    5  O   UNL     1      -7.541  18.437  65.642  1.00  0.00    -0.522 OA 
ENDROOT
BRANCH   3   6
HETATM    6  C   UNL     1      -8.622  17.812  67.638  1.00  0.00    -0.230 A  
HETATM    7  C   UNL     1     -10.018  17.965  67.598  1.00  0.00    -0.324 A  
HETATM    8  C   UNL     1     -10.848  17.187  68.418  1.00  0.00    -0.309 A  
HETATM    9  C   UNL     1     -10.291  16.250  69.298  1.00  0.00    -0.277 A  
HETATM   10  C   UNL     1      -8.907  16.055  69.299  1.00  0.00    -0.227 A  
HETATM   11  F   UNL     1      -6.765  16.634  68.562  1.00  0.00    -0.131 F  
HETATM   12  C   UNL     1      -8.089  16.838  68.483  1.00  0.00    -0.241 A  
BRANCH   9  13
HETATM   13  C   UNL     1     -11.175  15.533  70.259  1.00  0.00    -0.326 C  
HETATM   14  N   UNL     1     -11.465  14.270  70.092  1.00  0.00    -0.230 NA 
HETATM   15  N   UNL     1     -12.351  13.800  71.028  1.00  0.00    -0.370 NA 
HETATM   16  C   UNL     1     -12.851  12.522  71.122  1.00  0.00    -0.211 A  
HETATM   17  C   UNL     1     -11.767  16.335  71.410  1.00  0.00    -0.368 C  
HETATM   18  C   UNL     1     -13.750  12.571  72.164  1.00  0.00    -0.243 A  
HETATM   19  N   UNL     1     -13.777  13.807  72.745  1.00  0.00    -0.700 NA 
HETATM   20  N   UNL     1     -12.595  15.843  72.270  1.00  0.00    -0.444 NA 
HETATM   21  C   UNL     1     -12.921  14.541  72.066  1.00  0.00    -0.341 A  
BRANCH  16  22
HETATM   22  C   UNL     1     -12.410  11.377  70.285  1.00  0.00    -0.379 C  
BRANCH  22  23
HETATM   23  C   UNL     1     -11.994  10.155  71.071  1.00  0.00    -0.474 A  
HETATM   24  C   UNL     1     -12.590   8.255  72.455  1.00  0.00    -0.323 A  
HETATM   25  C   UNL     1     -12.951   9.421  71.775  1.00  0.00    -0.484 A  
HETATM   26  C   UNL     1     -11.281   7.802  72.488  1.00  0.00    -0.363 A  
HETATM   27  N   UNL     1     -10.993   6.678  73.170  1.00  0.00    -0.256 NA 
HETATM   28  C   UNL     1      -9.704   6.283  73.225  1.00  0.00    -0.162 A  
HETATM   29  C   UNL     1      -8.665   6.964  72.620  1.00  0.00    -0.132 A  
HETATM   30  C   UNL     1      -8.970   8.110  71.894  1.00  0.00    -0.225 A  
HETATM   31  C   UNL     1     -10.298   8.556  71.814  1.00  0.00    -0.354 A  
HETATM   32  C   UNL     1     -10.662   9.716  71.099  1.00  0.00    -0.365 A  
ENDBRANCH  22  23
ENDBRANCH  16  22
ENDBRANCH   9  13
ENDBRANCH   3   6
TORSDOF 4
ENDMDL
MODEL       19
REMARK 921   NORMALIZED FREE ENERGY PREDICTED BY IDOCK:   -7.69 KCAL/MOL
REMARK 922        TOTAL FREE ENERGY PREDICTED BY IDOCK:  -10.14 KCAL/MOL
REMARK 923 INTER-LIGAND FREE ENERGY PREDICTED BY IDOCK:   -9.63 KCAL/MOL
REMARK 924 INTRA-LIGAND FREE ENERGY PREDICTED BY IDOCK:   -0.51 KCAL/MOL
REMARK 927      BINDING AFFINITY PREDICTED BY RF-SCORE:    0.00 PKD
ROOT
HETATM    1  C   UNL     1      -5.585  20.197  71.390  1.00  0.00    -0.354 C  
HETATM    2  N   UNL     1      -6.402  19.470  70.450  1.00  0.00    -0.147 N  
HETATM    3  C   UNL     1      -6.584  19.913  69.159  1.00  0.00    -0.333 C  
HETATM    4  H   UNL     1      -6.857  18.608  70.749  1.00  0.00     0.000 HD 
HETATM    5  O   UNL     1      -6.032  20.914  68.714  1.00  0.00    -0.351 OA 
ENDROOT
BRANCH   3   6
HETATM    6  C   UNL     1      -7.520  19.138  68.294  1.00  0.00    -0.334 A  
HETATM    7  C   UNL     1      -8.860  19.002  68.693  1.00  0.00    -0.388 A  
HETATM    8  C   UNL     1      -9.753  18.217  67.950  1.00  0.00    -0.302 A  
HETATM    9  C   UNL     1      -9.315  17.548  66.800  1.00  0.00    -0.275 A  
HETATM   10  C   UNL     1      -7.998  17.727  66.369  1.00  0.00    -0.306 A  
HETATM   11  F   UNL     1      -5.852  18.604  66.675  1.00  0.00    -0.154 F  
HETATM   12  C   UNL     1      -7.115  18.506  67.117  1.00  0.00    -0.204 A  
BRANCH   9  13
HETATM   13  C   UNL     1     -10.237  16.608  66.103  1.00  0.00    -0.348 C  
HETATM   14  N   UNL     1     -10.458  15.410  66.573  1.00  0.00    -0.288 NA 
HETATM   15  N   UNL     1     -11.271  14.661  65.761  1.00  0.00    -0.332 NA 
HETATM   16  C   UNL     1     -11.686  13.367  65.975  1.00  0.00    -0.362 A  
HETATM   17  C   UNL     1     -10.871  17.076  64.800  1.00  0.00     0.257 C  
HETATM   18  C   UNL     1     -12.413  13.040  64.852  1.00  0.00    -0.455 A  
HETATM   19  N   UNL     1     -12.506  14.095  63.990  1.00  0.00    -0.737 NA 
HETATM   20  N   UNL     1     -11.635  16.332  64.072  1.00  0.00    -1.007 NA 
HETATM   21  C   UNL     1     -11.829  15.075  64.549  1.00  0.00    -0.371 A  
BRANCH  16  22
HETATM   22  C   UNL     1     -11.424  12.589  67.212  1.00  0.00    -0.416 C  
BRANCH  22  23
HETATM   23  C   UNL     1     -10.794  11.236  66.976  1.00  0.00    -0.332 A  
HETATM   24  C   UNL     1     -10.490   8.924  67.641  1.00  0.00    -0.320 A  
HETATM   25  C   UNL     1     -11.016  10.196  67.881  1.00  0.00    -0.335 A  
HETATM   26  C   UNL     1      -9.707   8.652  66.530  1.00  0.00    -0.255 A  
HETATM   27  N   UNL     1      -9.218   7.410  66.361  1.00  0.00    -0.167 NA 
HETATM   28  C   UNL     1      -8.422   7.183  65.295  1.00  0.00    -0.051 A  
HETATM   29  C   UNL     1      -8.083   8.150  64.369  1.00  0.00    -0.138 A  
HETATM   30  C   UNL     1      -8.611   9.426  64.533  1.00  0.00    -0.219 A  
HETATM   31  C   UNL     1      -9.442   9.704  65.629  1.00  0.00    -0.318 A  
HETATM   32  C   UNL     1      -9.998  10.982  65.849  1.00  0.00    -0.289 A  
ENDBRANCH  22  23
ENDBRANCH  16  22
ENDBRANCH   9  13
ENDBRANCH   3   6
TORSDOF 4
ENDMDL
MODEL       20
REMARK 921   NORMALIZED FREE ENERGY PREDICTED BY IDOCK:   -7.69 KCAL/MOL
REMARK 922        TOTAL FREE ENERGY PREDICTED BY IDOCK:  -10.14 KCAL/MOL
REMARK 923 INTER-LIGAND FREE ENERGY PREDICTED BY IDOCK:   -9.47 KCAL/MOL
REMARK 924 INTRA-LIGAND FREE ENERGY PREDICTED BY IDOCK:   -0.68 KCAL/MOL
REMARK 927      BINDING AFFINITY PREDICTED BY RF-SCORE:    0.00 PKD
ROOT
HETATM    1  C   UNL     1     -13.118  16.217  73.765  1.00  0.00    -0.358 C  
HETATM    2  N   UNL     1     -12.758  14.963  73.152  1.00  0.00    -0.465 N  
HETATM    3  C   UNL     1     -13.412  14.491  72.036  1.00  0.00    -0.384 C  
HETATM    4  H   UNL     1     -12.001  14.411  73.555  1.00  0.00     0.000 HD 
HETATM    5  O   UNL     1     -14.299  15.120  71.468  1.00  0.00    -0.497 OA 
ENDROOT
BRANCH   3   6
HETATM    6  C   UNL     1     -13.025  13.141  71.534  1.00  0.00    -0.412 A  
HETATM    7  C   UNL     1     -13.514  12.002  72.197  1.00  0.00    -0.338 A  
HETATM    8  C   UNL     1     -13.111  10.717  71.805  1.00  0.00    -0.573 A  
HETATM    9  C   UNL     1     -12.205  10.553  70.750  1.00  0.00    -0.468 A  
HETATM   10  C   UNL     1     -11.762  11.680  70.052  1.00  0.00    -0.402 A  
HETATM   11  F   UNL     1     -11.669  13.999  69.769  1.00  0.00    -0.291 F  
HETATM   12  C   UNL     1     -12.164  12.955  70.451  1.00  0.00    -0.304 A  
BRANCH   9  13
HETATM   13  C   UNL     1     -11.682   9.193  70.439  1.00  0.00    -0.088 C  
HETATM   14  N   UNL     1     -10.668   9.032  69.632  1.00  0.00    -0.230 NA 
HETATM   15  N   UNL     1     -10.374   7.712  69.404  1.00  0.00    -0.211 NA 
HETATM   16  C   UNL     1      -9.371   7.215  68.604  1.00  0.00    -0.134 A  
HETATM   17  C   UNL     1     -12.401   8.001  71.054  1.00  0.00    -0.150 C  
HETATM   18  C   UNL     1      -9.536   5.848  68.640  1.00  0.00    -0.122 A  
HETATM   19  N   UNL     1     -10.559   5.488  69.471  1.00  0.00    -0.306 NA 
HETATM   20  N   UNL     1     -12.083   6.773  70.810  1.00  0.00    -0.386 NA 
HETATM   21  C   UNL     1     -11.052   6.614  69.941  1.00  0.00    -0.348 A  
BRANCH  16  22
HETATM   22  C   UNL     1      -8.332   8.042  67.940  1.00  0.00    -0.129 C  
BRANCH  22  23
HETATM   23  C   UNL     1      -8.840   8.872  66.784  1.00  0.00    -0.142 A  
HETATM   24  C   UNL     1      -9.026   9.238  64.394  1.00  0.00    -0.163 A  
HETATM   25  C   UNL     1      -8.513   8.515  65.474  1.00  0.00    -0.183 A  
HETATM   26  C   UNL     1      -9.842  10.343  64.574  1.00  0.00    -0.339 A  
HETATM   27  N   UNL     1     -10.296  11.006  63.494  1.00  0.00    -0.359 NA 
HETATM   28  C   UNL     1     -11.051  12.106  63.698  1.00  0.00    -0.457 A  
HETATM   29  C   UNL     1     -11.387  12.588  64.948  1.00  0.00    -0.351 A  
HETATM   30  C   UNL     1     -10.938  11.885  66.061  1.00  0.00    -0.355 A  
HETATM   31  C   UNL     1     -10.148  10.738  65.893  1.00  0.00    -0.314 A  
HETATM   32  C   UNL     1      -9.658   9.992  66.987  1.00  0.00    -0.212 A  
ENDBRANCH  22  23
ENDBRANCH  16  22
ENDBRANCH   9  13
ENDBRANCH   3   6
TORSDOF 4
ENDMDL
MODEL       21
REMARK 921   NORMALIZED FREE ENERGY PREDICTED BY IDOCK:   -7.66 KCAL/MOL
REMARK 922        TOTAL FREE ENERGY PREDICTED BY IDOCK:  -10.12 KCAL/MOL
REMARK 923 INTER-LIGAND FREE ENERGY PREDICTED BY IDOCK:   -9.78 KCAL/MOL
REMARK 924 INTRA-LIGAND FREE ENERGY PREDICTED BY IDOCK:   -0.33 KCAL/MOL
REMARK 927      BINDING AFFINITY PREDICTED BY RF-SCORE:    0.00 PKD
ROOT
HETATM    1  C   UNL     1      -6.837  19.233  65.459  1.00  0.00    -0.263 C  
HETATM    2  N   UNL     1      -7.719  18.352  66.184  1.00  0.00    -0.244 N  
HETATM    3  C   UNL     1      -9.055  18.643  66.347  1.00  0.00    -0.284 C  
HETATM    4  H   UNL     1      -7.344  17.494  66.587  1.00  0.00     0.000 HD 
HETATM    5  O   UNL     1      -9.587  19.631  65.851  1.00  0.00    -0.376 OA 
ENDROOT
BRANCH   3   6
HETATM    6  C   UNL     1      -9.862  17.714  67.190  1.00  0.00    -0.306 A  
HETATM    7  C   UNL     1     -10.073  18.032  68.542  1.00  0.00    -0.399 A  
HETATM    8  C   UNL     1     -10.759  17.149  69.388  1.00  0.00    -0.086 A  
HETATM    9  C   UNL     1     -11.233  15.926  68.895  1.00  0.00    -0.343 A  
HETATM   10  C   UNL     1     -11.074  15.631  67.538  1.00  0.00    -0.289 A  
HETATM   11  F   UNL     1     -10.229  16.156  65.422  1.00  0.00    -0.344 F  
HETATM   12  C   UNL     1     -10.387  16.516  66.705  1.00  0.00    -0.298 A  
BRANCH   9  13
HETATM   13  C   UNL     1     -11.833  14.940  69.837  1.00  0.00    -0.311 C  
HETATM   14  N   UNL     1     -11.579  13.664  69.725  1.00  0.00    -0.274 NA 
HETATM   15  N   UNL     1     -12.278  12.902  70.627  1.00  0.00    -0.363 NA 
HETATM   16  C   UNL     1     -12.232  11.534  70.762  1.00  0.00    -0.363 A  
HETATM   17  C   UNL     1     -12.789  15.467  70.898  1.00  0.00    -0.476 C  
HETATM   18  C   UNL     1     -13.159  11.245  71.739  1.00  0.00    -0.422 A  
HETATM   19  N   UNL     1     -13.725  12.381  72.244  1.00  0.00    -0.344 NA 
HETATM   20  N   UNL     1     -13.421  14.707  71.729  1.00  0.00    -0.346 NA 
HETATM   21  C   UNL     1     -13.181  13.378  71.581  1.00  0.00    -0.364 A  
BRANCH  16  22
HETATM   22  C   UNL     1     -11.302  10.642  70.024  1.00  0.00    -0.400 C  
BRANCH  22  23
HETATM   23  C   UNL     1     -10.907  11.147  68.656  1.00  0.00    -0.251 A  
HETATM   24  C   UNL     1      -9.198  11.524  66.978  1.00  0.00    -0.180 A  
HETATM   25  C   UNL     1      -9.568  11.117  68.262  1.00  0.00    -0.185 A  
HETATM   26  C   UNL     1     -10.125  12.000  66.065  1.00  0.00    -0.230 A  
HETATM   27  N   UNL     1      -9.706  12.389  64.847  1.00  0.00    -0.074 NA 
HETATM   28  C   UNL     1     -10.622  12.891  63.992  1.00  0.00    -0.389 A  
HETATM   29  C   UNL     1     -11.963  13.026  64.295  1.00  0.00    -0.466 A  
HETATM   30  C   UNL     1     -12.397  12.599  65.545  1.00  0.00    -0.455 A  
HETATM   31  C   UNL     1     -11.476  12.072  66.464  1.00  0.00    -0.413 A  
HETATM   32  C   UNL     1     -11.860  11.633  67.748  1.00  0.00    -0.247 A  
ENDBRANCH  22  23
ENDBRANCH  16  22
ENDBRANCH   9  13
ENDBRANCH   3   6
TORSDOF 4
ENDMDL
MODEL       22
REMARK 921   NORMALIZED FREE ENERGY PREDICTED BY IDOCK:   -7.65 KCAL/MOL
REMARK 922        TOTAL FREE ENERGY PREDICTED BY IDOCK:  -10.09 KCAL/MOL
REMARK 923 INTER-LIGAND FREE ENERGY PREDICTED BY IDOCK:   -9.44 KCAL/MOL
REMARK 924 INTRA-LIGAND FREE ENERGY PREDICTED BY IDOCK:   -0.65 KCAL/MOL
REMARK 927      BINDING AFFINITY PREDICTED BY RF-SCORE:    0.00 PKD
ROOT
HETATM    1  C   UNL     1     -10.255  19.860  67.874  1.00  0.00    -0.434 C  
HETATM    2  N   UNL     1     -10.143  18.443  67.636  1.00  0.00    -0.342 N  
HETATM    3  C   UNL     1     -10.383  17.899  66.394  1.00  0.00    -0.365 C  
HETATM    4  H   UNL     1      -9.879  17.828  68.406  1.00  0.00     0.000 HD 
HETATM    5  O   UNL     1     -10.656  18.579  65.410  1.00  0.00    -0.589 OA 
ENDROOT
BRANCH   3   6
HETATM    6  C   UNL     1     -10.328  16.413  66.274  1.00  0.00    -0.337 A  
HETATM    7  C   UNL     1      -9.712  15.670  67.295  1.00  0.00    -0.219 A  
HETATM    8  C   UNL     1      -9.570  14.280  67.184  1.00  0.00    -0.245 A  
HETATM    9  C   UNL     1     -10.034  13.613  66.043  1.00  0.00    -0.313 A  
HETATM   10  C   UNL     1     -10.698  14.340  65.052  1.00  0.00    -0.435 A  
HETATM   11  F   UNL     1     -11.439  16.372  64.163  1.00  0.00    -0.534 F  
HETATM   12  C   UNL     1     -10.831  15.725  65.169  1.00  0.00    -0.428 A  
BRANCH   9  13
HETATM   13  C   UNL     1      -9.751  12.159  65.878  1.00  0.00    -0.239 C  
HETATM   14  N   UNL     1      -9.286  11.449  66.870  1.00  0.00    -0.172 NA 
HETATM   15  N   UNL     1      -9.013  10.153  66.514  1.00  0.00    -0.142 NA 
HETATM   16  C   UNL     1      -8.514   9.161  67.327  1.00  0.00    -0.121 A  
HETATM   17  C   UNL     1      -9.975  11.546  64.503  1.00  0.00    -0.263 C  
HETATM   18  C   UNL     1      -8.344   8.076  66.495  1.00  0.00    -0.121 A  
HETATM   19  N   UNL     1      -8.770   8.347  65.225  1.00  0.00    -0.150 NA 
HETATM   20  N   UNL     1      -9.706  10.316  64.219  1.00  0.00    -0.317 NA 
HETATM   21  C   UNL     1      -9.187   9.595  65.245  1.00  0.00    -0.237 A  
BRANCH  16  22
HETATM   22  C   UNL     1      -8.302   9.293  68.790  1.00  0.00    -0.117 C  
BRANCH  22  23
HETATM   23  C   UNL     1      -9.530   9.017  69.625  1.00  0.00    -0.174 A  
HETATM   24  C   UNL     1     -10.934   7.446  70.826  1.00  0.00    -0.272 A  
HETATM   25  C   UNL     1      -9.836   7.708  70.002  1.00  0.00    -0.180 A  
HETATM   26  C   UNL     1     -11.775   8.455  71.269  1.00  0.00    -0.285 A  
HETATM   27  N   UNL     1     -12.824   8.138  72.049  1.00  0.00    -0.328 NA 
HETATM   28  C   UNL     1     -13.653   9.133  72.430  1.00  0.00    -0.483 A  
HETATM   29  C   UNL     1     -13.486  10.455  72.066  1.00  0.00    -0.360 A  
HETATM   30  C   UNL     1     -12.385  10.782  71.281  1.00  0.00    -0.470 A  
HETATM   31  C   UNL     1     -11.500   9.777  70.863  1.00  0.00    -0.447 A  
HETATM   32  C   UNL     1     -10.374  10.051  70.058  1.00  0.00    -0.323 A  
ENDBRANCH  22  23
ENDBRANCH  16  22
ENDBRANCH   9  13
ENDBRANCH   3   6
TORSDOF 4
ENDMDL
MODEL       23
REMARK 921   NORMALIZED FREE ENERGY PREDICTED BY IDOCK:   -7.62 KCAL/MOL
REMARK 922        TOTAL FREE ENERGY PREDICTED BY IDOCK:  -10.06 KCAL/MOL
REMARK 923 INTER-LIGAND FREE ENERGY PREDICTED BY IDOCK:   -9.13 KCAL/MOL
REMARK 924 INTRA-LIGAND FREE ENERGY PREDICTED BY IDOCK:   -0.94 KCAL/MOL
REMARK 927      BINDING AFFINITY PREDICTED BY RF-SCORE:    0.00 PKD
ROOT
HETATM    1  C   UNL     1     -10.280   6.587  74.234  1.00  0.00    -0.350 C  
HETATM    2  N   UNL     1     -10.013   7.085  72.908  1.00  0.00    -0.176 N  
HETATM    3  C   UNL     1     -10.970   7.765  72.187  1.00  0.00    -0.266 C  
HETATM    4  H   UNL     1      -9.094   6.931  72.494  1.00  0.00     0.000 HD 
HETATM    5  O   UNL     1     -12.079   8.030  72.637  1.00  0.00    -0.328 OA 
ENDROOT
BRANCH   3   6
HETATM    6  C   UNL     1     -10.624   8.159  70.791  1.00  0.00    -0.234 A  
HETATM    7  C   UNL     1     -10.084   9.435  70.558  1.00  0.00    -0.335 A  
HETATM    8  C   UNL     1      -9.818   9.873  69.252  1.00  0.00    -0.217 A  
HETATM    9  C   UNL     1     -10.099   9.044  68.159  1.00  0.00    -0.229 A  
HETATM   10  C   UNL     1     -10.583   7.753  68.391  1.00  0.00    -0.157 A  
HETATM   11  F   UNL     1     -11.352   6.093  69.846  1.00  0.00    -0.396 F  
HETATM   12  C   UNL     1     -10.848   7.327  69.693  1.00  0.00    -0.222 A  
BRANCH   9  13
HETATM   13  C   UNL     1      -9.942   9.576  66.776  1.00  0.00    -0.233 C  
HETATM   14  N   UNL     1     -10.749  10.493  66.315  1.00  0.00    -0.127 NA 
HETATM   15  N   UNL     1     -10.504  10.805  65.002  1.00  0.00    -0.274 NA 
HETATM   16  C   UNL     1     -11.177  11.725  64.232  1.00  0.00    -0.344 A  
HETATM   17  C   UNL     1      -8.845   8.978  65.908  1.00  0.00    -0.175 C  
HETATM   18  C   UNL     1     -10.615  11.616  62.979  1.00  0.00    -0.157 A  
HETATM   19  N   UNL     1      -9.592  10.711  62.967  1.00  0.00    -0.327 NA 
HETATM   20  N   UNL     1      -8.651   9.309  64.676  1.00  0.00    -0.178 NA 
HETATM   21  C   UNL     1      -9.518  10.235  64.192  1.00  0.00    -0.301 A  
BRANCH  16  22
HETATM   22  C   UNL     1     -12.223  12.649  64.739  1.00  0.00    -0.528 C  
BRANCH  22  23
HETATM   23  C   UNL     1     -11.696  13.783  65.587  1.00  0.00    -0.360 A  
HETATM   24  C   UNL     1     -10.486  15.878  65.760  1.00  0.00    -0.386 A  
HETATM   25  C   UNL     1     -10.928  14.791  65.001  1.00  0.00    -0.426 A  
HETATM   26  C   UNL     1     -10.757  15.982  67.116  1.00  0.00    -0.283 A  
HETATM   27  N   UNL     1     -10.293  17.046  67.796  1.00  0.00    -0.322 NA 
HETATM   28  C   UNL     1     -10.532  17.101  69.124  1.00  0.00    -0.296 A  
HETATM   29  C   UNL     1     -11.225  16.131  69.821  1.00  0.00    -0.343 A  
HETATM   30  C   UNL     1     -11.725  15.046  69.109  1.00  0.00    -0.345 A  
HETATM   31  C   UNL     1     -11.498  14.950  67.728  1.00  0.00    -0.353 A  
HETATM   32  C   UNL     1     -11.974  13.867  66.959  1.00  0.00    -0.459 A  
ENDBRANCH  22  23
ENDBRANCH  16  22
ENDBRANCH   9  13
ENDBRANCH   3   6
TORSDOF 4
ENDMDL
MODEL       24
REMARK 921   NORMALIZED FREE ENERGY PREDICTED BY IDOCK:   -7.61 KCAL/MOL
REMARK 922        TOTAL FREE ENERGY PREDICTED BY IDOCK:  -10.05 KCAL/MOL
REMARK 923 INTER-LIGAND FREE ENERGY PREDICTED BY IDOCK:   -9.52 KCAL/MOL
REMARK 924 INTRA-LIGAND FREE ENERGY PREDICTED BY IDOCK:   -0.53 KCAL/MOL
REMARK 927      BINDING AFFINITY PREDICTED BY RF-SCORE:    0.00 PKD
ROOT
HETATM    1  C   UNL     1      -6.502  20.686  65.972  1.00  0.00    -0.232 C  
HETATM    2  N   UNL     1      -7.265  19.904  66.913  1.00  0.00    -0.223 N  
HETATM    3  C   UNL     1      -7.617  18.599  66.647  1.00  0.00    -0.241 C  
HETATM    4  H   UNL     1      -7.551  20.326  67.795  1.00  0.00     0.000 HD 
HETATM    5  O   UNL     1      -7.269  18.008  65.630  1.00  0.00    -0.516 OA 
ENDROOT
BRANCH   3   6
HETATM    6  C   UNL     1      -8.484  17.906  67.644  1.00  0.00    -0.234 A  
HETATM    7  C   UNL     1      -7.933  16.879  68.428  1.00  0.00    -0.232 A  
HETATM    8  C   UNL     1      -8.733  16.151  69.320  1.00  0.00    -0.190 A  
HETATM    9  C   UNL     1     -10.099  16.434  69.434  1.00  0.00    -0.243 A  
HETATM   10  C   UNL     1     -10.639  17.493  68.699  1.00  0.00    -0.288 A  
HETATM   11  F   UNL     1     -10.423  19.186  67.100  1.00  0.00    -0.392 F  
HETATM   12  C   UNL     1      -9.836  18.210  67.810  1.00  0.00    -0.310 A  
BRANCH   9  13
HETATM   13  C   UNL     1     -10.960  15.561  70.281  1.00  0.00    -0.334 C  
HETATM   14  N   UNL     1     -11.176  14.314  69.958  1.00  0.00    -0.160 NA 
HETATM   15  N   UNL     1     -12.052  13.689  70.808  1.00  0.00    -0.331 NA 
HETATM   16  C   UNL     1     -12.482  12.384  70.737  1.00  0.00    -0.267 A  
HETATM   17  C   UNL     1     -11.618  16.187  71.503  1.00  0.00    -0.430 C  
HETATM   18  C   UNL     1     -13.403  12.260  71.755  1.00  0.00    -0.254 A  
HETATM   19  N   UNL     1     -13.509  13.415  72.477  1.00  0.00    -0.579 NA 
HETATM   20  N   UNL     1     -12.434  15.553  72.277  1.00  0.00    -0.357 NA 
HETATM   21  C   UNL     1     -12.682  14.269  71.912  1.00  0.00    -0.338 A  
BRANCH  16  22
HETATM   22  C   UNL     1     -11.961  11.373  69.783  1.00  0.00    -0.422 C  
BRANCH  22  23
HETATM   23  C   UNL     1     -11.104  10.302  70.416  1.00  0.00    -0.391 A  
HETATM   24  C   UNL     1      -8.968   9.166  70.595  1.00  0.00    -0.292 A  
HETATM   25  C   UNL     1      -9.792  10.111  69.977  1.00  0.00    -0.179 A  
HETATM   26  C   UNL     1      -9.422   8.366  71.632  1.00  0.00    -0.214 A  
HETATM   27  N   UNL     1      -8.585   7.466  72.179  1.00  0.00    -0.112 NA 
HETATM   28  C   UNL     1      -9.065   6.668  73.156  1.00  0.00    -0.127 A  
HETATM   29  C   UNL     1     -10.362   6.724  73.628  1.00  0.00    -0.372 A  
HETATM   30  C   UNL     1     -11.216   7.674  73.078  1.00  0.00    -0.388 A  
HETATM   31  C   UNL     1     -10.757   8.522  72.058  1.00  0.00    -0.410 A  
HETATM   32  C   UNL     1     -11.583   9.496  71.459  1.00  0.00    -0.465 A  
ENDBRANCH  22  23
ENDBRANCH  16  22
ENDBRANCH   9  13
ENDBRANCH   3   6
TORSDOF 4
ENDMDL
MODEL       25
REMARK 921   NORMALIZED FREE ENERGY PREDICTED BY IDOCK:   -7.57 KCAL/MOL
REMARK 922        TOTAL FREE ENERGY PREDICTED BY IDOCK:  -10.00 KCAL/MOL
REMARK 923 INTER-LIGAND FREE ENERGY PREDICTED BY IDOCK:   -9.14 KCAL/MOL
REMARK 924 INTRA-LIGAND FREE ENERGY PREDICTED BY IDOCK:   -0.86 KCAL/MOL
REMARK 927      BINDING AFFINITY PREDICTED BY RF-SCORE:    0.00 PKD
ROOT
HETATM    1  C   UNL     1      -7.147   4.548  67.701  1.00  0.00    -0.065 C  
HETATM    2  N   UNL     1      -7.686   5.844  67.370  1.00  0.00    -0.096 N  
HETATM    3  C   UNL     1      -8.419   6.048  66.222  1.00  0.00    -0.130 C  
HETATM    4  H   UNL     1      -7.521   6.628  68.001  1.00  0.00     0.000 HD 
HETATM    5  O   UNL     1      -8.700   5.144  65.441  1.00  0.00    -0.140 OA 
ENDROOT
BRANCH   3   6
HETATM    6  C   UNL     1      -8.854   7.444  65.926  1.00  0.00    -0.149 A  
HETATM    7  C   UNL     1      -9.787   8.061  66.776  1.00  0.00    -0.327 A  
HETATM    8  C   UNL     1     -10.280   9.341  66.490  1.00  0.00    -0.316 A  
HETATM    9  C   UNL     1      -9.855  10.020  65.341  1.00  0.00    -0.384 A  
HETATM   10  C   UNL     1      -8.885   9.433  64.523  1.00  0.00    -0.235 A  
HETATM   11  F   UNL     1      -7.505   7.629  63.967  1.00  0.00    -0.079 F  
HETATM   12  C   UNL     1      -8.403   8.156  64.814  1.00  0.00    -0.104 A  
BRANCH   9  13
HETATM   13  C   UNL     1     -10.493  11.317  64.977  1.00  0.00    -0.298 C  
HETATM   14  N   UNL     1     -10.420  12.348  65.775  1.00  0.00    -0.253 NA 
HETATM   15  N   UNL     1     -11.128  13.428  65.314  1.00  0.00    -0.287 NA 
HETATM   16  C   UNL     1     -11.251  14.656  65.923  1.00  0.00    -0.336 A  
HETATM   17  C   UNL     1     -11.272  11.380  63.671  1.00  0.00    -0.276 C  
HETATM   18  C   UNL     1     -12.116  15.364  65.118  1.00  0.00     0.242 A  
HETATM   19  N   UNL     1     -12.481  14.641  64.017  1.00  0.00    -0.813 NA 
HETATM   20  N   UNL     1     -11.921  12.425  63.278  1.00  0.00    -0.468 NA 
HETATM   21  C   UNL     1     -11.872  13.480  64.132  1.00  0.00    -0.437 A  
BRANCH  16  22
HETATM   22  C   UNL     1     -10.516  15.071  67.144  1.00  0.00    -0.277 C  
BRANCH  22  23
HETATM   23  C   UNL     1     -11.258  14.817  68.435  1.00  0.00    -0.298 A  
HETATM   24  C   UNL     1     -12.505  15.667  70.335  1.00  0.00    -0.409 A  
HETATM   25  C   UNL     1     -11.763  15.891  69.172  1.00  0.00    -0.369 A  
HETATM   26  C   UNL     1     -12.738  14.389  70.819  1.00  0.00    -0.360 A  
HETATM   27  N   UNL     1     -13.448  14.238  71.952  1.00  0.00    -0.369 NA 
HETATM   28  C   UNL     1     -13.623  12.987  72.427  1.00  0.00    -0.529 A  
HETATM   29  C   UNL     1     -13.117  11.855  71.818  1.00  0.00    -0.465 A  
HETATM   30  C   UNL     1     -12.405  12.014  70.633  1.00  0.00    -0.394 A  
HETATM   31  C   UNL     1     -12.200  13.298  70.106  1.00  0.00    -0.376 A  
HETATM   32  C   UNL     1     -11.478  13.517  68.914  1.00  0.00    -0.348 A  
ENDBRANCH  22  23
ENDBRANCH  16  22
ENDBRANCH   9  13
ENDBRANCH   3   6
TORSDOF 4
ENDMDL
MODEL       26
REMARK 921   NORMALIZED FREE ENERGY PREDICTED BY IDOCK:   -7.57 KCAL/MOL
REMARK 922        TOTAL FREE ENERGY PREDICTED BY IDOCK:  -10.00 KCAL/MOL
REMARK 923 INTER-LIGAND FREE ENERGY PREDICTED BY IDOCK:   -9.13 KCAL/MOL
REMARK 924 INTRA-LIGAND FREE ENERGY PREDICTED BY IDOCK:   -0.88 KCAL/MOL
REMARK 927      BINDING AFFINITY PREDICTED BY RF-SCORE:    0.00 PKD
ROOT
HETATM    1  C   UNL     1      -9.192  20.201  66.341  1.00  0.00    -0.303 C  
HETATM    2  N   UNL     1      -8.923  18.848  66.761  1.00  0.00    -0.302 N  
HETATM    3  C   UNL     1      -7.917  18.101  66.189  1.00  0.00    -0.187 C  
HETATM    4  H   UNL     1      -9.491  18.434  67.500  1.00  0.00     0.000 HD 
HETATM    5  O   UNL     1      -7.163  18.547  65.331  1.00  0.00    -0.530 OA 
ENDROOT
BRANCH   3   6
HETATM    6  C   UNL     1      -7.780  16.683  66.631  1.00  0.00    -0.316 A  
HETATM    7  C   UNL     1      -8.856  15.802  66.433  1.00  0.00    -0.371 A  
HETATM    8  C   UNL     1      -8.797  14.482  66.904  1.00  0.00    -0.257 A  
HETATM    9  C   UNL     1      -7.664  14.028  67.590  1.00  0.00    -0.188 A  
HETATM   10  C   UNL     1      -6.569  14.885  67.738  1.00  0.00    -0.187 A  
HETATM   11  F   UNL     1      -5.572  16.984  67.482  1.00  0.00    -0.116 F  
HETATM   12  C   UNL     1      -6.638  16.198  67.270  1.00  0.00    -0.196 A  
BRANCH   9  13
HETATM   13  C   UNL     1      -7.674  12.671  68.204  1.00  0.00    -0.142 C  
HETATM   14  N   UNL     1      -8.798  12.047  68.436  1.00  0.00    -0.173 NA 
HETATM   15  N   UNL     1      -8.618  10.847  69.074  1.00  0.00    -0.139 NA 
HETATM   16  C   UNL     1      -9.597   9.960  69.457  1.00  0.00    -0.225 A  
HETATM   17  C   UNL     1      -6.335  12.062  68.597  1.00  0.00    -0.059 C  
HETATM   18  C   UNL     1      -8.925   8.957  70.122  1.00  0.00    -0.172 A  
HETATM   19  N   UNL     1      -7.575   9.167  70.111  1.00  0.00    -0.080 NA 
HETATM   20  N   UNL     1      -6.218  10.923  69.194  1.00  0.00    -0.043 NA 
HETATM   21  C   UNL     1      -7.393  10.299  69.466  1.00  0.00    -0.132 A  
BRANCH  16  22
HETATM   22  C   UNL     1     -11.037  10.094  69.122  1.00  0.00    -0.257 C  
BRANCH  22  23
HETATM   23  C   UNL     1     -11.801  11.039  70.020  1.00  0.00    -0.435 A  
HETATM   24  C   UNL     1     -13.178  11.407  71.982  1.00  0.00    -0.432 A  
HETATM   25  C   UNL     1     -12.519  10.539  71.108  1.00  0.00    -0.517 A  
HETATM   26  C   UNL     1     -13.177  12.780  71.789  1.00  0.00    -0.374 A  
HETATM   27  N   UNL     1     -13.841  13.563  72.658  1.00  0.00    -0.753 NA 
HETATM   28  C   UNL     1     -13.863  14.892  72.424  1.00  0.00    -0.483 A  
HETATM   29  C   UNL     1     -13.242  15.493  71.346  1.00  0.00    -0.587 A  
HETATM   30  C   UNL     1     -12.534  14.682  70.465  1.00  0.00    -0.408 A  
HETATM   31  C   UNL     1     -12.489  13.295  70.672  1.00  0.00    -0.373 A  
HETATM   32  C   UNL     1     -11.794  12.425  69.805  1.00  0.00    -0.387 A  
ENDBRANCH  22  23
ENDBRANCH  16  22
ENDBRANCH   9  13
ENDBRANCH   3   6
TORSDOF 4
ENDMDL
MODEL       27
REMARK 921   NORMALIZED FREE ENERGY PREDICTED BY IDOCK:   -7.57 KCAL/MOL
REMARK 922        TOTAL FREE ENERGY PREDICTED BY IDOCK:  -10.00 KCAL/MOL
REMARK 923 INTER-LIGAND FREE ENERGY PREDICTED BY IDOCK:   -9.25 KCAL/MOL
REMARK 924 INTRA-LIGAND FREE ENERGY PREDICTED BY IDOCK:   -0.75 KCAL/MOL
REMARK 927      BINDING AFFINITY PREDICTED BY RF-SCORE:    0.00 PKD
ROOT
HETATM    1  C   UNL     1      -9.801   4.062  69.396  1.00  0.00    -0.045 C  
HETATM    2  N   UNL     1     -10.247   5.425  69.541  1.00  0.00    -0.243 N  
HETATM    3  C   UNL     1     -10.764   5.892  70.729  1.00  0.00    -0.277 C  
HETATM    4  H   UNL     1     -10.177   6.059  68.745  1.00  0.00     0.000 HD 
HETATM    5  O   UNL     1     -10.835   5.204  71.741  1.00  0.00    -0.183 OA 
ENDROOT
BRANCH   3   6
HETATM    6  C   UNL     1     -11.280   7.292  70.748  1.00  0.00    -0.300 A  
HETATM    7  C   UNL     1     -10.467   8.324  70.252  1.00  0.00    -0.221 A  
HETATM    8  C   UNL     1     -10.882   9.661  70.324  1.00  0.00    -0.339 A  
HETATM    9  C   UNL     1     -12.115   9.986  70.903  1.00  0.00    -0.448 A  
HETATM   10  C   UNL     1     -12.951   8.958  71.346  1.00  0.00    -0.323 A  
HETATM   11  F   UNL     1     -13.357   6.692  71.756  1.00  0.00    -0.372 F  
HETATM   12  C   UNL     1     -12.528   7.630  71.275  1.00  0.00    -0.298 A  
BRANCH   9  13
HETATM   13  C   UNL     1     -12.478  11.418  71.099  1.00  0.00    -0.360 C  
HETATM   14  N   UNL     1     -11.797  12.369  70.517  1.00  0.00    -0.193 NA 
HETATM   15  N   UNL     1     -12.225  13.623  70.871  1.00  0.00    -0.354 NA 
HETATM   16  C   UNL     1     -11.715  14.824  70.435  1.00  0.00    -0.295 A  
HETATM   17  C   UNL     1     -13.634  11.733  72.037  1.00  0.00    -0.065 C  
HETATM   18  C   UNL     1     -12.421  15.781  71.130  1.00  0.00    -0.436 A  
HETATM   19  N   UNL     1     -13.376  15.217  71.928  1.00  0.00    -0.364 NA 
HETATM   20  N   UNL     1     -14.002  12.934  72.337  1.00  0.00    -0.503 NA 
HETATM   21  C   UNL     1     -13.265  13.917  71.758  1.00  0.00    -0.376 A  
BRANCH  16  22
HETATM   22  C   UNL     1     -10.677  14.969  69.384  1.00  0.00    -0.267 C  
BRANCH  22  23
HETATM   23  C   UNL     1     -10.965  14.205  68.113  1.00  0.00    -0.264 A  
HETATM   24  C   UNL     1     -12.437  13.733  66.243  1.00  0.00    -0.441 A  
HETATM   25  C   UNL     1     -12.182  14.386  67.452  1.00  0.00    -0.230 A  
HETATM   26  C   UNL     1     -11.520  12.863  65.674  1.00  0.00    -0.332 A  
HETATM   27  N   UNL     1     -11.828  12.254  64.515  1.00  0.00    -0.368 NA 
HETATM   28  C   UNL     1     -10.938  11.377  64.004  1.00  0.00    -0.355 A  
HETATM   29  C   UNL     1      -9.730  11.072  64.602  1.00  0.00    -0.315 A  
HETATM   30  C   UNL     1      -9.405  11.723  65.786  1.00  0.00    -0.197 A  
HETATM   31  C   UNL     1     -10.303  12.641  66.351  1.00  0.00    -0.264 A  
HETATM   32  C   UNL     1     -10.028  13.323  67.555  1.00  0.00    -0.223 A  
ENDBRANCH  22  23
ENDBRANCH  16  22
ENDBRANCH   9  13
ENDBRANCH   3   6
TORSDOF 4
ENDMDL
MODEL       28
REMARK 921   NORMALIZED FREE ENERGY PREDICTED BY IDOCK:   -7.52 KCAL/MOL
REMARK 922        TOTAL FREE ENERGY PREDICTED BY IDOCK:   -9.94 KCAL/MOL
REMARK 923 INTER-LIGAND FREE ENERGY PREDICTED BY IDOCK:   -9.09 KCAL/MOL
REMARK 924 INTRA-LIGAND FREE ENERGY PREDICTED BY IDOCK:   -0.85 KCAL/MOL
REMARK 927      BINDING AFFINITY PREDICTED BY RF-SCORE:    0.00 PKD
ROOT
HETATM    1  C   UNL     1      -6.718  20.123  69.701  1.00  0.00    -0.202 C  
HETATM    2  N   UNL     1      -7.429  19.181  68.874  1.00  0.00    -0.346 N  
HETATM    3  C   UNL     1      -8.785  19.291  68.657  1.00  0.00    -0.365 C  
HETATM    4  H   UNL     1      -6.917  18.414  68.439  1.00  0.00     0.000 HD 
HETATM    5  O   UNL     1      -9.458  20.213  69.106  1.00  0.00    -0.008 OA 
ENDROOT
BRANCH   3   6
HETATM    6  C   UNL     1      -9.441  18.214  67.861  1.00  0.00    -0.284 A  
HETATM    7  C   UNL     1      -9.577  16.936  68.427  1.00  0.00    -0.255 A  
HETATM    8  C   UNL     1     -10.117  15.876  67.684  1.00  0.00    -0.242 A  
HETATM    9  C   UNL     1     -10.520  16.079  66.358  1.00  0.00    -0.313 A  
HETATM   10  C   UNL     1     -10.439  17.362  65.810  1.00  0.00    -0.221 A  
HETATM   11  F   UNL     1      -9.805  19.607  65.959  1.00  0.00    -0.408 F  
HETATM   12  C   UNL     1      -9.896  18.409  66.556  1.00  0.00    -0.359 A  
BRANCH   9  13
HETATM   13  C   UNL     1     -10.960  14.913  65.540  1.00  0.00    -0.350 C  
HETATM   14  N   UNL     1     -10.278  13.799  65.537  1.00  0.00    -0.313 NA 
HETATM   15  N   UNL     1     -10.787  12.867  64.670  1.00  0.00    -0.322 NA 
HETATM   16  C   UNL     1     -10.298  11.603  64.436  1.00  0.00    -0.313 A  
HETATM   17  C   UNL     1     -12.199  15.086  64.673  1.00  0.00    -0.278 C  
HETATM   18  C   UNL     1     -11.098  11.094  63.437  1.00  0.00     0.063 A  
HETATM   19  N   UNL     1     -12.087  11.971  63.092  1.00  0.00    -0.354 NA 
HETATM   20  N   UNL     1     -12.642  14.173  63.874  1.00  0.00    -0.776 NA 
HETATM   21  C   UNL     1     -11.905  13.032  63.848  1.00  0.00    -0.477 A  
BRANCH  16  22
HETATM   22  C   UNL     1      -9.188  10.972  65.194  1.00  0.00    -0.227 C  
BRANCH  22  23
HETATM   23  C   UNL     1      -9.627  10.203  66.418  1.00  0.00    -0.242 A  
HETATM   24  C   UNL     1     -10.243  10.176  68.764  1.00  0.00    -0.200 A  
HETATM   25  C   UNL     1      -9.778  10.863  67.639  1.00  0.00    -0.188 A  
HETATM   26  C   UNL     1     -10.535   8.822  68.725  1.00  0.00    -0.191 A  
HETATM   27  N   UNL     1     -10.967   8.213  69.845  1.00  0.00    -0.213 NA 
HETATM   28  C   UNL     1     -11.202   6.885  69.793  1.00  0.00    -0.267 A  
HETATM   29  C   UNL     1     -11.027   6.117  68.658  1.00  0.00    -0.415 A  
HETATM   30  C   UNL     1     -10.606   6.755  67.496  1.00  0.00    -0.348 A  
HETATM   31  C   UNL     1     -10.349   8.134  67.508  1.00  0.00    -0.330 A  
HETATM   32  C   UNL     1      -9.911   8.830  66.361  1.00  0.00    -0.346 A  
ENDBRANCH  22  23
ENDBRANCH  16  22
ENDBRANCH   9  13
ENDBRANCH   3   6
TORSDOF 4
ENDMDL
MODEL       29
REMARK 921   NORMALIZED FREE ENERGY PREDICTED BY IDOCK:   -7.52 KCAL/MOL
REMARK 922        TOTAL FREE ENERGY PREDICTED BY IDOCK:   -9.94 KCAL/MOL
REMARK 923 INTER-LIGAND FREE ENERGY PREDICTED BY IDOCK:   -9.23 KCAL/MOL
REMARK 924 INTRA-LIGAND FREE ENERGY PREDICTED BY IDOCK:   -0.71 KCAL/MOL
REMARK 927      BINDING AFFINITY PREDICTED BY RF-SCORE:    0.00 PKD
ROOT
HETATM    1  C   UNL     1     -13.604  15.591  72.426  1.00  0.00    -0.538 C  
HETATM    2  N   UNL     1     -12.952  14.517  71.720  1.00  0.00    -0.324 N  
HETATM    3  C   UNL     1     -13.359  13.209  71.862  1.00  0.00    -0.455 C  
HETATM    4  H   UNL     1     -12.170  14.730  71.101  1.00  0.00     0.000 HD 
HETATM    5  O   UNL     1     -14.320  12.881  72.550  1.00  0.00    -0.469 OA 
ENDROOT
BRANCH   3   6
HETATM    6  C   UNL     1     -12.561  12.162  71.160  1.00  0.00    -0.360 A  
HETATM    7  C   UNL     1     -11.787  12.530  70.046  1.00  0.00    -0.363 A  
HETATM    8  C   UNL     1     -11.085  11.564  69.312  1.00  0.00    -0.305 A  
HETATM    9  C   UNL     1     -11.155  10.213  69.675  1.00  0.00    -0.308 A  
HETATM   10  C   UNL     1     -11.877   9.851  70.816  1.00  0.00    -0.415 A  
HETATM   11  F   UNL     1     -13.287  10.403  72.598  1.00  0.00    -0.348 F  
HETATM   12  C   UNL     1     -12.576  10.819  71.539  1.00  0.00    -0.395 A  
BRANCH   9  13
HETATM   13  C   UNL     1     -10.518   9.186  68.803  1.00  0.00    -0.212 C  
HETATM   14  N   UNL     1      -9.828   9.533  67.750  1.00  0.00    -0.154 NA 
HETATM   15  N   UNL     1      -9.383   8.456  67.027  1.00  0.00    -0.151 NA 
HETATM   16  C   UNL     1      -8.636   8.488  65.872  1.00  0.00    -0.163 A  
HETATM   17  C   UNL     1     -10.744   7.722  69.155  1.00  0.00    -0.126 C  
HETATM   18  C   UNL     1      -8.514   7.169  65.494  1.00  0.00    -0.107 A  
HETATM   19  N   UNL     1      -9.106   6.332  66.398  1.00  0.00    -0.151 NA 
HETATM   20  N   UNL     1     -10.299   6.742  68.442  1.00  0.00    -0.178 NA 
HETATM   21  C   UNL     1      -9.615   7.111  67.328  1.00  0.00    -0.143 A  
BRANCH  16  22
HETATM   22  C   UNL     1      -8.063   9.718  65.270  1.00  0.00    -0.126 C  
BRANCH  22  23
HETATM   23  C   UNL     1      -9.090  10.747  64.859  1.00  0.00    -0.221 A  
HETATM   24  C   UNL     1     -10.830  11.473  63.334  1.00  0.00    -0.423 A  
HETATM   25  C   UNL     1      -9.835  10.561  63.693  1.00  0.00    -0.354 A  
HETATM   26  C   UNL     1     -11.093  12.605  64.090  1.00  0.00    -0.382 A  
HETATM   27  N   UNL     1     -12.056  13.454  63.686  1.00  0.00    -0.604 NA 
HETATM   28  C   UNL     1     -12.261  14.571  64.414  1.00  0.00    -0.458 A  
HETATM   29  C   UNL     1     -11.542  14.892  65.550  1.00  0.00    -0.263 A  
HETATM   30  C   UNL     1     -10.566  13.999  65.978  1.00  0.00    -0.297 A  
HETATM   31  C   UNL     1     -10.320  12.826  65.249  1.00  0.00    -0.313 A  
HETATM   32  C   UNL     1      -9.336  11.891  65.633  1.00  0.00    -0.125 A  
ENDBRANCH  22  23
ENDBRANCH  16  22
ENDBRANCH   9  13
ENDBRANCH   3   6
TORSDOF 4
ENDMDL
MODEL       30
REMARK 921   NORMALIZED FREE ENERGY PREDICTED BY IDOCK:   -7.50 KCAL/MOL
REMARK 922        TOTAL FREE ENERGY PREDICTED BY IDOCK:   -9.91 KCAL/MOL
REMARK 923 INTER-LIGAND FREE ENERGY PREDICTED BY IDOCK:   -9.13 KCAL/MOL
REMARK 924 INTRA-LIGAND FREE ENERGY PREDICTED BY IDOCK:   -0.78 KCAL/MOL
REMARK 927      BINDING AFFINITY PREDICTED BY RF-SCORE:    0.00 PKD
ROOT
HETATM    1  C   UNL     1      -6.813   4.379  68.248  1.00  0.00    -0.051 C  
HETATM    2  N   UNL     1      -7.453   5.599  67.822  1.00  0.00    -0.077 N  
HETATM    3  C   UNL     1      -8.255   5.640  66.703  1.00  0.00    -0.105 C  
HETATM    4  H   UNL     1      -7.308   6.451  68.362  1.00  0.00     0.000 HD 
HETATM    5  O   UNL     1      -8.514   4.646  66.032  1.00  0.00    -0.113 OA 
ENDROOT
BRANCH   3   6
HETATM    6  C   UNL     1      -8.796   6.969  66.297  1.00  0.00    -0.164 A  
HETATM    7  C   UNL     1      -8.133   7.695  65.293  1.00  0.00    -0.133 A  
HETATM    8  C   UNL     1      -8.563   8.982  64.936  1.00  0.00    -0.206 A  
HETATM    9  C   UNL     1      -9.657   9.565  65.588  1.00  0.00    -0.346 A  
HETATM   10  C   UNL     1     -10.353   8.824  66.546  1.00  0.00    -0.254 A  
HETATM   11  F   UNL     1     -10.600   6.902  67.856  1.00  0.00    -0.198 F  
HETATM   12  C   UNL     1      -9.916   7.546  66.898  1.00  0.00    -0.248 A  
BRANCH   9  13
HETATM   13  C   UNL     1     -10.013  10.982  65.296  1.00  0.00    -0.266 C  
HETATM   14  N   UNL     1      -9.860  11.913  66.199  1.00  0.00    -0.226 NA 
HETATM   15  N   UNL     1     -10.310  13.139  65.781  1.00  0.00    -0.285 NA 
HETATM   16  C   UNL     1     -10.291  14.314  66.497  1.00  0.00    -0.278 A  
HETATM   17  C   UNL     1     -10.607  11.296  63.930  1.00  0.00    -0.391 C  
HETATM   18  C   UNL     1     -10.918  15.232  65.684  1.00  0.00    -0.344 A  
HETATM   19  N   UNL     1     -11.267  14.682  64.483  1.00  0.00    -0.325 NA 
HETATM   20  N   UNL     1     -11.013  12.471  63.582  1.00  0.00    -0.448 NA 
HETATM   21  C   UNL     1     -10.885  13.424  64.540  1.00  0.00    -0.406 A  
BRANCH  16  22
HETATM   22  C   UNL     1      -9.648  14.485  67.824  1.00  0.00    -0.215 C  
BRANCH  22  23
HETATM   23  C   UNL     1     -10.590  14.342  68.997  1.00  0.00    -0.245 A  
HETATM   24  C   UNL     1     -12.169  13.004  70.262  1.00  0.00    -0.368 A  
HETATM   25  C   UNL     1     -11.341  13.174  69.149  1.00  0.00    -0.335 A  
HETATM   26  C   UNL     1     -12.307  13.988  71.229  1.00  0.00    -0.355 A  
HETATM   27  N   UNL     1     -13.130  13.771  72.271  1.00  0.00    -0.400 NA 
HETATM   28  C   UNL     1     -13.282  14.761  73.175  1.00  0.00    -0.436 A  
HETATM   29  C   UNL     1     -12.640  15.982  73.093  1.00  0.00    -0.625 A  
HETATM   30  C   UNL     1     -11.770  16.192  72.029  1.00  0.00    -0.574 A  
HETATM   31  C   UNL     1     -11.585  15.188  71.066  1.00  0.00    -0.390 A  
HETATM   32  C   UNL     1     -10.722  15.352  69.961  1.00  0.00    -0.323 A  
ENDBRANCH  22  23
ENDBRANCH  16  22
ENDBRANCH   9  13
ENDBRANCH   3   6
TORSDOF 4
ENDMDL
MODEL       31
REMARK 921   NORMALIZED FREE ENERGY PREDICTED BY IDOCK:   -7.48 KCAL/MOL
REMARK 922        TOTAL FREE ENERGY PREDICTED BY IDOCK:   -9.89 KCAL/MOL
REMARK 923 INTER-LIGAND FREE ENERGY PREDICTED BY IDOCK:   -9.39 KCAL/MOL
REMARK 924 INTRA-LIGAND FREE ENERGY PREDICTED BY IDOCK:   -0.50 KCAL/MOL
REMARK 927      BINDING AFFINITY PREDICTED BY RF-SCORE:    0.00 PKD
ROOT
HETATM    1  C   UNL     1     -12.369  15.372  74.450  1.00  0.00    -0.616 C  
HETATM    2  N   UNL     1     -12.266  14.907  73.089  1.00  0.00    -0.328 N  
HETATM    3  C   UNL     1     -11.860  15.741  72.071  1.00  0.00    -0.490 C  
HETATM    4  H   UNL     1     -12.500  13.938  72.875  1.00  0.00     0.000 HD 
HETATM    5  O   UNL     1     -11.517  16.903  72.258  1.00  0.00    -0.131 OA 
ENDROOT
BRANCH   3   6
HETATM    6  C   UNL     1     -11.875  15.188  70.685  1.00  0.00    -0.371 A  
HETATM    7  C   UNL     1     -12.308  13.867  70.484  1.00  0.00    -0.439 A  
HETATM    8  C   UNL     1     -12.264  13.284  69.210  1.00  0.00    -0.194 A  
HETATM    9  C   UNL     1     -11.774  14.013  68.118  1.00  0.00    -0.387 A  
HETATM   10  C   UNL     1     -11.395  15.345  68.304  1.00  0.00    -0.354 A  
HETATM   11  F   UNL     1     -11.021  17.185  69.698  1.00  0.00    -0.258 F  
HETATM   12  C   UNL     1     -11.439  15.916  69.577  1.00  0.00    -0.342 A  
BRANCH   9  13
HETATM   13  C   UNL     1     -11.603  13.334  66.803  1.00  0.00    -0.365 C  
HETATM   14  N   UNL     1     -10.644  12.468  66.614  1.00  0.00    -0.235 NA 
HETATM   15  N   UNL     1     -10.592  12.005  65.324  1.00  0.00    -0.276 NA 
HETATM   16  C   UNL     1      -9.701  11.092  64.809  1.00  0.00    -0.257 A  
HETATM   17  C   UNL     1     -12.550  13.724  65.677  1.00  0.00    -0.509 C  
HETATM   18  C   UNL     1     -10.007  11.019  63.467  1.00  0.00    -0.370 A  
HETATM   19  N   UNL     1     -11.081  11.803  63.155  1.00  0.00    -0.251 NA 
HETATM   20  N   UNL     1     -12.463  13.256  64.477  1.00  0.00    -0.601 NA 
HETATM   21  C   UNL     1     -11.440  12.385  64.279  1.00  0.00    -0.363 A  
BRANCH  16  22
HETATM   22  C   UNL     1      -8.703  10.340  65.611  1.00  0.00    -0.176 C  
BRANCH  22  23
HETATM   23  C   UNL     1      -9.270   9.669  66.840  1.00  0.00    -0.172 A  
HETATM   24  C   UNL     1     -10.869   8.147  67.844  1.00  0.00    -0.038 A  
HETATM   25  C   UNL     1     -10.374   8.821  66.725  1.00  0.00    -0.328 A  
HETATM   26  C   UNL     1     -10.317   8.314  69.104  1.00  0.00    -0.217 A  
HETATM   27  N   UNL     1     -10.846   7.647  70.145  1.00  0.00    -0.248 NA 
HETATM   28  C   UNL     1     -10.319   7.862  71.369  1.00  0.00    -0.198 A  
HETATM   29  C   UNL     1      -9.268   8.725  71.613  1.00  0.00    -0.333 A  
HETATM   30  C   UNL     1      -8.707   9.393  70.530  1.00  0.00    -0.276 A  
HETATM   31  C   UNL     1      -9.226   9.198  69.241  1.00  0.00    -0.146 A  
HETATM   32  C   UNL     1      -8.702   9.857  68.109  1.00  0.00    -0.122 A  
ENDBRANCH  22  23
ENDBRANCH  16  22
ENDBRANCH   9  13
ENDBRANCH   3   6
TORSDOF 4
ENDMDL
MODEL       32
REMARK 921   NORMALIZED FREE ENERGY PREDICTED BY IDOCK:   -7.47 KCAL/MOL
REMARK 922        TOTAL FREE ENERGY PREDICTED BY IDOCK:   -9.88 KCAL/MOL
REMARK 923 INTER-LIGAND FREE ENERGY PREDICTED BY IDOCK:   -9.22 KCAL/MOL
REMARK 924 INTRA-LIGAND FREE ENERGY PREDICTED BY IDOCK:   -0.66 KCAL/MOL
REMARK 927      BINDING AFFINITY PREDICTED BY RF-SCORE:    0.00 PKD
ROOT
HETATM    1  C   UNL     1     -10.096  20.077  66.009  1.00  0.00    -0.450 C  
HETATM    2  N   UNL     1     -10.580  19.003  66.840  1.00  0.00    -0.427 N  
HETATM    3  C   UNL     1     -10.055  17.733  66.755  1.00  0.00    -0.349 C  
HETATM    4  H   UNL     1     -11.330  19.188  67.506  1.00  0.00     0.000 HD 
HETATM    5  O   UNL     1      -9.121  17.446  66.013  1.00  0.00    -0.487 OA 
ENDROOT
BRANCH   3   6
HETATM    6  C   UNL     1     -10.687  16.672  67.593  1.00  0.00    -0.306 A  
HETATM    7  C   UNL     1     -10.669  16.809  68.991  1.00  0.00    -0.331 A  
HETATM    8  C   UNL     1     -11.182  15.798  69.816  1.00  0.00    -0.330 A  
HETATM    9  C   UNL     1     -11.712  14.630  69.254  1.00  0.00    -0.348 A  
HETATM   10  C   UNL     1     -11.783  14.516  67.863  1.00  0.00    -0.381 A  
HETATM   11  F   UNL     1     -11.325  15.337  65.722  1.00  0.00    -0.337 F  
HETATM   12  C   UNL     1     -11.266  15.525  67.049  1.00  0.00    -0.177 A  
BRANCH   9  13
HETATM   13  C   UNL     1     -12.123  13.509  70.146  1.00  0.00    -0.354 C  
HETATM   14  N   UNL     1     -11.707  12.291  69.928  1.00  0.00    -0.301 NA 
HETATM   15  N   UNL     1     -12.247  11.381  70.801  1.00  0.00    -0.383 NA 
HETATM   16  C   UNL     1     -12.011  10.026  70.832  1.00  0.00    -0.361 A  
HETATM   17  C   UNL     1     -13.082  13.826  71.284  1.00  0.00    -0.297 C  
HETATM   18  C   UNL     1     -12.837   9.546  71.825  1.00  0.00    -0.406 A  
HETATM   19  N   UNL     1     -13.522  10.557  72.437  1.00  0.00    -0.090 NA 
HETATM   20  N   UNL     1     -13.560  12.932  72.083  1.00  0.00    -0.536 NA 
HETATM   21  C   UNL     1     -13.153  11.663  71.827  1.00  0.00    -0.382 A  
BRANCH  16  22
HETATM   22  C   UNL     1     -11.011   9.322  69.989  1.00  0.00    -0.254 C  
BRANCH  22  23
HETATM   23  C   UNL     1     -10.270   8.213  70.698  1.00  0.00    -0.211 A  
HETATM   24  C   UNL     1      -8.657   7.506  72.366  1.00  0.00    -0.152 A  
HETATM   25  C   UNL     1      -9.306   8.522  71.660  1.00  0.00    -0.311 A  
HETATM   26  C   UNL     1      -8.913   6.166  72.121  1.00  0.00    -0.142 A  
HETATM   27  N   UNL     1      -8.247   5.233  72.826  1.00  0.00    -0.109 NA 
HETATM   28  C   UNL     1      -8.481   3.935  72.537  1.00  0.00    -0.098 A  
HETATM   29  C   UNL     1      -9.365   3.511  71.563  1.00  0.00    -0.209 A  
HETATM   30  C   UNL     1     -10.070   4.479  70.856  1.00  0.00    -0.228 A  
HETATM   31  C   UNL     1      -9.855   5.839  71.124  1.00  0.00    -0.227 A  
HETATM   32  C   UNL     1     -10.536   6.862  70.431  1.00  0.00    -0.247 A  
ENDBRANCH  22  23
ENDBRANCH  16  22
ENDBRANCH   9  13
ENDBRANCH   3   6
TORSDOF 4
ENDMDL
MODEL       33
REMARK 921   NORMALIZED FREE ENERGY PREDICTED BY IDOCK:   -7.46 KCAL/MOL
REMARK 922        TOTAL FREE ENERGY PREDICTED BY IDOCK:   -9.87 KCAL/MOL
REMARK 923 INTER-LIGAND FREE ENERGY PREDICTED BY IDOCK:   -9.53 KCAL/MOL
REMARK 924 INTRA-LIGAND FREE ENERGY PREDICTED BY IDOCK:   -0.34 KCAL/MOL
REMARK 927      BINDING AFFINITY PREDICTED BY RF-SCORE:    0.00 PKD
ROOT
HETATM    1  C   UNL     1      -9.117   5.558  66.055  1.00  0.00    -0.156 C  
HETATM    2  N   UNL     1      -9.285   6.989  66.028  1.00  0.00    -0.354 N  
HETATM    3  C   UNL     1     -10.131   7.633  66.904  1.00  0.00    -0.278 C  
HETATM    4  H   UNL     1      -8.765   7.539  65.344  1.00  0.00     0.000 HD 
HETATM    5  O   UNL     1     -10.751   7.046  67.784  1.00  0.00    -0.223 OA 
ENDROOT
BRANCH   3   6
HETATM    6  C   UNL     1     -10.303   9.105  66.734  1.00  0.00    -0.308 A  
HETATM    7  C   UNL     1      -9.889   9.704  65.532  1.00  0.00    -0.352 A  
HETATM    8  C   UNL     1      -9.960  11.094  65.362  1.00  0.00    -0.309 A  
HETATM    9  C   UNL     1     -10.438  11.907  66.398  1.00  0.00    -0.258 A  
HETATM   10  C   UNL     1     -10.904  11.310  67.573  1.00  0.00    -0.292 A  
HETATM   11  F   UNL     1     -11.247   9.417  68.902  1.00  0.00    -0.178 F  
HETATM   12  C   UNL     1     -10.825   9.926  67.734  1.00  0.00    -0.264 A  
BRANCH   9  13
HETATM   13  C   UNL     1     -10.377  13.389  66.254  1.00  0.00    -0.291 C  
HETATM   14  N   UNL     1     -10.192  14.157  67.293  1.00  0.00    -0.254 NA 
HETATM   15  N   UNL     1     -10.240  15.492  66.983  1.00  0.00    -0.265 NA 
HETATM   16  C   UNL     1     -10.086  16.549  67.851  1.00  0.00    -0.256 A  
HETATM   17  C   UNL     1     -10.586  13.974  64.864  1.00  0.00    -0.424 C  
HETATM   18  C   UNL     1     -10.295  17.672  67.081  1.00  0.00    -0.343 A  
HETATM   19  N   UNL     1     -10.514  17.348  65.772  1.00  0.00    -0.551 NA 
HETATM   20  N   UNL     1     -10.619  15.241  64.622  1.00  0.00    -0.249 NA 
HETATM   21  C   UNL     1     -10.465  16.034  65.714  1.00  0.00    -0.374 A  
BRANCH  16  22
HETATM   22  C   UNL     1      -9.706  16.420  69.280  1.00  0.00    -0.221 C  
BRANCH  22  23
HETATM   23  C   UNL     1     -10.735  15.723  70.139  1.00  0.00    -0.354 A  
HETATM   24  C   UNL     1     -12.496  15.838  71.802  1.00  0.00    -0.524 A  
HETATM   25  C   UNL     1     -11.499  16.459  71.047  1.00  0.00    -0.232 A  
HETATM   26  C   UNL     1     -12.743  14.477  71.711  1.00  0.00    -0.343 A  
HETATM   27  N   UNL     1     -13.709  13.934  72.474  1.00  0.00    -0.647 NA 
HETATM   28  C   UNL     1     -13.899  12.599  72.399  1.00  0.00    -0.169 A  
HETATM   29  C   UNL     1     -13.162  11.762  71.585  1.00  0.00    -0.368 A  
HETATM   30  C   UNL     1     -12.182  12.331  70.778  1.00  0.00    -0.354 A  
HETATM   31  C   UNL     1     -11.952  13.714  70.827  1.00  0.00    -0.286 A  
HETATM   32  C   UNL     1     -10.965  14.343  70.038  1.00  0.00    -0.045 A  
ENDBRANCH  22  23
ENDBRANCH  16  22
ENDBRANCH   9  13
ENDBRANCH   3   6
TORSDOF 4
ENDMDL
MODEL       34
REMARK 921   NORMALIZED FREE ENERGY PREDICTED BY IDOCK:   -7.46 KCAL/MOL
REMARK 922        TOTAL FREE ENERGY PREDICTED BY IDOCK:   -9.87 KCAL/MOL
REMARK 923 INTER-LIGAND FREE ENERGY PREDICTED BY IDOCK:   -8.98 KCAL/MOL
REMARK 924 INTRA-LIGAND FREE ENERGY PREDICTED BY IDOCK:   -0.89 KCAL/MOL
REMARK 927      BINDING AFFINITY PREDICTED BY RF-SCORE:    0.00 PKD
ROOT
HETATM    1  C   UNL     1     -11.488  15.988  64.423  1.00  0.00    -0.242 C  
HETATM    2  N   UNL     1     -10.982  14.658  64.655  1.00  0.00    -0.582 N  
HETATM    3  C   UNL     1     -11.824  13.606  64.945  1.00  0.00    -0.375 C  
HETATM    4  H   UNL     1      -9.978  14.491  64.605  1.00  0.00     0.000 HD 
HETATM    5  O   UNL     1     -13.045  13.720  64.975  1.00  0.00    -0.751 OA 
ENDROOT
BRANCH   3   6
HETATM    6  C   UNL     1     -11.195  12.291  65.258  1.00  0.00    -0.372 A  
HETATM    7  C   UNL     1     -11.263  11.800  66.573  1.00  0.00    -0.380 A  
HETATM    8  C   UNL     1     -10.618  10.606  66.926  1.00  0.00    -0.311 A  
HETATM    9  C   UNL     1      -9.885   9.891  65.971  1.00  0.00    -0.330 A  
HETATM   10  C   UNL     1      -9.862  10.347  64.650  1.00  0.00    -0.405 A  
HETATM   11  F   UNL     1     -10.407  11.946  63.033  1.00  0.00    -0.391 F  
HETATM   12  C   UNL     1     -10.503  11.538  64.308  1.00  0.00    -0.338 A  
BRANCH   9  13
HETATM   13  C   UNL     1      -9.092   8.703  66.395  1.00  0.00    -0.174 C  
HETATM   14  N   UNL     1      -8.794   8.508  67.651  1.00  0.00    -0.136 NA 
HETATM   15  N   UNL     1      -7.996   7.409  67.844  1.00  0.00    -0.117 NA 
HETATM   16  C   UNL     1      -7.511   6.941  69.043  1.00  0.00    -0.095 A  
HETATM   17  C   UNL     1      -8.600   7.757  65.308  1.00  0.00    -0.042 C  
HETATM   18  C   UNL     1      -6.706   5.875  68.706  1.00  0.00    -0.064 A  
HETATM   19  N   UNL     1      -6.726   5.638  67.360  1.00  0.00    -0.057 NA 
HETATM   20  N   UNL     1      -7.853   6.731  65.542  1.00  0.00    -0.105 NA 
HETATM   21  C   UNL     1      -7.516   6.557  66.846  1.00  0.00    -0.084 A  
BRANCH  16  22
HETATM   22  C   UNL     1      -7.882   7.482  70.375  1.00  0.00    -0.097 C  
BRANCH  22  23
HETATM   23  C   UNL     1      -9.366   7.478  70.657  1.00  0.00    -0.163 A  
HETATM   24  C   UNL     1     -11.439   6.249  70.939  1.00  0.00    -0.377 A  
HETATM   25  C   UNL     1     -10.079   6.277  70.619  1.00  0.00    -0.230 A  
HETATM   26  C   UNL     1     -12.136   7.400  71.269  1.00  0.00    -0.328 A  
HETATM   27  N   UNL     1     -13.448   7.311  71.555  1.00  0.00    -0.391 NA 
HETATM   28  C   UNL     1     -14.115   8.453  71.830  1.00  0.00    -0.438 A  
HETATM   29  C   UNL     1     -13.529   9.703  71.836  1.00  0.00    -0.496 A  
HETATM   30  C   UNL     1     -12.167   9.788  71.565  1.00  0.00    -0.493 A  
HETATM   31  C   UNL     1     -11.438   8.625  71.273  1.00  0.00    -0.341 A  
HETATM   32  C   UNL     1     -10.057   8.654  70.983  1.00  0.00    -0.273 A  
ENDBRANCH  22  23
ENDBRANCH  16  22
ENDBRANCH   9  13
ENDBRANCH   3   6
TORSDOF 4
ENDMDL
MODEL       35
REMARK 921   NORMALIZED FREE ENERGY PREDICTED BY IDOCK:   -7.46 KCAL/MOL
REMARK 922        TOTAL FREE ENERGY PREDICTED BY IDOCK:   -9.86 KCAL/MOL
REMARK 923 INTER-LIGAND FREE ENERGY PREDICTED BY IDOCK:   -8.99 KCAL/MOL
REMARK 924 INTRA-LIGAND FREE ENERGY PREDICTED BY IDOCK:   -0.87 KCAL/MOL
REMARK 927      BINDING AFFINITY PREDICTED BY RF-SCORE:    0.00 PKD
ROOT
HETATM    1  C   UNL     1      -6.269  20.099  69.964  1.00  0.00    -0.349 C  
HETATM    2  N   UNL     1      -6.831  18.970  69.266  1.00  0.00    -0.303 N  
HETATM    3  C   UNL     1      -8.053  19.047  68.636  1.00  0.00    -0.361 C  
HETATM    4  H   UNL     1      -6.312  18.093  69.239  1.00  0.00     0.000 HD 
HETATM    5  O   UNL     1      -8.712  20.081  68.584  1.00  0.00    -0.146 OA 
ENDROOT
BRANCH   3   6
HETATM    6  C   UNL     1      -8.587  17.798  68.020  1.00  0.00    -0.250 A  
HETATM    7  C   UNL     1      -8.688  16.640  68.810  1.00  0.00    -0.260 A  
HETATM    8  C   UNL     1      -9.111  15.426  68.251  1.00  0.00    -0.187 A  
HETATM    9  C   UNL     1      -9.429  15.350  66.889  1.00  0.00    -0.246 A  
HETATM   10  C   UNL     1      -9.384  16.512  66.113  1.00  0.00    -0.339 A  
HETATM   11  F   UNL     1      -8.894  18.785  65.871  1.00  0.00    -0.251 F  
HETATM   12  C   UNL     1      -8.958  17.715  66.678  1.00  0.00    -0.265 A  
BRANCH   9  13
HETATM   13  C   UNL     1      -9.741  14.025  66.282  1.00  0.00    -0.295 C  
HETATM   14  N   UNL     1      -9.328  12.918  66.838  1.00  0.00    -0.234 NA 
HETATM   15  N   UNL     1      -9.641  11.804  66.101  1.00  0.00    -0.227 NA 
HETATM   16  C   UNL     1      -9.344  10.498  66.413  1.00  0.00    -0.168 A  
HETATM   17  C   UNL     1     -10.511  14.012  64.969  1.00  0.00    -0.420 C  
HETATM   18  C   UNL     1      -9.793   9.767  65.335  1.00  0.00    -0.295 A  
HETATM   19  N   UNL     1     -10.400  10.565  64.407  1.00  0.00    -0.286 NA 
HETATM   20  N   UNL     1     -10.785  12.934  64.314  1.00  0.00    -0.383 NA 
HETATM   21  C   UNL     1     -10.319  11.790  64.879  1.00  0.00    -0.289 A  
BRANCH  16  22
HETATM   22  C   UNL     1      -8.735  10.051  67.691  1.00  0.00    -0.121 C  
BRANCH  22  23
HETATM   23  C   UNL     1      -9.734   9.626  68.742  1.00  0.00    -0.167 A  
HETATM   24  C   UNL     1     -10.682   7.893  70.149  1.00  0.00    -0.244 A  
HETATM   25  C   UNL     1      -9.807   8.288  69.134  1.00  0.00    -0.179 A  
HETATM   26  C   UNL     1     -11.529   8.793  70.777  1.00  0.00    -0.270 A  
HETATM   27  N   UNL     1     -12.359   8.349  71.738  1.00  0.00    -0.313 NA 
HETATM   28  C   UNL     1     -13.205   9.237  72.302  1.00  0.00    -0.460 A  
HETATM   29  C   UNL     1     -13.266  10.572  71.951  1.00  0.00    -0.526 A  
HETATM   30  C   UNL     1     -12.389  11.031  70.976  1.00  0.00    -0.490 A  
HETATM   31  C   UNL     1     -11.494  10.141  70.363  1.00  0.00    -0.400 A  
HETATM   32  C   UNL     1     -10.588  10.550  69.362  1.00  0.00    -0.269 A  
ENDBRANCH  22  23
ENDBRANCH  16  22
ENDBRANCH   9  13
ENDBRANCH   3   6
TORSDOF 4
ENDMDL
MODEL       36
REMARK 921   NORMALIZED FREE ENERGY PREDICTED BY IDOCK:   -7.41 KCAL/MOL
REMARK 922        TOTAL FREE ENERGY PREDICTED BY IDOCK:   -9.80 KCAL/MOL
REMARK 923 INTER-LIGAND FREE ENERGY PREDICTED BY IDOCK:   -9.92 KCAL/MOL
REMARK 924 INTRA-LIGAND FREE ENERGY PREDICTED BY IDOCK:    0.12 KCAL/MOL
REMARK 927      BINDING AFFINITY PREDICTED BY RF-SCORE:    0.00 PKD
ROOT
HETATM    1  C   UNL     1      -9.379   3.142  69.413  1.00  0.00    -0.155 C  
HETATM    2  N   UNL     1      -9.878   4.492  69.479  1.00  0.00    -0.215 N  
HETATM    3  C   UNL     1     -10.089   5.125  70.685  1.00  0.00    -0.239 C  
HETATM    4  H   UNL     1     -10.081   4.992  68.614  1.00  0.00     0.000 HD 
HETATM    5  O   UNL     1      -9.822   4.607  71.764  1.00  0.00    -0.167 OA 
ENDROOT
BRANCH   3   6
HETATM    6  C   UNL     1     -10.693   6.488  70.647  1.00  0.00    -0.297 A  
HETATM    7  C   UNL     1     -10.262   7.397  69.667  1.00  0.00    -0.210 A  
HETATM    8  C   UNL     1     -10.747   8.712  69.646  1.00  0.00    -0.204 A  
HETATM    9  C   UNL     1     -11.665   9.140  70.614  1.00  0.00    -0.256 A  
HETATM   10  C   UNL     1     -12.140   8.223  71.555  1.00  0.00    -0.335 A  
HETATM   11  F   UNL     1     -12.109   6.096  72.527  1.00  0.00    -0.312 F  
HETATM   12  C   UNL     1     -11.647   6.917  71.571  1.00  0.00    -0.290 A  
BRANCH   9  13
HETATM   13  C   UNL     1     -12.063  10.576  70.662  1.00  0.00    -0.356 C  
HETATM   14  N   UNL     1     -11.571  11.438  69.813  1.00  0.00    -0.310 NA 
HETATM   15  N   UNL     1     -11.990  12.721  70.056  1.00  0.00    -0.335 NA 
HETATM   16  C   UNL     1     -11.649  13.849  69.346  1.00  0.00    -0.297 A  
HETATM   17  C   UNL     1     -13.020  11.007  71.764  1.00  0.00    -0.438 C  
HETATM   18  C   UNL     1     -12.254  14.887  70.021  1.00  0.00    -0.333 A  
HETATM   19  N   UNL     1     -12.993  14.434  71.077  1.00  0.00    -0.341 NA 
HETATM   20  N   UNL     1     -13.389  12.231  71.949  1.00  0.00    -0.423 NA 
HETATM   21  C   UNL     1     -12.843  13.127  71.086  1.00  0.00    -0.264 A  
BRANCH  16  22
HETATM   22  C   UNL     1     -10.856  13.851  68.091  1.00  0.00    -0.262 C  
BRANCH  22  23
HETATM   23  C   UNL     1     -10.645  15.220  67.489  1.00  0.00    -0.273 A  
HETATM   24  C   UNL     1     -10.531  16.653  65.535  1.00  0.00    -0.285 A  
HETATM   25  C   UNL     1     -10.664  15.383  66.102  1.00  0.00    -0.316 A  
HETATM   26  C   UNL     1     -10.341  17.785  66.312  1.00  0.00    -0.358 A  
HETATM   27  N   UNL     1     -10.207  18.979  65.707  1.00  0.00    -0.531 NA 
HETATM   28  C   UNL     1      -9.978  20.060  66.483  1.00  0.00    -0.479 A  
HETATM   29  C   UNL     1      -9.877  20.010  67.860  1.00  0.00    -0.538 A  
HETATM   30  C   UNL     1     -10.042  18.778  68.483  1.00  0.00    -0.444 A  
HETATM   31  C   UNL     1     -10.280  17.630  67.712  1.00  0.00    -0.354 A  
HETATM   32  C   UNL     1     -10.446  16.354  68.291  1.00  0.00    -0.302 A  
ENDBRANCH  22  23
ENDBRANCH  16  22
ENDBRANCH   9  13
ENDBRANCH   3   6
TORSDOF 4
ENDMDL
MODEL       37
REMARK 921   NORMALIZED FREE ENERGY PREDICTED BY IDOCK:   -7.37 KCAL/MOL
REMARK 922        TOTAL FREE ENERGY PREDICTED BY IDOCK:   -9.76 KCAL/MOL
REMARK 923 INTER-LIGAND FREE ENERGY PREDICTED BY IDOCK:   -9.25 KCAL/MOL
REMARK 924 INTRA-LIGAND FREE ENERGY PREDICTED BY IDOCK:   -0.51 KCAL/MOL
REMARK 927      BINDING AFFINITY PREDICTED BY RF-SCORE:    0.00 PKD
ROOT
HETATM    1  C   UNL     1     -12.394  15.371  74.452  1.00  0.00    -0.616 C  
HETATM    2  N   UNL     1     -12.286  14.888  73.098  1.00  0.00    -0.328 N  
HETATM    3  C   UNL     1     -11.907  15.717  72.065  1.00  0.00    -0.490 C  
HETATM    4  H   UNL     1     -12.495  13.910  72.900  1.00  0.00     0.000 HD 
HETATM    5  O   UNL     1     -11.594  16.891  72.234  1.00  0.00    -0.222 OA 
ENDROOT
BRANCH   3   6
HETATM    6  C   UNL     1     -11.915  15.144  70.688  1.00  0.00    -0.371 A  
HETATM    7  C   UNL     1     -12.317  13.810  70.509  1.00  0.00    -0.429 A  
HETATM    8  C   UNL     1     -12.264  13.209  69.243  1.00  0.00    -0.165 A  
HETATM    9  C   UNL     1     -11.796  13.932  68.139  1.00  0.00    -0.407 A  
HETATM   10  C   UNL     1     -11.449  15.276  68.303  1.00  0.00    -0.359 A  
HETATM   11  F   UNL     1     -11.113  17.145  69.667  1.00  0.00    -0.178 F  
HETATM   12  C   UNL     1     -11.501  15.865  69.567  1.00  0.00    -0.342 A  
BRANCH   9  13
HETATM   13  C   UNL     1     -11.614  13.239  66.833  1.00  0.00    -0.364 C  
HETATM   14  N   UNL     1     -10.640  12.387  66.654  1.00  0.00    -0.228 NA 
HETATM   15  N   UNL     1     -10.582  11.907  65.371  1.00  0.00    -0.261 NA 
HETATM   16  C   UNL     1      -9.675  11.003  64.868  1.00  0.00    -0.254 A  
HETATM   17  C   UNL     1     -12.570  13.596  65.703  1.00  0.00    -0.484 C  
HETATM   18  C   UNL     1      -9.981  10.905  63.528  1.00  0.00    -0.363 A  
HETATM   19  N   UNL     1     -11.069  11.666  63.206  1.00  0.00    -0.317 NA 
HETATM   20  N   UNL     1     -12.475  13.112  64.510  1.00  0.00    -0.599 NA 
HETATM   21  C   UNL     1     -11.437  12.257  64.322  1.00  0.00    -0.362 A  
BRANCH  16  22
HETATM   22  C   UNL     1      -8.663  10.280  65.679  1.00  0.00    -0.176 C  
BRANCH  22  23
HETATM   23  C   UNL     1      -9.012   8.840  65.971  1.00  0.00    -0.235 A  
HETATM   24  C   UNL     1     -10.362   7.213  67.159  1.00  0.00    -0.359 A  
HETATM   25  C   UNL     1      -9.986   8.538  66.924  1.00  0.00    -0.335 A  
HETATM   26  C   UNL     1      -9.768   6.154  66.492  1.00  0.00    -0.145 A  
HETATM   27  N   UNL     1     -10.163   4.899  66.771  1.00  0.00    -0.236 NA 
HETATM   28  C   UNL     1      -9.537   3.883  66.140  1.00  0.00    -0.183 A  
HETATM   29  C   UNL     1      -8.517   4.058  65.225  1.00  0.00    -0.113 A  
HETATM   30  C   UNL     1      -8.129   5.358  64.920  1.00  0.00    -0.122 A  
HETATM   31  C   UNL     1      -8.754   6.442  65.555  1.00  0.00    -0.076 A  
HETATM   32  C   UNL     1      -8.393   7.781  65.290  1.00  0.00    -0.128 A  
ENDBRANCH  22  23
ENDBRANCH  16  22
ENDBRANCH   9  13
ENDBRANCH   3   6
TORSDOF 4
ENDMDL
MODEL       38
REMARK 921   NORMALIZED FREE ENERGY PREDICTED BY IDOCK:   -7.36 KCAL/MOL
REMARK 922        TOTAL FREE ENERGY PREDICTED BY IDOCK:   -9.74 KCAL/MOL
REMARK 923 INTER-LIGAND FREE ENERGY PREDICTED BY IDOCK:   -9.11 KCAL/MOL
REMARK 924 INTRA-LIGAND FREE ENERGY PREDICTED BY IDOCK:   -0.63 KCAL/MOL
REMARK 927      BINDING AFFINITY PREDICTED BY RF-SCORE:    0.00 PKD
ROOT
HETATM    1  C   UNL     1      -7.065  19.251  65.901  1.00  0.00    -0.280 C  
HETATM    2  N   UNL     1      -7.907  18.330  66.624  1.00  0.00    -0.241 N  
HETATM    3  C   UNL     1      -9.269  18.285  66.420  1.00  0.00    -0.263 C  
HETATM    4  H   UNL     1      -7.485  17.698  67.303  1.00  0.00     0.000 HD 
HETATM    5  O   UNL     1      -9.841  18.981  65.587  1.00  0.00    -0.388 OA 
ENDROOT
BRANCH   3   6
HETATM    6  C   UNL     1     -10.061  17.362  67.283  1.00  0.00    -0.310 A  
HETATM    7  C   UNL     1     -10.191  17.653  68.651  1.00  0.00    -0.377 A  
HETATM    8  C   UNL     1     -10.860  16.771  69.511  1.00  0.00    -0.225 A  
HETATM    9  C   UNL     1     -11.401  15.578  69.016  1.00  0.00    -0.331 A  
HETATM   10  C   UNL     1     -11.323  15.313  67.646  1.00  0.00    -0.315 A  
HETATM   11  F   UNL     1     -10.573  15.862  65.501  1.00  0.00    -0.321 F  
HETATM   12  C   UNL     1     -10.651  16.194  66.798  1.00  0.00    -0.277 A  
BRANCH   9  13
HETATM   13  C   UNL     1     -11.985  14.589  69.965  1.00  0.00    -0.330 C  
HETATM   14  N   UNL     1     -11.694  13.319  69.875  1.00  0.00    -0.287 NA 
HETATM   15  N   UNL     1     -12.381  12.551  70.779  1.00  0.00    -0.357 NA 
HETATM   16  C   UNL     1     -12.298  11.186  70.935  1.00  0.00    -0.399 A  
HETATM   17  C   UNL     1     -12.968  15.103  71.007  1.00  0.00    -0.431 C  
HETATM   18  C   UNL     1     -13.229  10.885  71.905  1.00  0.00    -0.403 A  
HETATM   19  N   UNL     1     -13.833  12.011  72.387  1.00  0.00     0.063 NA 
HETATM   20  N   UNL     1     -13.587  14.338  71.842  1.00  0.00    -0.379 NA 
HETATM   21  C   UNL     1     -13.308  13.014  71.716  1.00  0.00    -0.378 A  
BRANCH  16  22
HETATM   22  C   UNL     1     -11.335  10.310  70.221  1.00  0.00    -0.398 C  
BRANCH  22  23
HETATM   23  C   UNL     1     -11.093   8.977  70.887  1.00  0.00    -0.343 A  
HETATM   24  C   UNL     1     -11.357   6.566  70.901  1.00  0.00    -0.393 A  
HETATM   25  C   UNL     1     -11.625   7.812  70.329  1.00  0.00    -0.049 A  
HETATM   26  C   UNL     1     -10.592   6.436  72.049  1.00  0.00    -0.213 A  
HETATM   27  N   UNL     1     -10.380   5.209  72.560  1.00  0.00    -0.197 NA 
HETATM   28  C   UNL     1      -9.670   5.114  73.704  1.00  0.00    -0.143 A  
HETATM   29  C   UNL     1      -9.148   6.201  74.378  1.00  0.00    -0.155 A  
HETATM   30  C   UNL     1      -9.348   7.465  73.833  1.00  0.00    -0.318 A  
HETATM   31  C   UNL     1     -10.082   7.608  72.646  1.00  0.00    -0.298 A  
HETATM   32  C   UNL     1     -10.322   8.866  72.054  1.00  0.00    -0.378 A  
ENDBRANCH  22  23
ENDBRANCH  16  22
ENDBRANCH   9  13
ENDBRANCH   3   6
TORSDOF 4
ENDMDL
MODEL       39
REMARK 921   NORMALIZED FREE ENERGY PREDICTED BY IDOCK:   -7.33 KCAL/MOL
REMARK 922        TOTAL FREE ENERGY PREDICTED BY IDOCK:   -9.70 KCAL/MOL
REMARK 923 INTER-LIGAND FREE ENERGY PREDICTED BY IDOCK:   -9.06 KCAL/MOL
REMARK 924 INTRA-LIGAND FREE ENERGY PREDICTED BY IDOCK:   -0.64 KCAL/MOL
REMARK 927      BINDING AFFINITY PREDICTED BY RF-SCORE:    0.00 PKD
ROOT
HETATM    1  C   UNL     1     -13.662  15.732  72.927  1.00  0.00    -0.551 C  
HETATM    2  N   UNL     1     -13.307  15.059  71.702  1.00  0.00    -0.367 N  
HETATM    3  C   UNL     1     -12.253  15.486  70.924  1.00  0.00    -0.400 C  
HETATM    4  H   UNL     1     -13.849  14.249  71.404  1.00  0.00     0.000 HD 
HETATM    5  O   UNL     1     -11.527  16.422  71.242  1.00  0.00    -0.396 OA 
ENDROOT
BRANCH   3   6
HETATM    6  C   UNL     1     -12.025  14.779  69.631  1.00  0.00    -0.360 A  
HETATM    7  C   UNL     1     -12.146  13.379  69.590  1.00  0.00    -0.349 A  
HETATM    8  C   UNL     1     -11.864  12.670  68.414  1.00  0.00    -0.347 A  
HETATM    9  C   UNL     1     -11.446  13.350  67.264  1.00  0.00    -0.374 A  
HETATM   10  C   UNL     1     -11.380  14.746  67.284  1.00  0.00    -0.366 A  
HETATM   11  F   UNL     1     -11.535  16.779  68.428  1.00  0.00    -0.338 F  
HETATM   12  C   UNL     1     -11.659  15.444  68.460  1.00  0.00    -0.359 A  
BRANCH   9  13
HETATM   13  C   UNL     1     -11.016  12.571  66.068  1.00  0.00    -0.283 C  
HETATM   14  N   UNL     1      -9.939  11.834  66.098  1.00  0.00    -0.219 NA 
HETATM   15  N   UNL     1      -9.657  11.254  64.888  1.00  0.00    -0.233 NA 
HETATM   16  C   UNL     1      -8.597  10.428  64.595  1.00  0.00    -0.185 A  
HETATM   17  C   UNL     1     -11.847  12.706  64.800  1.00  0.00    -0.380 C  
HETATM   18  C   UNL     1      -8.710  10.175  63.245  1.00  0.00    -0.212 A  
HETATM   19  N   UNL     1      -9.823  10.764  62.716  1.00  0.00    -0.263 NA 
HETATM   20  N   UNL     1     -11.542  12.134  63.683  1.00  0.00    -0.456 NA 
HETATM   21  C   UNL     1     -10.400  11.401  63.713  1.00  0.00    -0.393 A  
BRANCH  16  22
HETATM   22  C   UNL     1      -7.627   9.910  65.593  1.00  0.00    -0.119 C  
BRANCH  22  23
HETATM   23  C   UNL     1      -8.262   9.327  66.833  1.00  0.00    -0.119 A  
HETATM   24  C   UNL     1      -8.583   9.370  69.237  1.00  0.00    -0.143 A  
HETATM   25  C   UNL     1      -7.957   9.860  68.088  1.00  0.00    -0.100 A  
HETATM   26  C   UNL     1      -9.494   8.327  69.186  1.00  0.00    -0.155 A  
HETATM   27  N   UNL     1     -10.055   7.891  70.329  1.00  0.00    -0.194 NA 
HETATM   28  C   UNL     1     -10.904   6.845  70.258  1.00  0.00    -0.257 A  
HETATM   29  C   UNL     1     -11.232   6.198  69.082  1.00  0.00    -0.409 A  
HETATM   30  C   UNL     1     -10.671   6.669  67.900  1.00  0.00    -0.341 A  
HETATM   31  C   UNL     1      -9.781   7.754  67.930  1.00  0.00    -0.181 A  
HETATM   32  C   UNL     1      -9.176   8.266  66.763  1.00  0.00    -0.212 A  
ENDBRANCH  22  23
ENDBRANCH  16  22
ENDBRANCH   9  13
ENDBRANCH   3   6
TORSDOF 4
ENDMDL
MODEL       40
REMARK 921   NORMALIZED FREE ENERGY PREDICTED BY IDOCK:   -7.27 KCAL/MOL
REMARK 922        TOTAL FREE ENERGY PREDICTED BY IDOCK:   -9.63 KCAL/MOL
REMARK 923 INTER-LIGAND FREE ENERGY PREDICTED BY IDOCK:   -8.80 KCAL/MOL
REMARK 924 INTRA-LIGAND FREE ENERGY PREDICTED BY IDOCK:   -0.83 KCAL/MOL
REMARK 927      BINDING AFFINITY PREDICTED BY RF-SCORE:    0.00 PKD
ROOT
HETATM    1  C   UNL     1      -6.341   5.126  68.197  1.00  0.00    -0.036 C  
HETATM    2  N   UNL     1      -7.073   6.283  67.745  1.00  0.00    -0.079 N  
HETATM    3  C   UNL     1      -8.243   6.161  67.027  1.00  0.00    -0.106 C  
HETATM    4  H   UNL     1      -6.717   7.213  67.961  1.00  0.00     0.000 HD 
HETATM    5  O   UNL     1      -8.757   5.077  66.771  1.00  0.00    -0.109 OA 
ENDROOT
BRANCH   3   6
HETATM    6  C   UNL     1      -8.875   7.417  66.529  1.00  0.00    -0.165 A  
HETATM    7  C   UNL     1      -8.380   8.008  65.355  1.00  0.00    -0.161 A  
HETATM    8  C   UNL     1      -8.894   9.229  64.896  1.00  0.00    -0.233 A  
HETATM    9  C   UNL     1      -9.905   9.882  65.612  1.00  0.00    -0.368 A  
HETATM   10  C   UNL     1     -10.439   9.270  66.749  1.00  0.00    -0.263 A  
HETATM   11  F   UNL     1     -10.443   7.540  68.322  1.00  0.00    -0.202 F  
HETATM   12  C   UNL     1      -9.918   8.056  67.201  1.00  0.00    -0.235 A  
BRANCH   9  13
HETATM   13  C   UNL     1     -10.340  11.243  65.188  1.00  0.00    -0.295 C  
HETATM   14  N   UNL     1     -10.212  12.268  65.987  1.00  0.00    -0.237 NA 
HETATM   15  N   UNL     1     -10.736  13.421  65.461  1.00  0.00    -0.288 NA 
HETATM   16  C   UNL     1     -10.759  14.663  66.052  1.00  0.00    -0.312 A  
HETATM   17  C   UNL     1     -10.984  11.385  63.816  1.00  0.00    -0.370 C  
HETATM   18  C   UNL     1     -11.453  15.461  65.169  1.00  0.00    -0.208 A  
HETATM   19  N   UNL     1     -11.804  14.774  64.042  1.00  0.00    -0.304 NA 
HETATM   20  N   UNL     1     -11.459  12.496  63.363  1.00  0.00    -0.478 NA 
HETATM   21  C   UNL     1     -11.357  13.549  64.215  1.00  0.00    -0.375 A  
BRANCH  16  22
HETATM   22  C   UNL     1     -10.093  15.001  67.335  1.00  0.00    -0.228 C  
BRANCH  22  23
HETATM   23  C   UNL     1     -10.894  14.649  68.566  1.00  0.00    -0.256 A  
HETATM   24  C   UNL     1     -12.249  15.349  70.452  1.00  0.00    -0.430 A  
HETATM   25  C   UNL     1     -11.454  15.662  69.347  1.00  0.00    -0.354 A  
HETATM   26  C   UNL     1     -12.483  14.038  70.837  1.00  0.00    -0.369 A  
HETATM   27  N   UNL     1     -13.247  13.799  71.919  1.00  0.00    -0.375 NA 
HETATM   28  C   UNL     1     -13.424  12.516  72.299  1.00  0.00    -0.386 A  
HETATM   29  C   UNL     1     -12.868  11.436  71.641  1.00  0.00    -0.497 A  
HETATM   30  C   UNL     1     -12.101  11.686  70.508  1.00  0.00    -0.458 A  
HETATM   31  C   UNL     1     -11.892  13.005  70.080  1.00  0.00    -0.324 A  
HETATM   32  C   UNL     1     -11.115  13.316  68.944  1.00  0.00    -0.304 A  
ENDBRANCH  22  23
ENDBRANCH  16  22
ENDBRANCH   9  13
ENDBRANCH   3   6
TORSDOF 4
ENDMDL
MODEL       41
REMARK 921   NORMALIZED FREE ENERGY PREDICTED BY IDOCK:   -7.16 KCAL/MOL
REMARK 922        TOTAL FREE ENERGY PREDICTED BY IDOCK:   -9.49 KCAL/MOL
REMARK 923 INTER-LIGAND FREE ENERGY PREDICTED BY IDOCK:   -8.66 KCAL/MOL
REMARK 924 INTRA-LIGAND FREE ENERGY PREDICTED BY IDOCK:   -0.83 KCAL/MOL
REMARK 927      BINDING AFFINITY PREDICTED BY RF-SCORE:    0.00 PKD
ROOT
HETATM    1  C   UNL     1     -11.331  16.092  64.463  1.00  0.00    -0.267 C  
HETATM    2  N   UNL     1     -11.155  15.135  65.526  1.00  0.00    -0.345 N  
HETATM    3  C   UNL     1     -12.101  14.170  65.792  1.00  0.00    -0.420 C  
HETATM    4  H   UNL     1     -10.310  15.173  66.096  1.00  0.00     0.000 HD 
HETATM    5  O   UNL     1     -13.118  14.031  65.120  1.00  0.00    -0.776 OA 
ENDROOT
BRANCH   3   6
HETATM    6  C   UNL     1     -11.866  13.286  66.970  1.00  0.00    -0.442 A  
HETATM    7  C   UNL     1     -11.633  11.917  66.758  1.00  0.00    -0.341 A  
HETATM    8  C   UNL     1     -11.486  11.039  67.841  1.00  0.00    -0.358 A  
HETATM    9  C   UNL     1     -11.581  11.517  69.154  1.00  0.00    -0.382 A  
HETATM   10  C   UNL     1     -11.756  12.886  69.369  1.00  0.00    -0.382 A  
HETATM   11  F   UNL     1     -12.115  15.050  68.557  1.00  0.00    -0.332 F  
HETATM   12  C   UNL     1     -11.906  13.753  68.285  1.00  0.00    -0.378 A  
BRANCH   9  13
HETATM   13  C   UNL     1     -11.563  10.551  70.289  1.00  0.00    -0.332 C  
HETATM   14  N   UNL     1     -10.540   9.762  70.483  1.00  0.00    -0.296 NA 
HETATM   15  N   UNL     1     -10.731   8.890  71.524  1.00  0.00    -0.300 NA 
HETATM   16  C   UNL     1      -9.848   7.937  71.976  1.00  0.00    -0.192 A  
HETATM   17  C   UNL     1     -12.796  10.481  71.178  1.00  0.00    -0.416 C  
HETATM   18  C   UNL     1     -10.526   7.274  72.976  1.00  0.00    -0.310 A  
HETATM   19  N   UNL     1     -11.760   7.818  73.190  1.00  0.00    -0.157 NA 
HETATM   20  N   UNL     1     -12.926   9.643  72.152  1.00  0.00    -0.411 NA 
HETATM   21  C   UNL     1     -11.875   8.801  72.323  1.00  0.00    -0.333 A  
BRANCH  16  22
HETATM   22  C   UNL     1      -8.456   7.774  71.486  1.00  0.00    -0.129 C  
BRANCH  22  23
HETATM   23  C   UNL     1      -8.330   6.937  70.235  1.00  0.00    -0.134 A  
HETATM   24  C   UNL     1      -7.432   6.631  68.003  1.00  0.00    -0.098 A  
HETATM   25  C   UNL     1      -7.608   7.421  69.142  1.00  0.00    -0.105 A  
HETATM   26  C   UNL     1      -7.987   5.366  67.896  1.00  0.00    -0.096 A  
HETATM   27  N   UNL     1      -7.793   4.659  66.768  1.00  0.00    -0.098 NA 
HETATM   28  C   UNL     1      -8.381   3.448  66.671  1.00  0.00    -0.101 A  
HETATM   29  C   UNL     1      -9.169   2.894  67.662  1.00  0.00    -0.243 A  
HETATM   30  C   UNL     1      -9.345   3.617  68.836  1.00  0.00    -0.235 A  
HETATM   31  C   UNL     1      -8.752   4.881  68.977  1.00  0.00    -0.105 A  
HETATM   32  C   UNL     1      -8.905   5.661  70.143  1.00  0.00    -0.144 A  
ENDBRANCH  22  23
ENDBRANCH  16  22
ENDBRANCH   9  13
ENDBRANCH   3   6
TORSDOF 4
ENDMDL
MODEL       42
REMARK 921   NORMALIZED FREE ENERGY PREDICTED BY IDOCK:   -7.12 KCAL/MOL
REMARK 922        TOTAL FREE ENERGY PREDICTED BY IDOCK:   -9.44 KCAL/MOL
REMARK 923 INTER-LIGAND FREE ENERGY PREDICTED BY IDOCK:   -8.58 KCAL/MOL
REMARK 924 INTRA-LIGAND FREE ENERGY PREDICTED BY IDOCK:   -0.86 KCAL/MOL
REMARK 927      BINDING AFFINITY PREDICTED BY RF-SCORE:    0.00 PKD
ROOT
HETATM    1  C   UNL     1     -10.425   6.763  73.878  1.00  0.00    -0.327 C  
HETATM    2  N   UNL     1     -10.385   7.260  72.526  1.00  0.00    -0.205 N  
HETATM    3  C   UNL     1      -9.882   6.500  71.493  1.00  0.00    -0.168 C  
HETATM    4  H   UNL     1     -10.737   8.197  72.329  1.00  0.00     0.000 HD 
HETATM    5  O   UNL     1      -9.486   5.349  71.644  1.00  0.00    -0.145 OA 
ENDROOT
BRANCH   3   6
HETATM    6  C   UNL     1      -9.802   7.140  70.148  1.00  0.00    -0.180 A  
HETATM    7  C   UNL     1      -8.785   8.077  69.900  1.00  0.00    -0.139 A  
HETATM    8  C   UNL     1      -8.722   8.758  68.676  1.00  0.00    -0.134 A  
HETATM    9  C   UNL     1      -9.681   8.518  67.685  1.00  0.00    -0.201 A  
HETATM   10  C   UNL     1     -10.660   7.545  67.906  1.00  0.00    -0.250 A  
HETATM   11  F   UNL     1     -11.707   5.984  69.297  1.00  0.00    -0.436 F  
HETATM   12  C   UNL     1     -10.718   6.875  69.129  1.00  0.00    -0.234 A  
BRANCH   9  13
HETATM   13  C   UNL     1      -9.682   9.350  66.448  1.00  0.00    -0.250 C  
HETATM   14  N   UNL     1     -10.607  10.248  66.243  1.00  0.00    -0.133 NA 
HETATM   15  N   UNL     1     -10.492  10.860  65.021  1.00  0.00    -0.286 NA 
HETATM   16  C   UNL     1     -11.309  11.842  64.509  1.00  0.00    -0.316 A  
HETATM   17  C   UNL     1      -8.597   9.081  65.415  1.00  0.00    -0.177 C  
HETATM   18  C   UNL     1     -10.833  12.069  63.237  1.00  0.00    -0.334 A  
HETATM   19  N   UNL     1      -9.728  11.310  62.972  1.00  0.00    -0.363 NA 
HETATM   20  N   UNL     1      -8.529   9.689  64.278  1.00  0.00    -0.166 NA 
HETATM   21  C   UNL     1      -9.517  10.594  64.056  1.00  0.00    -0.285 A  
BRANCH  16  22
HETATM   22  C   UNL     1     -12.401  12.510  65.261  1.00  0.00    -0.469 C  
BRANCH  22  23
HETATM   23  C   UNL     1     -11.948  13.661  66.129  1.00  0.00    -0.453 A  
HETATM   24  C   UNL     1     -11.664  14.635  68.332  1.00  0.00    -0.352 A  
HETATM   25  C   UNL     1     -12.134  13.606  67.512  1.00  0.00    -0.352 A  
HETATM   26  C   UNL     1     -11.033  15.754  67.812  1.00  0.00    -0.314 A  
HETATM   27  N   UNL     1     -10.613  16.718  68.652  1.00  0.00    -0.332 NA 
HETATM   28  C   UNL     1     -10.043  17.819  68.118  1.00  0.00    -0.362 A  
HETATM   29  C   UNL     1      -9.863  18.011  66.762  1.00  0.00    -0.335 A  
HETATM   30  C   UNL     1     -10.274  17.001  65.899  1.00  0.00    -0.311 A  
HETATM   31  C   UNL     1     -10.874  15.841  66.414  1.00  0.00    -0.226 A  
HETATM   32  C   UNL     1     -11.318  14.789  65.584  1.00  0.00    -0.343 A  
ENDBRANCH  22  23
ENDBRANCH  16  22
ENDBRANCH   9  13
ENDBRANCH   3   6
TORSDOF 4
ENDMDL
MODEL       43
REMARK 921   NORMALIZED FREE ENERGY PREDICTED BY IDOCK:   -7.09 KCAL/MOL
REMARK 922        TOTAL FREE ENERGY PREDICTED BY IDOCK:   -9.41 KCAL/MOL
REMARK 923 INTER-LIGAND FREE ENERGY PREDICTED BY IDOCK:   -8.55 KCAL/MOL
REMARK 924 INTRA-LIGAND FREE ENERGY PREDICTED BY IDOCK:   -0.86 KCAL/MOL
REMARK 927      BINDING AFFINITY PREDICTED BY RF-SCORE:    0.00 PKD
ROOT
HETATM    1  C   UNL     1     -11.372  16.049  64.485  1.00  0.00    -0.295 C  
HETATM    2  N   UNL     1     -11.167  15.052  65.506  1.00  0.00    -0.350 N  
HETATM    3  C   UNL     1     -12.139  14.127  65.816  1.00  0.00    -0.420 C  
HETATM    4  H   UNL     1     -10.281  15.031  66.010  1.00  0.00     0.000 HD 
HETATM    5  O   UNL     1     -13.209  14.061  65.220  1.00  0.00    -0.782 OA 
ENDROOT
BRANCH   3   6
HETATM    6  C   UNL     1     -11.864  13.197  66.949  1.00  0.00    -0.444 A  
HETATM    7  C   UNL     1     -11.523  11.864  66.667  1.00  0.00    -0.382 A  
HETATM    8  C   UNL     1     -11.333  10.938  67.703  1.00  0.00    -0.345 A  
HETATM    9  C   UNL     1     -11.492  11.332  69.038  1.00  0.00    -0.369 A  
HETATM   10  C   UNL     1     -11.775  12.670  69.324  1.00  0.00    -0.379 A  
HETATM   11  F   UNL     1     -12.280  14.843  68.625  1.00  0.00    -0.302 F  
HETATM   12  C   UNL     1     -11.967  13.583  68.286  1.00  0.00    -0.342 A  
BRANCH   9  13
HETATM   13  C   UNL     1     -11.425  10.306  70.117  1.00  0.00    -0.309 C  
HETATM   14  N   UNL     1     -10.499   9.385  70.111  1.00  0.00    -0.221 NA 
HETATM   15  N   UNL     1     -10.639   8.484  71.136  1.00  0.00    -0.210 NA 
HETATM   16  C   UNL     1      -9.832   7.402  71.401  1.00  0.00    -0.185 A  
HETATM   17  C   UNL     1     -12.500  10.341  71.194  1.00  0.00    -0.391 C  
HETATM   18  C   UNL     1     -10.426   6.772  72.472  1.00  0.00    -0.209 A  
HETATM   19  N   UNL     1     -11.527   7.454  72.907  1.00  0.00    -0.269 NA 
HETATM   20  N   UNL     1     -12.586   9.471  72.143  1.00  0.00    -0.359 NA 
HETATM   21  C   UNL     1     -11.644   8.494  72.108  1.00  0.00    -0.377 A  
BRANCH  16  22
HETATM   22  C   UNL     1      -8.570   7.093  70.682  1.00  0.00    -0.143 C  
BRANCH  22  23
HETATM   23  C   UNL     1      -8.745   6.226  69.458  1.00  0.00    -0.132 A  
HETATM   24  C   UNL     1      -9.522   4.160  68.451  1.00  0.00    -0.212 A  
HETATM   25  C   UNL     1      -9.297   4.949  69.583  1.00  0.00    -0.190 A  
HETATM   26  C   UNL     1      -9.180   4.591  67.179  1.00  0.00    -0.135 A  
HETATM   27  N   UNL     1      -9.409   3.781  66.129  1.00  0.00    -0.168 NA 
HETATM   28  C   UNL     1      -9.026   4.205  64.907  1.00  0.00    -0.138 A  
HETATM   29  C   UNL     1      -8.414   5.421  64.672  1.00  0.00    -0.126 A  
HETATM   30  C   UNL     1      -8.202   6.266  65.755  1.00  0.00    -0.136 A  
HETATM   31  C   UNL     1      -8.585   5.862  67.044  1.00  0.00    -0.110 A  
HETATM   32  C   UNL     1      -8.386   6.676  68.179  1.00  0.00    -0.117 A  
ENDBRANCH  22  23
ENDBRANCH  16  22
ENDBRANCH   9  13
ENDBRANCH   3   6
TORSDOF 4
ENDMDL
MODEL       44
REMARK 921   NORMALIZED FREE ENERGY PREDICTED BY IDOCK:   -7.06 KCAL/MOL
REMARK 922        TOTAL FREE ENERGY PREDICTED BY IDOCK:   -9.37 KCAL/MOL
REMARK 923 INTER-LIGAND FREE ENERGY PREDICTED BY IDOCK:   -8.55 KCAL/MOL
REMARK 924 INTRA-LIGAND FREE ENERGY PREDICTED BY IDOCK:   -0.83 KCAL/MOL
REMARK 927      BINDING AFFINITY PREDICTED BY RF-SCORE:    0.00 PKD
ROOT
HETATM    1  C   UNL     1     -11.291   5.323  72.720  1.00  0.00    -0.276 C  
HETATM    2  N   UNL     1     -11.195   6.155  71.547  1.00  0.00    -0.285 N  
HETATM    3  C   UNL     1     -10.058   6.178  70.770  1.00  0.00    -0.193 C  
HETATM    4  H   UNL     1     -11.988   6.741  71.286  1.00  0.00     0.000 HD 
HETATM    5  O   UNL     1      -9.084   5.466  70.994  1.00  0.00    -0.140 OA 
ENDROOT
BRANCH   3   6
HETATM    6  C   UNL     1     -10.025   7.140  69.631  1.00  0.00    -0.176 A  
HETATM    7  C   UNL     1      -9.621   8.464  69.869  1.00  0.00    -0.171 A  
HETATM    8  C   UNL     1      -9.651   9.418  68.843  1.00  0.00    -0.155 A  
HETATM    9  C   UNL     1     -10.097   9.064  67.563  1.00  0.00    -0.285 A  
HETATM   10  C   UNL     1     -10.446   7.735  67.308  1.00  0.00    -0.392 A  
HETATM   11  F   UNL     1     -10.805   5.543  68.039  1.00  0.00    -0.263 F  
HETATM   12  C   UNL     1     -10.417   6.792  68.337  1.00  0.00    -0.205 A  
BRANCH   9  13
HETATM   13  C   UNL     1     -10.255  10.120  66.524  1.00  0.00    -0.223 C  
HETATM   14  N   UNL     1     -10.823  11.261  66.807  1.00  0.00    -0.276 NA 
HETATM   15  N   UNL     1     -10.951  12.077  65.712  1.00  0.00    -0.297 NA 
HETATM   16  C   UNL     1     -11.506  13.336  65.681  1.00  0.00    -0.318 A  
HETATM   17  C   UNL     1      -9.779   9.801  65.114  1.00  0.00    -0.268 C  
HETATM   18  C   UNL     1     -11.472  13.703  64.354  1.00  0.00    -0.386 A  
HETATM   19  N   UNL     1     -10.871  12.748  63.585  1.00  0.00    -0.385 NA 
HETATM   20  N   UNL     1      -9.919  10.607  64.115  1.00  0.00    -0.331 NA 
HETATM   21  C   UNL     1     -10.545  11.776  64.410  1.00  0.00    -0.317 A  
BRANCH  16  22
HETATM   22  C   UNL     1     -11.953  14.093  66.877  1.00  0.00    -0.479 C  
BRANCH  22  23
HETATM   23  C   UNL     1     -10.930  15.064  67.419  1.00  0.00    -0.315 A  
HETATM   24  C   UNL     1      -8.793  15.470  68.491  1.00  0.00    -0.186 A  
HETATM   25  C   UNL     1      -9.776  14.584  68.041  1.00  0.00    -0.218 A  
HETATM   26  C   UNL     1      -8.936  16.843  68.373  1.00  0.00    -0.244 A  
HETATM   27  N   UNL     1      -7.960  17.646  68.837  1.00  0.00    -0.229 NA 
HETATM   28  C   UNL     1      -8.144  18.980  68.751  1.00  0.00    -0.337 A  
HETATM   29  C   UNL     1      -9.272  19.568  68.213  1.00  0.00    -0.412 A  
HETATM   30  C   UNL     1     -10.266  18.736  67.711  1.00  0.00    -0.446 A  
HETATM   31  C   UNL     1     -10.115  17.342  67.782  1.00  0.00    -0.323 A  
HETATM   32  C   UNL     1     -11.096  16.451  67.297  1.00  0.00    -0.019 A  
ENDBRANCH  22  23
ENDBRANCH  16  22
ENDBRANCH   9  13
ENDBRANCH   3   6
TORSDOF 4
ENDMDL
MODEL       45
REMARK 921   NORMALIZED FREE ENERGY PREDICTED BY IDOCK:   -7.06 KCAL/MOL
REMARK 922        TOTAL FREE ENERGY PREDICTED BY IDOCK:   -9.36 KCAL/MOL
REMARK 923 INTER-LIGAND FREE ENERGY PREDICTED BY IDOCK:   -8.58 KCAL/MOL
REMARK 924 INTRA-LIGAND FREE ENERGY PREDICTED BY IDOCK:   -0.79 KCAL/MOL
REMARK 927      BINDING AFFINITY PREDICTED BY RF-SCORE:    0.00 PKD
ROOT
HETATM    1  C   UNL     1      -8.066   4.470  66.962  1.00  0.00    -0.102 C  
HETATM    2  N   UNL     1      -8.546   5.696  67.549  1.00  0.00    -0.109 N  
HETATM    3  C   UNL     1      -9.893   5.957  67.676  1.00  0.00    -0.121 C  
HETATM    4  H   UNL     1      -7.873   6.387  67.878  1.00  0.00     0.000 HD 
HETATM    5  O   UNL     1     -10.760   5.154  67.347  1.00  0.00    -0.119 OA 
ENDROOT
BRANCH   3   6
HETATM    6  C   UNL     1     -10.285   7.292  68.213  1.00  0.00    -0.208 A  
HETATM    7  C   UNL     1     -10.526   7.427  69.590  1.00  0.00    -0.237 A  
HETATM    8  C   UNL     1     -10.972   8.645  70.123  1.00  0.00    -0.234 A  
HETATM    9  C   UNL     1     -11.194   9.743  69.283  1.00  0.00    -0.128 A  
HETATM   10  C   UNL     1     -10.901   9.629  67.921  1.00  0.00    -0.272 A  
HETATM   11  F   UNL     1     -10.238   8.353  66.077  1.00  0.00    -0.292 F  
HETATM   12  C   UNL     1     -10.461   8.412  67.399  1.00  0.00    -0.283 A  
BRANCH   9  13
HETATM   13  C   UNL     1     -11.800  10.984  69.843  1.00  0.00    -0.353 C  
HETATM   14  N   UNL     1     -11.499  12.157  69.357  1.00  0.00    -0.290 NA 
HETATM   15  N   UNL     1     -12.090  13.186  70.045  1.00  0.00    -0.326 NA 
HETATM   16  C   UNL     1     -11.970  14.531  69.784  1.00  0.00    -0.332 A  
HETATM   17  C   UNL     1     -12.741  10.837  71.031  1.00  0.00    -0.415 C  
HETATM   18  C   UNL     1     -12.680  15.151  70.789  1.00  0.00    -0.405 A  
HETATM   19  N   UNL     1     -13.274  14.240  71.616  1.00  0.00    -0.337 NA 
HETATM   20  N   UNL     1     -13.277  11.839  71.643  1.00  0.00    -0.363 NA 
HETATM   21  C   UNL     1     -12.928  13.057  71.156  1.00  0.00    -0.181 A  
BRANCH  16  22
HETATM   22  C   UNL     1     -11.267  15.105  68.609  1.00  0.00    -0.295 C  
BRANCH  22  23
HETATM   23  C   UNL     1     -11.333  14.251  67.365  1.00  0.00    -0.349 A  
HETATM   24  C   UNL     1     -12.522  13.548  65.370  1.00  0.00    -0.540 A  
HETATM   25  C   UNL     1     -12.471  14.286  66.556  1.00  0.00    -0.242 A  
HETATM   26  C   UNL     1     -11.473  12.735  64.970  1.00  0.00    -0.321 A  
HETATM   27  N   UNL     1     -11.586  12.038  63.824  1.00  0.00    -0.441 NA 
HETATM   28  C   UNL     1     -10.570  11.219  63.479  1.00  0.00    -0.369 A  
HETATM   29  C   UNL     1      -9.424  11.056  64.232  1.00  0.00    -0.270 A  
HETATM   30  C   UNL     1      -9.301  11.797  65.402  1.00  0.00    -0.095 A  
HETATM   31  C   UNL     1     -10.334  12.659  65.797  1.00  0.00    -0.298 A  
HETATM   32  C   UNL     1     -10.266  13.427  66.979  1.00  0.00    -0.249 A  
ENDBRANCH  22  23
ENDBRANCH  16  22
ENDBRANCH   9  13
ENDBRANCH   3   6
TORSDOF 4
ENDMDL
MODEL       46
REMARK 921   NORMALIZED FREE ENERGY PREDICTED BY IDOCK:   -7.04 KCAL/MOL
REMARK 922        TOTAL FREE ENERGY PREDICTED BY IDOCK:   -9.35 KCAL/MOL
REMARK 923 INTER-LIGAND FREE ENERGY PREDICTED BY IDOCK:   -8.53 KCAL/MOL
REMARK 924 INTRA-LIGAND FREE ENERGY PREDICTED BY IDOCK:   -0.82 KCAL/MOL
REMARK 927      BINDING AFFINITY PREDICTED BY RF-SCORE:    0.00 PKD
ROOT
HETATM    1  C   UNL     1      -6.045  10.939  62.338  1.00  0.00    -0.076 C  
HETATM    2  N   UNL     1      -6.678  10.382  63.508  1.00  0.00    -0.308 N  
HETATM    3  C   UNL     1      -7.968   9.902  63.471  1.00  0.00    -0.155 C  
HETATM    4  H   UNL     1      -6.158  10.343  64.384  1.00  0.00     0.000 HD 
HETATM    5  O   UNL     1      -8.638   9.871  62.443  1.00  0.00    -0.148 OA 
ENDROOT
BRANCH   3   6
HETATM    6  C   UNL     1      -8.561   9.430  64.755  1.00  0.00    -0.202 A  
HETATM    7  C   UNL     1      -9.505  10.242  65.407  1.00  0.00    -0.287 A  
HETATM    8  C   UNL     1     -10.028   9.872  66.654  1.00  0.00    -0.277 A  
HETATM    9  C   UNL     1      -9.606   8.689  67.273  1.00  0.00    -0.216 A  
HETATM   10  C   UNL     1      -8.711   7.851  66.602  1.00  0.00    -0.154 A  
HETATM   11  F   UNL     1      -7.304   7.404  64.789  1.00  0.00    -0.062 F  
HETATM   12  C   UNL     1      -8.192   8.229  65.362  1.00  0.00    -0.145 A  
BRANCH   9  13
HETATM   13  C   UNL     1     -10.065   8.382  68.657  1.00  0.00    -0.193 C  
HETATM   14  N   UNL     1     -11.032   9.062  69.210  1.00  0.00    -0.104 NA 
HETATM   15  N   UNL     1     -11.266   8.693  70.510  1.00  0.00    -0.253 NA 
HETATM   16  C   UNL     1     -12.211   9.218  71.361  1.00  0.00    -0.349 A  
HETATM   17  C   UNL     1      -9.332   7.286  69.418  1.00  0.00    -0.151 C  
HETATM   18  C   UNL     1     -11.999   8.579  72.563  1.00  0.00    -0.331 A  
HETATM   19  N   UNL     1     -11.004   7.648  72.466  1.00  0.00    -0.294 NA 
HETATM   20  N   UNL     1      -9.593   6.972  70.643  1.00  0.00    -0.166 NA 
HETATM   21  C   UNL     1     -10.575   7.709  71.223  1.00  0.00    -0.219 A  
BRANCH  16  22
HETATM   22  C   UNL     1     -13.247  10.206  70.967  1.00  0.00    -0.412 C  
BRANCH  22  23
HETATM   23  C   UNL     1     -12.816  11.647  71.097  1.00  0.00    -0.392 A  
HETATM   24  C   UNL     1     -11.682  13.584  70.176  1.00  0.00    -0.280 A  
HETATM   25  C   UNL     1     -12.036  12.234  70.098  1.00  0.00    -0.364 A  
HETATM   26  C   UNL     1     -12.053  14.377  71.250  1.00  0.00    -0.335 A  
HETATM   27  N   UNL     1     -11.671  15.667  71.275  1.00  0.00    -0.380 NA 
HETATM   28  C   UNL     1     -12.007  16.406  72.353  1.00  0.00    -0.468 A  
HETATM   29  C   UNL     1     -12.721  15.917  73.429  1.00  0.00    -0.676 A  
HETATM   30  C   UNL     1     -13.137  14.590  73.388  1.00  0.00    -0.282 A  
HETATM   31  C   UNL     1     -12.807  13.787  72.286  1.00  0.00    -0.357 A  
HETATM   32  C   UNL     1     -13.195  12.433  72.196  1.00  0.00    -0.491 A  
ENDBRANCH  22  23
ENDBRANCH  16  22
ENDBRANCH   9  13
ENDBRANCH   3   6
TORSDOF 4
ENDMDL
MODEL       47
REMARK 921   NORMALIZED FREE ENERGY PREDICTED BY IDOCK:   -7.00 KCAL/MOL
REMARK 922        TOTAL FREE ENERGY PREDICTED BY IDOCK:   -9.30 KCAL/MOL
REMARK 923 INTER-LIGAND FREE ENERGY PREDICTED BY IDOCK:   -8.84 KCAL/MOL
REMARK 924 INTRA-LIGAND FREE ENERGY PREDICTED BY IDOCK:   -0.46 KCAL/MOL
REMARK 927      BINDING AFFINITY PREDICTED BY RF-SCORE:    0.00 PKD
ROOT
HETATM    1  C   UNL     1      -8.671   9.164  62.407  1.00  0.00    -0.222 C  
HETATM    2  N   UNL     1      -9.341   9.641  63.592  1.00  0.00    -0.430 N  
HETATM    3  C   UNL     1      -9.057   9.126  64.837  1.00  0.00    -0.132 C  
HETATM    4  H   UNL     1     -10.043  10.376  63.505  1.00  0.00     0.000 HD 
HETATM    5  O   UNL     1      -8.193   8.276  65.026  1.00  0.00    -0.146 OA 
ENDROOT
BRANCH   3   6
HETATM    6  C   UNL     1      -9.870   9.622  65.985  1.00  0.00    -0.345 A  
HETATM    7  C   UNL     1     -10.351  10.942  65.959  1.00  0.00    -0.304 A  
HETATM    8  C   UNL     1     -11.052  11.471  67.051  1.00  0.00    -0.365 A  
HETATM    9  C   UNL     1     -11.273  10.690  68.193  1.00  0.00    -0.366 A  
HETATM   10  C   UNL     1     -10.845   9.360  68.201  1.00  0.00    -0.174 A  
HETATM   11  F   UNL     1      -9.722   7.572  67.196  1.00  0.00    -0.164 F  
HETATM   12  C   UNL     1     -10.144   8.842  67.110  1.00  0.00    -0.249 A  
BRANCH   9  13
HETATM   13  C   UNL     1     -11.894  11.311  69.396  1.00  0.00    -0.355 C  
HETATM   14  N   UNL     1     -12.001  12.608  69.504  1.00  0.00    -0.297 NA 
HETATM   15  N   UNL     1     -12.526  13.000  70.708  1.00  0.00    -0.339 NA 
HETATM   16  C   UNL     1     -12.761  14.290  71.127  1.00  0.00    -0.360 A  
HETATM   17  C   UNL     1     -12.352  10.384  70.513  1.00  0.00    -0.322 C  
HETATM   18  C   UNL     1     -13.214  14.164  72.421  1.00  0.00    -0.472 A  
HETATM   19  N   UNL     1     -13.319  12.853  72.790  1.00  0.00    -0.344 NA 
HETATM   20  N   UNL     1     -12.846  10.803  71.630  1.00  0.00    -0.449 NA 
HETATM   21  C   UNL     1     -12.918  12.154  71.750  1.00  0.00    -0.332 A  
BRANCH  16  22
HETATM   22  C   UNL     1     -12.602  15.497  70.276  1.00  0.00    -0.362 C  
BRANCH  22  23
HETATM   23  C   UNL     1     -11.388  15.470  69.377  1.00  0.00    -0.321 A  
HETATM   24  C   UNL     1     -10.435  15.327  67.151  1.00  0.00    -0.280 A  
HETATM   25  C   UNL     1     -11.544  15.292  68.001  1.00  0.00    -0.325 A  
HETATM   26  C   UNL     1      -9.148  15.502  67.635  1.00  0.00    -0.182 A  
HETATM   27  N   UNL     1      -8.119  15.514  66.768  1.00  0.00    -0.238 NA 
HETATM   28  C   UNL     1      -6.871  15.641  67.267  1.00  0.00    -0.162 A  
HETATM   29  C   UNL     1      -6.591  15.761  68.615  1.00  0.00    -0.116 A  
HETATM   30  C   UNL     1      -7.659  15.774  69.505  1.00  0.00    -0.177 A  
HETATM   31  C   UNL     1      -8.972  15.643  69.027  1.00  0.00    -0.239 A  
HETATM   32  C   UNL     1     -10.092  15.641  69.885  1.00  0.00    -0.272 A  
ENDBRANCH  22  23
ENDBRANCH  16  22
ENDBRANCH   9  13
ENDBRANCH   3   6
TORSDOF 4
ENDMDL
MODEL       48
REMARK 921   NORMALIZED FREE ENERGY PREDICTED BY IDOCK:   -7.00 KCAL/MOL
REMARK 922        TOTAL FREE ENERGY PREDICTED BY IDOCK:   -9.30 KCAL/MOL
REMARK 923 INTER-LIGAND FREE ENERGY PREDICTED BY IDOCK:   -8.54 KCAL/MOL
REMARK 924 INTRA-LIGAND FREE ENERGY PREDICTED BY IDOCK:   -0.75 KCAL/MOL
REMARK 927      BINDING AFFINITY PREDICTED BY RF-SCORE:    0.00 PKD
ROOT
HETATM    1  C   UNL     1      -9.482   4.801  65.467  1.00  0.00    -0.163 C  
HETATM    2  N   UNL     1     -10.060   5.978  66.066  1.00  0.00    -0.398 N  
HETATM    3  C   UNL     1      -9.291   7.071  66.398  1.00  0.00    -0.138 C  
HETATM    4  H   UNL     1     -11.063   6.002  66.249  1.00  0.00     0.000 HD 
HETATM    5  O   UNL     1      -8.088   7.134  66.165  1.00  0.00    -0.110 OA 
ENDROOT
BRANCH   3   6
HETATM    6  C   UNL     1      -9.970   8.201  67.096  1.00  0.00    -0.304 A  
HETATM    7  C   UNL     1     -10.242   9.378  66.379  1.00  0.00    -0.300 A  
HETATM    8  C   UNL     1     -10.808  10.491  67.018  1.00  0.00    -0.288 A  
HETATM    9  C   UNL     1     -11.099  10.445  68.387  1.00  0.00    -0.322 A  
HETATM   10  C   UNL     1     -10.882   9.257  69.090  1.00  0.00    -0.154 A  
HETATM   11  F   UNL     1     -10.091   7.059  69.187  1.00  0.00    -0.165 F  
HETATM   12  C   UNL     1     -10.315   8.156  68.447  1.00  0.00    -0.199 A  
BRANCH   9  13
HETATM   13  C   UNL     1     -11.568  11.680  69.077  1.00  0.00    -0.316 C  
HETATM   14  N   UNL     1     -11.436  12.853  68.519  1.00  0.00    -0.286 NA 
HETATM   15  N   UNL     1     -11.851  13.878  69.330  1.00  0.00    -0.313 NA 
HETATM   16  C   UNL     1     -11.839  15.221  69.035  1.00  0.00    -0.318 A  
HETATM   17  C   UNL     1     -12.157  11.529  70.473  1.00  0.00    -0.378 C  
HETATM   18  C   UNL     1     -12.274  15.839  70.187  1.00  0.00    -0.314 A  
HETATM   19  N   UNL     1     -12.605  14.928  71.150  1.00  0.00    -0.309 NA 
HETATM   20  N   UNL     1     -12.538  12.528  71.197  1.00  0.00    -0.327 NA 
HETATM   21  C   UNL     1     -12.362  13.747  70.624  1.00  0.00    -0.375 A  
BRANCH  16  22
HETATM   22  C   UNL     1     -11.487  15.793  67.711  1.00  0.00    -0.175 C  
BRANCH  22  23
HETATM   23  C   UNL     1     -10.506  16.941  67.768  1.00  0.00    -0.340 A  
HETATM   24  C   UNL     1     -10.006  19.287  67.408  1.00  0.00    -0.462 A  
HETATM   25  C   UNL     1     -10.882  18.203  67.304  1.00  0.00    -0.241 A  
HETATM   26  C   UNL     1      -8.733  19.150  67.936  1.00  0.00    -0.305 A  
HETATM   27  N   UNL     1      -7.930  20.229  67.998  1.00  0.00    -0.198 NA 
HETATM   28  C   UNL     1      -6.679  20.060  68.475  1.00  0.00    -0.307 A  
HETATM   29  C   UNL     1      -6.176  18.847  68.905  1.00  0.00    -0.256 A  
HETATM   30  C   UNL     1      -7.017  17.740  68.863  1.00  0.00    -0.250 A  
HETATM   31  C   UNL     1      -8.325  17.872  68.373  1.00  0.00    -0.307 A  
HETATM   32  C   UNL     1      -9.218  16.782  68.300  1.00  0.00    -0.227 A  
ENDBRANCH  22  23
ENDBRANCH  16  22
ENDBRANCH   9  13
ENDBRANCH   3   6
TORSDOF 4
ENDMDL
MODEL       49
REMARK 921   NORMALIZED FREE ENERGY PREDICTED BY IDOCK:   -6.97 KCAL/MOL
REMARK 922        TOTAL FREE ENERGY PREDICTED BY IDOCK:   -9.26 KCAL/MOL
REMARK 923 INTER-LIGAND FREE ENERGY PREDICTED BY IDOCK:   -8.43 KCAL/MOL
REMARK 924 INTRA-LIGAND FREE ENERGY PREDICTED BY IDOCK:   -0.83 KCAL/MOL
REMARK 927      BINDING AFFINITY PREDICTED BY RF-SCORE:    0.00 PKD
ROOT
HETATM    1  C   UNL     1      -8.634   3.432  68.027  1.00  0.00    -0.095 C  
HETATM    2  N   UNL     1      -8.958   4.726  67.480  1.00  0.00    -0.108 N  
HETATM    3  C   UNL     1      -8.093   5.793  67.589  1.00  0.00    -0.102 C  
HETATM    4  H   UNL     1      -9.850   4.856  67.002  1.00  0.00     0.000 HD 
HETATM    5  O   UNL     1      -6.985   5.701  68.107  1.00  0.00    -0.062 OA 
ENDROOT
BRANCH   3   6
HETATM    6  C   UNL     1      -8.561   7.111  67.071  1.00  0.00    -0.122 A  
HETATM    7  C   UNL     1      -9.390   7.905  67.880  1.00  0.00    -0.150 A  
HETATM    8  C   UNL     1      -9.915   9.113  67.401  1.00  0.00    -0.262 A  
HETATM    9  C   UNL     1      -9.625   9.541  66.099  1.00  0.00    -0.302 A  
HETATM   10  C   UNL     1      -8.755   8.782  65.311  1.00  0.00    -0.216 A  
HETATM   11  F   UNL     1      -7.446   6.874  64.975  1.00  0.00    -0.075 F  
HETATM   12  C   UNL     1      -8.240   7.578  65.795  1.00  0.00    -0.137 A  
BRANCH   9  13
HETATM   13  C   UNL     1     -10.302  10.753  65.558  1.00  0.00    -0.241 C  
HETATM   14  N   UNL     1     -10.767  11.675  66.357  1.00  0.00    -0.262 NA 
HETATM   15  N   UNL     1     -11.424  12.676  65.688  1.00  0.00    -0.332 NA 
HETATM   16  C   UNL     1     -12.025  13.783  66.241  1.00  0.00    -0.429 A  
HETATM   17  C   UNL     1     -10.474  10.852  64.049  1.00  0.00    -0.309 C  
HETATM   18  C   UNL     1     -12.607  14.437  65.178  1.00  0.00    -0.315 A  
HETATM   19  N   UNL     1     -12.339  13.808  63.995  1.00  0.00    -0.679 NA 
HETATM   20  N   UNL     1     -11.099  11.820  63.465  1.00  0.00    -0.423 NA 
HETATM   21  C   UNL     1     -11.613  12.755  64.306  1.00  0.00    -0.376 A  
BRANCH  16  22
HETATM   22  C   UNL     1     -11.952  14.156  67.677  1.00  0.00    -0.405 C  
BRANCH  22  23
HETATM   23  C   UNL     1     -10.902  15.193  67.998  1.00  0.00    -0.284 A  
HETATM   24  C   UNL     1      -8.632  15.739  68.656  1.00  0.00    -0.194 A  
HETATM   25  C   UNL     1      -9.631  14.792  68.415  1.00  0.00    -0.213 A  
HETATM   26  C   UNL     1      -8.866  17.099  68.528  1.00  0.00    -0.265 A  
HETATM   27  N   UNL     1      -7.867  17.962  68.787  1.00  0.00    -0.283 NA 
HETATM   28  C   UNL     1      -8.134  19.283  68.699  1.00  0.00    -0.370 A  
HETATM   29  C   UNL     1      -9.369  19.797  68.357  1.00  0.00    -0.396 A  
HETATM   30  C   UNL     1     -10.391  18.900  68.065  1.00  0.00    -0.457 A  
HETATM   31  C   UNL     1     -10.157  17.519  68.147  1.00  0.00    -0.341 A  
HETATM   32  C   UNL     1     -11.160  16.566  67.870  1.00  0.00    -0.229 A  
ENDBRANCH  22  23
ENDBRANCH  16  22
ENDBRANCH   9  13
ENDBRANCH   3   6
TORSDOF 4
ENDMDL
MODEL       50
REMARK 921   NORMALIZED FREE ENERGY PREDICTED BY IDOCK:   -6.97 KCAL/MOL
REMARK 922        TOTAL FREE ENERGY PREDICTED BY IDOCK:   -9.26 KCAL/MOL
REMARK 923 INTER-LIGAND FREE ENERGY PREDICTED BY IDOCK:   -8.99 KCAL/MOL
REMARK 924 INTRA-LIGAND FREE ENERGY PREDICTED BY IDOCK:   -0.27 KCAL/MOL
REMARK 927      BINDING AFFINITY PREDICTED BY RF-SCORE:    0.00 PKD
ROOT
HETATM    1  C   UNL     1     -10.399  19.923  66.241  1.00  0.00    -0.495 C  
HETATM    2  N   UNL     1     -10.896  18.810  67.011  1.00  0.00    -0.357 N  
HETATM    3  C   UNL     1     -10.045  17.886  67.575  1.00  0.00    -0.342 C  
HETATM    4  H   UNL     1     -11.902  18.704  67.141  1.00  0.00     0.000 HD 
HETATM    5  O   UNL     1      -8.823  17.974  67.502  1.00  0.00    -0.249 OA 
ENDROOT
BRANCH   3   6
HETATM    6  C   UNL     1     -10.662  16.722  68.275  1.00  0.00    -0.364 A  
HETATM    7  C   UNL     1     -10.697  16.713  69.679  1.00  0.00    -0.286 A  
HETATM    8  C   UNL     1     -11.198  15.604  70.376  1.00  0.00    -0.374 A  
HETATM    9  C   UNL     1     -11.662  14.483  69.677  1.00  0.00    -0.356 A  
HETATM   10  C   UNL     1     -11.682  14.511  68.280  1.00  0.00    -0.368 A  
HETATM   11  F   UNL     1     -11.184  15.567  66.254  1.00  0.00    -0.314 F  
HETATM   12  C   UNL     1     -11.178  15.618  67.594  1.00  0.00    -0.274 A  
BRANCH   9  13
HETATM   13  C   UNL     1     -12.059  13.261  70.432  1.00  0.00    -0.327 C  
HETATM   14  N   UNL     1     -11.418  12.135  70.273  1.00  0.00    -0.011 NA 
HETATM   15  N   UNL     1     -11.969  11.103  70.989  1.00  0.00    -0.251 NA 
HETATM   16  C   UNL     1     -11.530   9.800  71.031  1.00  0.00    -0.383 A  
HETATM   17  C   UNL     1     -13.266  13.361  71.354  1.00  0.00    -0.250 C  
HETATM   18  C   UNL     1     -12.451   9.143  71.817  1.00  0.00    -0.372 A  
HETATM   19  N   UNL     1     -13.399   9.999  72.300  1.00  0.00    -0.383 NA 
HETATM   20  N   UNL     1     -13.746  12.358  72.011  1.00  0.00    -0.242 NA 
HETATM   21  C   UNL     1     -13.097  11.183  71.811  1.00  0.00    -0.431 A  
BRANCH  16  22
HETATM   22  C   UNL     1     -10.281   9.308  70.397  1.00  0.00    -0.284 C  
BRANCH  22  23
HETATM   23  C   UNL     1     -10.208   9.534  68.905  1.00  0.00    -0.213 A  
HETATM   24  C   UNL     1     -10.305   8.651  66.648  1.00  0.00    -0.303 A  
HETATM   25  C   UNL     1     -10.309   8.449  68.031  1.00  0.00    -0.270 A  
HETATM   26  C   UNL     1     -10.169   9.913  66.093  1.00  0.00    -0.207 A  
HETATM   27  N   UNL     1     -10.160  10.042  64.753  1.00  0.00    -0.207 NA 
HETATM   28  C   UNL     1      -9.980  11.277  64.237  1.00  0.00    -0.297 A  
HETATM   29  C   UNL     1      -9.808  12.413  65.004  1.00  0.00    -0.136 A  
HETATM   30  C   UNL     1      -9.844  12.279  66.387  1.00  0.00    -0.242 A  
HETATM   31  C   UNL     1     -10.027  11.013  66.964  1.00  0.00    -0.223 A  
HETATM   32  C   UNL     1     -10.062  10.818  68.361  1.00  0.00    -0.183 A  
ENDBRANCH  22  23
ENDBRANCH  16  22
ENDBRANCH   9  13
ENDBRANCH   3   6
TORSDOF 4
ENDMDL
MODEL       51
REMARK 921   NORMALIZED FREE ENERGY PREDICTED BY IDOCK:   -6.90 KCAL/MOL
REMARK 922        TOTAL FREE ENERGY PREDICTED BY IDOCK:   -9.17 KCAL/MOL
REMARK 923 INTER-LIGAND FREE ENERGY PREDICTED BY IDOCK:   -8.71 KCAL/MOL
REMARK 924 INTRA-LIGAND FREE ENERGY PREDICTED BY IDOCK:   -0.46 KCAL/MOL
REMARK 927      BINDING AFFINITY PREDICTED BY RF-SCORE:    0.00 PKD
ROOT
HETATM    1  C   UNL     1     -13.301  15.615  72.100  1.00  0.00    -0.460 C  
HETATM    2  N   UNL     1     -12.720  14.452  71.477  1.00  0.00    -0.326 N  
HETATM    3  C   UNL     1     -13.235  13.191  71.683  1.00  0.00    -0.346 C  
HETATM    4  H   UNL     1     -11.908  14.565  70.870  1.00  0.00     0.000 HD 
HETATM    5  O   UNL     1     -14.236  12.983  72.360  1.00  0.00    -0.504 OA 
ENDROOT
BRANCH   3   6
HETATM    6  C   UNL     1     -12.506  12.044  71.067  1.00  0.00    -0.376 A  
HETATM    7  C   UNL     1     -11.674  12.283  69.960  1.00  0.00    -0.319 A  
HETATM    8  C   UNL     1     -11.034  11.222  69.304  1.00  0.00    -0.297 A  
HETATM    9  C   UNL     1     -11.226   9.905  69.739  1.00  0.00    -0.279 A  
HETATM   10  C   UNL     1     -12.007   9.670  70.874  1.00  0.00    -0.391 A  
HETATM   11  F   UNL     1     -13.416  10.436  72.575  1.00  0.00    -0.441 F  
HETATM   12  C   UNL     1     -12.644  10.731  71.519  1.00  0.00    -0.395 A  
BRANCH   9  13
HETATM   13  C   UNL     1     -10.652   8.780  68.947  1.00  0.00    -0.155 C  
HETATM   14  N   UNL     1      -9.869   9.008  67.927  1.00  0.00    -0.163 NA 
HETATM   15  N   UNL     1      -9.500   7.860  67.274  1.00  0.00    -0.142 NA 
HETATM   16  C   UNL     1      -8.688   7.765  66.167  1.00  0.00    -0.156 A  
HETATM   17  C   UNL     1     -11.052   7.364  69.338  1.00  0.00    -0.029 C  
HETATM   18  C   UNL     1      -8.685   6.425  65.846  1.00  0.00    -0.145 A  
HETATM   19  N   UNL     1      -9.413   5.694  66.742  1.00  0.00    -0.135 NA 
HETATM   20  N   UNL     1     -10.673   6.313  68.691  1.00  0.00    -0.266 NA 
HETATM   21  C   UNL     1      -9.891   6.561  67.609  1.00  0.00    -0.125 A  
BRANCH  16  22
HETATM   22  C   UNL     1      -7.954   8.902  65.556  1.00  0.00    -0.107 C  
BRANCH  22  23
HETATM   23  C   UNL     1      -8.742  10.189  65.490  1.00  0.00    -0.173 A  
HETATM   24  C   UNL     1      -9.056  12.489  66.194  1.00  0.00    -0.012 A  
HETATM   25  C   UNL     1      -8.375  11.273  66.291  1.00  0.00    -0.142 A  
HETATM   26  C   UNL     1     -10.132  12.658  65.337  1.00  0.00    -0.261 A  
HETATM   27  N   UNL     1     -10.757  13.850  65.298  1.00  0.00    -0.325 NA 
HETATM   28  C   UNL     1     -11.830  13.976  64.489  1.00  0.00    -0.434 A  
HETATM   29  C   UNL     1     -12.322  12.954  63.699  1.00  0.00    -0.520 A  
HETATM   30  C   UNL     1     -11.658  11.733  63.723  1.00  0.00    -0.508 A  
HETATM   31  C   UNL     1     -10.539  11.560  64.552  1.00  0.00    -0.387 A  
HETATM   32  C   UNL     1      -9.833  10.340  64.622  1.00  0.00    -0.396 A  
ENDBRANCH  22  23
ENDBRANCH  16  22
ENDBRANCH   9  13
ENDBRANCH   3   6
TORSDOF 4
ENDMDL
MODEL       52
REMARK 921   NORMALIZED FREE ENERGY PREDICTED BY IDOCK:   -6.90 KCAL/MOL
REMARK 922        TOTAL FREE ENERGY PREDICTED BY IDOCK:   -9.17 KCAL/MOL
REMARK 923 INTER-LIGAND FREE ENERGY PREDICTED BY IDOCK:   -8.40 KCAL/MOL
REMARK 924 INTRA-LIGAND FREE ENERGY PREDICTED BY IDOCK:   -0.77 KCAL/MOL
REMARK 927      BINDING AFFINITY PREDICTED BY RF-SCORE:    0.00 PKD
ROOT
HETATM    1  C   UNL     1      -9.372   3.553  67.958  1.00  0.00    -0.184 C  
HETATM    2  N   UNL     1      -9.581   4.864  67.398  1.00  0.00    -0.143 N  
HETATM    3  C   UNL     1      -8.783   5.932  67.743  1.00  0.00    -0.104 C  
HETATM    4  H   UNL     1     -10.339   5.006  66.730  1.00  0.00     0.000 HD 
HETATM    5  O   UNL     1      -7.824   5.829  68.502  1.00  0.00    -0.095 OA 
ENDROOT
BRANCH   3   6
HETATM    6  C   UNL     1      -9.139   7.266  67.178  1.00  0.00    -0.144 A  
HETATM    7  C   UNL     1     -10.004   8.103  67.902  1.00  0.00    -0.225 A  
HETATM    8  C   UNL     1     -10.426   9.330  67.370  1.00  0.00    -0.340 A  
HETATM    9  C   UNL     1      -9.995   9.733  66.100  1.00  0.00    -0.338 A  
HETATM   10  C   UNL     1      -9.090   8.929  65.401  1.00  0.00    -0.222 A  
HETATM   11  F   UNL     1      -7.843   6.962  65.198  1.00  0.00    -0.090 F  
HETATM   12  C   UNL     1      -8.679   7.708  65.936  1.00  0.00    -0.152 A  
BRANCH   9  13
HETATM   13  C   UNL     1     -10.562  10.970  65.492  1.00  0.00    -0.200 C  
HETATM   14  N   UNL     1     -10.927  11.978  66.238  1.00  0.00    -0.286 NA 
HETATM   15  N   UNL     1     -11.495  12.995  65.515  1.00  0.00    -0.311 NA 
HETATM   16  C   UNL     1     -11.981  14.185  66.006  1.00  0.00    -0.413 A  
HETATM   17  C   UNL     1     -10.747  10.995  63.981  1.00  0.00    -0.261 C  
HETATM   18  C   UNL     1     -12.514  14.828  64.909  1.00  0.00    -0.182 A  
HETATM   19  N   UNL     1     -12.324  14.106  63.765  1.00  0.00    -0.759 NA 
HETATM   20  N   UNL     1     -11.285  11.982  63.346  1.00  0.00    -0.414 NA 
HETATM   21  C   UNL     1     -11.696  13.009  64.132  1.00  0.00    -0.412 A  
BRANCH  16  22
HETATM   22  C   UNL     1     -11.853  14.635  67.415  1.00  0.00    -0.374 C  
BRANCH  22  23
HETATM   23  C   UNL     1     -10.903  15.792  67.616  1.00  0.00    -0.310 A  
HETATM   24  C   UNL     1     -10.284  17.806  68.817  1.00  0.00    -0.373 A  
HETATM   25  C   UNL     1     -11.184  16.765  68.578  1.00  0.00    -0.176 A  
HETATM   26  C   UNL     1      -9.107  17.937  68.096  1.00  0.00    -0.278 A  
HETATM   27  N   UNL     1      -8.286  18.969  68.363  1.00  0.00    -0.336 NA 
HETATM   28  C   UNL     1      -7.169  19.099  67.617  1.00  0.00    -0.223 A  
HETATM   29  C   UNL     1      -6.820  18.234  66.597  1.00  0.00    -0.230 A  
HETATM   30  C   UNL     1      -7.658  17.154  66.342  1.00  0.00    -0.347 A  
HETATM   31  C   UNL     1      -8.830  16.983  67.094  1.00  0.00    -0.232 A  
HETATM   32  C   UNL     1      -9.720  15.912  66.871  1.00  0.00    -0.241 A  
ENDBRANCH  22  23
ENDBRANCH  16  22
ENDBRANCH   9  13
ENDBRANCH   3   6
TORSDOF 4
ENDMDL
MODEL       53
REMARK 921   NORMALIZED FREE ENERGY PREDICTED BY IDOCK:   -6.89 KCAL/MOL
REMARK 922        TOTAL FREE ENERGY PREDICTED BY IDOCK:   -9.16 KCAL/MOL
REMARK 923 INTER-LIGAND FREE ENERGY PREDICTED BY IDOCK:   -8.33 KCAL/MOL
REMARK 924 INTRA-LIGAND FREE ENERGY PREDICTED BY IDOCK:   -0.83 KCAL/MOL
REMARK 927      BINDING AFFINITY PREDICTED BY RF-SCORE:    0.00 PKD
ROOT
HETATM    1  C   UNL     1      -8.637  18.914  66.344  1.00  0.00    -0.294 C  
HETATM    2  N   UNL     1      -9.170  17.757  67.020  1.00  0.00    -0.249 N  
HETATM    3  C   UNL     1     -10.155  16.980  66.452  1.00  0.00    -0.317 C  
HETATM    4  H   UNL     1      -8.809  17.508  67.940  1.00  0.00     0.000 HD 
HETATM    5  O   UNL     1     -10.603  17.189  65.329  1.00  0.00    -0.662 OA 
ENDROOT
BRANCH   3   6
HETATM    6  C   UNL     1     -10.702  15.860  67.271  1.00  0.00    -0.306 A  
HETATM    7  C   UNL     1     -11.370  16.158  68.471  1.00  0.00    -0.359 A  
HETATM    8  C   UNL     1     -11.830  15.131  69.308  1.00  0.00    -0.347 A  
HETATM    9  C   UNL     1     -11.620  13.791  68.961  1.00  0.00    -0.356 A  
HETATM   10  C   UNL     1     -11.007  13.491  67.741  1.00  0.00    -0.284 A  
HETATM   11  F   UNL     1      -9.930  14.166  65.779  1.00  0.00    -0.291 F  
HETATM   12  C   UNL     1     -10.548  14.519  66.916  1.00  0.00    -0.279 A  
BRANCH   9  13
HETATM   13  C   UNL     1     -11.989  12.718  69.927  1.00  0.00    -0.298 C  
HETATM   14  N   UNL     1     -11.586  11.488  69.751  1.00  0.00    -0.314 NA 
HETATM   15  N   UNL     1     -12.084  10.626  70.693  1.00  0.00    -0.332 NA 
HETATM   16  C   UNL     1     -11.849   9.273  70.781  1.00  0.00    -0.243 A  
HETATM   17  C   UNL     1     -12.892  13.096  71.093  1.00  0.00    -0.264 C  
HETATM   18  C   UNL     1     -12.627   8.847  71.836  1.00  0.00    -0.377 A  
HETATM   19  N   UNL     1     -13.281   9.890  72.429  1.00  0.00    -0.323 NA 
HETATM   20  N   UNL     1     -13.332  12.245  71.958  1.00  0.00    -0.477 NA 
HETATM   21  C   UNL     1     -12.940  10.962  71.746  1.00  0.00    -0.451 A  
BRANCH  16  22
HETATM   22  C   UNL     1     -10.892   8.524  69.929  1.00  0.00    -0.205 C  
BRANCH  22  23
HETATM   23  C   UNL     1      -9.586   9.241  69.679  1.00  0.00    -0.192 A  
HETATM   24  C   UNL     1      -7.366   9.866  70.429  1.00  0.00    -0.139 A  
HETATM   25  C   UNL     1      -8.602   9.259  70.669  1.00  0.00    -0.270 A  
HETATM   26  C   UNL     1      -7.081  10.497  69.229  1.00  0.00    -0.097 A  
HETATM   27  N   UNL     1      -5.878  11.075  69.062  1.00  0.00    -0.040 NA 
HETATM   28  C   UNL     1      -5.642  11.722  67.901  1.00  0.00    -0.051 A  
HETATM   29  C   UNL     1      -6.562  11.823  66.876  1.00  0.00    -0.114 A  
HETATM   30  C   UNL     1      -7.796  11.203  67.042  1.00  0.00    -0.142 A  
HETATM   31  C   UNL     1      -8.082  10.521  68.235  1.00  0.00    -0.115 A  
HETATM   32  C   UNL     1      -9.319   9.881  68.460  1.00  0.00    -0.143 A  
ENDBRANCH  22  23
ENDBRANCH  16  22
ENDBRANCH   9  13
ENDBRANCH   3   6
TORSDOF 4
ENDMDL
MODEL       54
REMARK 921   NORMALIZED FREE ENERGY PREDICTED BY IDOCK:   -6.86 KCAL/MOL
REMARK 922        TOTAL FREE ENERGY PREDICTED BY IDOCK:   -9.12 KCAL/MOL
REMARK 923 INTER-LIGAND FREE ENERGY PREDICTED BY IDOCK:   -8.41 KCAL/MOL
REMARK 924 INTRA-LIGAND FREE ENERGY PREDICTED BY IDOCK:   -0.71 KCAL/MOL
REMARK 927      BINDING AFFINITY PREDICTED BY RF-SCORE:    0.00 PKD
ROOT
HETATM    1  C   UNL     1     -10.817  16.146  65.241  1.00  0.00    -0.336 C  
HETATM    2  N   UNL     1     -11.064  15.072  66.171  1.00  0.00    -0.338 N  
HETATM    3  C   UNL     1     -10.952  15.256  67.532  1.00  0.00    -0.315 C  
HETATM    4  H   UNL     1     -11.327  14.154  65.814  1.00  0.00     0.000 HD 
HETATM    5  O   UNL     1     -10.686  16.342  68.037  1.00  0.00    -0.311 OA 
ENDROOT
BRANCH   3   6
HETATM    6  C   UNL     1     -11.139  14.061  68.403  1.00  0.00    -0.275 A  
HETATM    7  C   UNL     1     -10.496  12.860  68.058  1.00  0.00    -0.237 A  
HETATM    8  C   UNL     1     -10.708  11.693  68.806  1.00  0.00    -0.254 A  
HETATM    9  C   UNL     1     -11.576  11.708  69.906  1.00  0.00    -0.366 A  
HETATM   10  C   UNL     1     -12.172  12.914  70.286  1.00  0.00    -0.362 A  
HETATM   11  F   UNL     1     -12.594  15.185  69.923  1.00  0.00    -0.339 F  
HETATM   12  C   UNL     1     -11.959  14.069  69.533  1.00  0.00    -0.339 A  
BRANCH   9  13
HETATM   13  C   UNL     1     -11.898  10.431  70.602  1.00  0.00    -0.350 C  
HETATM   14  N   UNL     1     -11.164   9.366  70.425  1.00  0.00    -0.254 NA 
HETATM   15  N   UNL     1     -11.654   8.267  71.083  1.00  0.00    -0.276 NA 
HETATM   16  C   UNL     1     -11.114   7.001  71.094  1.00  0.00    -0.258 A  
HETATM   17  C   UNL     1     -13.138  10.400  71.485  1.00  0.00    -0.431 C  
HETATM   18  C   UNL     1     -12.004   6.244  71.823  1.00  0.00    -0.256 A  
HETATM   19  N   UNL     1     -13.032   7.005  72.304  1.00  0.00     0.011 NA 
HETATM   20  N   UNL     1     -13.556   9.339  72.089  1.00  0.00    -0.447 NA 
HETATM   21  C   UNL     1     -12.810   8.226  71.868  1.00  0.00    -0.344 A  
BRANCH  16  22
HETATM   22  C   UNL     1      -9.810   6.633  70.486  1.00  0.00    -0.190 C  
BRANCH  22  23
HETATM   23  C   UNL     1      -9.916   6.014  69.113  1.00  0.00    -0.205 A  
HETATM   24  C   UNL     1     -10.760   6.094  66.840  1.00  0.00    -0.413 A  
HETATM   25  C   UNL     1     -10.703   6.622  68.132  1.00  0.00    -0.320 A  
HETATM   26  C   UNL     1     -10.077   4.940  66.490  1.00  0.00    -0.255 A  
HETATM   27  N   UNL     1     -10.182   4.472  65.233  1.00  0.00    -0.192 NA 
HETATM   28  C   UNL     1      -9.543   3.322  64.930  1.00  0.00    -0.140 A  
HETATM   29  C   UNL     1      -8.788   2.601  65.834  1.00  0.00    -0.135 A  
HETATM   30  C   UNL     1      -8.661   3.101  67.125  1.00  0.00    -0.122 A  
HETATM   31  C   UNL     1      -9.310   4.293  67.482  1.00  0.00    -0.193 A  
HETATM   32  C   UNL     1      -9.223   4.841  68.779  1.00  0.00    -0.170 A  
ENDBRANCH  22  23
ENDBRANCH  16  22
ENDBRANCH   9  13
ENDBRANCH   3   6
TORSDOF 4
ENDMDL
MODEL       55
REMARK 921   NORMALIZED FREE ENERGY PREDICTED BY IDOCK:   -6.82 KCAL/MOL
REMARK 922        TOTAL FREE ENERGY PREDICTED BY IDOCK:   -9.08 KCAL/MOL
REMARK 923 INTER-LIGAND FREE ENERGY PREDICTED BY IDOCK:   -8.43 KCAL/MOL
REMARK 924 INTRA-LIGAND FREE ENERGY PREDICTED BY IDOCK:   -0.65 KCAL/MOL
REMARK 927      BINDING AFFINITY PREDICTED BY RF-SCORE:    0.00 PKD
ROOT
HETATM    1  C   UNL     1      -5.396   7.574  70.283  1.00  0.00    -0.023 C  
HETATM    2  N   UNL     1      -6.293   8.343  69.457  1.00  0.00    -0.036 N  
HETATM    3  C   UNL     1      -7.117   7.741  68.532  1.00  0.00    -0.073 C  
HETATM    4  H   UNL     1      -6.318   9.357  69.559  1.00  0.00     0.000 HD 
HETATM    5  O   UNL     1      -7.177   6.524  68.386  1.00  0.00    -0.080 OA 
ENDROOT
BRANCH   3   6
HETATM    6  C   UNL     1      -7.940   8.631  67.664  1.00  0.00    -0.107 A  
HETATM    7  C   UNL     1      -7.291   9.527  66.798  1.00  0.00    -0.090 A  
HETATM    8  C   UNL     1      -8.027  10.435  66.023  1.00  0.00    -0.144 A  
HETATM    9  C   UNL     1      -9.424  10.468  66.112  1.00  0.00    -0.222 A  
HETATM   10  C   UNL     1     -10.076   9.541  66.930  1.00  0.00    -0.295 A  
HETATM   11  F   UNL     1     -10.018   7.808  68.499  1.00  0.00    -0.162 F  
HETATM   12  C   UNL     1      -9.335   8.643  67.701  1.00  0.00    -0.137 A  
BRANCH   9  13
HETATM   13  C   UNL     1     -10.179  11.530  65.391  1.00  0.00    -0.264 C  
HETATM   14  N   UNL     1     -10.060  12.786  65.728  1.00  0.00    -0.285 NA 
HETATM   15  N   UNL     1     -10.886  13.611  65.007  1.00  0.00    -0.331 NA 
HETATM   16  C   UNL     1     -10.997  14.977  65.126  1.00  0.00    -0.406 A  
HETATM   17  C   UNL     1     -11.130  11.095  64.284  1.00  0.00    -0.105 C  
HETATM   18  C   UNL     1     -12.002  15.327  64.252  1.00  0.00    -0.223 A  
HETATM   19  N   UNL     1     -12.469  14.242  63.566  1.00  0.00    -0.721 NA 
HETATM   20  N   UNL     1     -11.885  11.913  63.630  1.00  0.00    -0.481 NA 
HETATM   21  C   UNL     1     -11.783  13.212  64.013  1.00  0.00    -0.439 A  
BRANCH  16  22
HETATM   22  C   UNL     1     -10.130  15.824  65.983  1.00  0.00    -0.359 C  
BRANCH  22  23
HETATM   23  C   UNL     1     -10.538  15.864  67.437  1.00  0.00    -0.315 A  
HETATM   24  C   UNL     1     -10.640  17.050  69.551  1.00  0.00    -0.168 A  
HETATM   25  C   UNL     1     -10.215  16.973  68.222  1.00  0.00    -0.326 A  
HETATM   26  C   UNL     1     -11.360  16.028  70.149  1.00  0.00    -0.365 A  
HETATM   27  N   UNL     1     -11.731  16.154  71.436  1.00  0.00    -0.459 NA 
HETATM   28  C   UNL     1     -12.392  15.126  72.008  1.00  0.00    -0.356 A  
HETATM   29  C   UNL     1     -12.711  13.954  71.349  1.00  0.00    -0.445 A  
HETATM   30  C   UNL     1     -12.349  13.839  70.011  1.00  0.00    -0.364 A  
HETATM   31  C   UNL     1     -11.659  14.884  69.379  1.00  0.00    -0.337 A  
HETATM   32  C   UNL     1     -11.260  14.816  68.027  1.00  0.00    -0.311 A  
ENDBRANCH  22  23
ENDBRANCH  16  22
ENDBRANCH   9  13
ENDBRANCH   3   6
TORSDOF 4
ENDMDL
MODEL       56
REMARK 921   NORMALIZED FREE ENERGY PREDICTED BY IDOCK:   -6.79 KCAL/MOL
REMARK 922        TOTAL FREE ENERGY PREDICTED BY IDOCK:   -9.04 KCAL/MOL
REMARK 923 INTER-LIGAND FREE ENERGY PREDICTED BY IDOCK:   -8.34 KCAL/MOL
REMARK 924 INTRA-LIGAND FREE ENERGY PREDICTED BY IDOCK:   -0.70 KCAL/MOL
REMARK 927      BINDING AFFINITY PREDICTED BY RF-SCORE:    0.00 PKD
ROOT
HETATM    1  C   UNL     1      -8.473   4.216  63.933  1.00  0.00    -0.100 C  
HETATM    2  N   UNL     1      -9.115   5.301  64.632  1.00  0.00    -0.358 N  
HETATM    3  C   UNL     1      -8.400   6.170  65.427  1.00  0.00    -0.150 C  
HETATM    4  H   UNL     1     -10.122   5.429  64.536  1.00  0.00     0.000 HD 
HETATM    5  O   UNL     1      -7.181   6.108  65.552  1.00  0.00    -0.070 OA 
ENDROOT
BRANCH   3   6
HETATM    6  C   UNL     1      -9.170   7.203  66.178  1.00  0.00    -0.126 A  
HETATM    7  C   UNL     1      -9.028   8.553  65.818  1.00  0.00    -0.229 A  
HETATM    8  C   UNL     1      -9.673   9.562  66.548  1.00  0.00    -0.284 A  
HETATM    9  C   UNL     1     -10.461   9.233  67.658  1.00  0.00    -0.325 A  
HETATM   10  C   UNL     1     -10.650   7.888  67.985  1.00  0.00    -0.194 A  
HETATM   11  F   UNL     1     -10.188   5.621  67.645  1.00  0.00    -0.149 F  
HETATM   12  C   UNL     1     -10.001   6.891  67.255  1.00  0.00    -0.172 A  
BRANCH   9  13
HETATM   13  C   UNL     1     -11.024  10.323  68.505  1.00  0.00    -0.247 C  
HETATM   14  N   UNL     1     -11.231  11.515  68.016  1.00  0.00    -0.246 NA 
HETATM   15  N   UNL     1     -11.678  12.407  68.957  1.00  0.00    -0.309 NA 
HETATM   16  C   UNL     1     -11.983  13.733  68.759  1.00  0.00    -0.365 A  
HETATM   17  C   UNL     1     -11.299  10.010  69.969  1.00  0.00    -0.275 C  
HETATM   18  C   UNL     1     -12.307  14.211  70.010  1.00  0.00    -0.344 A  
HETATM   19  N   UNL     1     -12.267  13.221  70.950  1.00  0.00    -0.329 NA 
HETATM   20  N   UNL     1     -11.725  10.885  70.817  1.00  0.00    -0.312 NA 
HETATM   21  C   UNL     1     -11.901  12.132  70.309  1.00  0.00    -0.254 A  
BRANCH  16  22
HETATM   22  C   UNL     1     -12.004  14.408  67.437  1.00  0.00    -0.407 C  
BRANCH  22  23
HETATM   23  C   UNL     1     -10.954  15.480  67.267  1.00  0.00    -0.303 A  
HETATM   24  C   UNL     1      -8.831  16.202  66.344  1.00  0.00    -0.355 A  
HETATM   25  C   UNL     1      -9.782  15.202  66.561  1.00  0.00    -0.290 A  
HETATM   26  C   UNL     1      -8.990  17.485  66.843  1.00  0.00    -0.251 A  
HETATM   27  N   UNL     1      -8.033  18.402  66.612  1.00  0.00    -0.249 NA 
HETATM   28  C   UNL     1      -8.191  19.631  67.147  1.00  0.00    -0.289 A  
HETATM   29  C   UNL     1      -9.277  20.001  67.916  1.00  0.00    -0.412 A  
HETATM   30  C   UNL     1     -10.277  19.059  68.130  1.00  0.00    -0.472 A  
HETATM   31  C   UNL     1     -10.151  17.769  67.592  1.00  0.00    -0.342 A  
HETATM   32  C   UNL     1     -11.130  16.771  67.787  1.00  0.00    -0.135 A  
ENDBRANCH  22  23
ENDBRANCH  16  22
ENDBRANCH   9  13
ENDBRANCH   3   6
TORSDOF 4
ENDMDL
MODEL       57
REMARK 921   NORMALIZED FREE ENERGY PREDICTED BY IDOCK:   -6.79 KCAL/MOL
REMARK 922        TOTAL FREE ENERGY PREDICTED BY IDOCK:   -9.03 KCAL/MOL
REMARK 923 INTER-LIGAND FREE ENERGY PREDICTED BY IDOCK:   -8.54 KCAL/MOL
REMARK 924 INTRA-LIGAND FREE ENERGY PREDICTED BY IDOCK:   -0.50 KCAL/MOL
REMARK 927      BINDING AFFINITY PREDICTED BY RF-SCORE:    0.00 PKD
ROOT
HETATM    1  C   UNL     1     -10.282  20.321  66.705  1.00  0.00    -0.362 C  
HETATM    2  N   UNL     1     -10.448  18.892  66.604  1.00  0.00    -0.408 N  
HETATM    3  C   UNL     1     -10.339  18.073  67.705  1.00  0.00    -0.393 C  
HETATM    4  H   UNL     1     -10.651  18.478  65.694  1.00  0.00     0.000 HD 
HETATM    5  O   UNL     1     -10.145  18.502  68.838  1.00  0.00    -0.386 OA 
ENDROOT
BRANCH   3   6
HETATM    6  C   UNL     1     -10.438  16.602  67.479  1.00  0.00    -0.317 A  
HETATM    7  C   UNL     1     -11.373  15.861  68.220  1.00  0.00    -0.342 A  
HETATM    8  C   UNL     1     -11.444  14.466  68.093  1.00  0.00    -0.337 A  
HETATM    9  C   UNL     1     -10.572  13.791  67.230  1.00  0.00    -0.275 A  
HETATM   10  C   UNL     1      -9.679  14.530  66.450  1.00  0.00    -0.314 A  
HETATM   11  F   UNL     1      -8.705  16.567  65.840  1.00  0.00    -0.339 F  
HETATM   12  C   UNL     1      -9.613  15.918  66.585  1.00  0.00    -0.246 A  
BRANCH   9  13
HETATM   13  C   UNL     1     -10.566  12.301  67.213  1.00  0.00    -0.224 C  
HETATM   14  N   UNL     1     -10.662  11.616  68.320  1.00  0.00    -0.202 NA 
HETATM   15  N   UNL     1     -10.561  10.263  68.119  1.00  0.00    -0.204 NA 
HETATM   16  C   UNL     1     -10.621   9.279  69.079  1.00  0.00    -0.205 A  
HETATM   17  C   UNL     1     -10.392  11.610  65.868  1.00  0.00    -0.248 C  
HETATM   18  C   UNL     1     -10.392   8.105  68.395  1.00  0.00    -0.199 A  
HETATM   19  N   UNL     1     -10.252   8.326  67.054  1.00  0.00    -0.282 NA 
HETATM   20  N   UNL     1     -10.307  10.329  65.730  1.00  0.00    -0.210 NA 
HETATM   21  C   UNL     1     -10.370   9.627  66.890  1.00  0.00    -0.238 A  
BRANCH  16  22
HETATM   22  C   UNL     1     -10.940   9.512  70.510  1.00  0.00    -0.348 C  
BRANCH  22  23
HETATM   23  C   UNL     1     -11.030   8.253  71.341  1.00  0.00    -0.301 A  
HETATM   24  C   UNL     1     -12.266   6.284  72.030  1.00  0.00    -0.270 A  
HETATM   25  C   UNL     1     -12.193   7.482  71.315  1.00  0.00    -0.357 A  
HETATM   26  C   UNL     1     -11.215   5.834  72.814  1.00  0.00    -0.292 A  
HETATM   27  N   UNL     1     -11.350   4.679  73.490  1.00  0.00    -0.312 NA 
HETATM   28  C   UNL     1     -10.330   4.285  74.281  1.00  0.00    -0.236 A  
HETATM   29  C   UNL     1      -9.157   4.999  74.435  1.00  0.00    -0.114 A  
HETATM   30  C   UNL     1      -9.011   6.179  73.714  1.00  0.00    -0.129 A  
HETATM   31  C   UNL     1     -10.049   6.624  72.881  1.00  0.00    -0.200 A  
HETATM   32  C   UNL     1      -9.958   7.818  72.135  1.00  0.00    -0.249 A  
ENDBRANCH  22  23
ENDBRANCH  16  22
ENDBRANCH   9  13
ENDBRANCH   3   6
TORSDOF 4
ENDMDL
MODEL       58
REMARK 921   NORMALIZED FREE ENERGY PREDICTED BY IDOCK:   -6.73 KCAL/MOL
REMARK 922        TOTAL FREE ENERGY PREDICTED BY IDOCK:   -8.96 KCAL/MOL
REMARK 923 INTER-LIGAND FREE ENERGY PREDICTED BY IDOCK:   -8.29 KCAL/MOL
REMARK 924 INTRA-LIGAND FREE ENERGY PREDICTED BY IDOCK:   -0.67 KCAL/MOL
REMARK 927      BINDING AFFINITY PREDICTED BY RF-SCORE:    0.00 PKD
ROOT
HETATM    1  C   UNL     1     -10.656  17.658  67.608  1.00  0.00    -0.362 C  
HETATM    2  N   UNL     1     -11.066  16.339  68.020  1.00  0.00    -0.328 N  
HETATM    3  C   UNL     1     -11.159  15.995  69.350  1.00  0.00    -0.331 C  
HETATM    4  H   UNL     1     -11.293  15.643  67.309  1.00  0.00     0.000 HD 
HETATM    5  O   UNL     1     -10.950  16.791  70.260  1.00  0.00    -0.230 OA 
ENDROOT
BRANCH   3   6
HETATM    6  C   UNL     1     -11.504  14.580  69.670  1.00  0.00    -0.332 A  
HETATM    7  C   UNL     1     -12.256  14.307  70.825  1.00  0.00    -0.423 A  
HETATM    8  C   UNL     1     -12.535  12.986  71.203  1.00  0.00    -0.364 A  
HETATM    9  C   UNL     1     -12.055  11.917  70.435  1.00  0.00    -0.421 A  
HETATM   10  C   UNL     1     -11.355  12.185  69.256  1.00  0.00    -0.327 A  
HETATM   11  F   UNL     1     -10.366  13.695  67.770  1.00  0.00    -0.228 F  
HETATM   12  C   UNL     1     -11.079  13.504  68.890  1.00  0.00    -0.267 A  
BRANCH   9  13
HETATM   13  C   UNL     1     -12.240  10.522  70.926  1.00  0.00    -0.388 C  
HETATM   14  N   UNL     1     -11.360   9.595  70.661  1.00  0.00    -0.288 NA 
HETATM   15  N   UNL     1     -11.732   8.359  71.126  1.00  0.00    -0.279 NA 
HETATM   16  C   UNL     1     -11.027   7.184  71.005  1.00  0.00    -0.252 A  
HETATM   17  C   UNL     1     -13.512  10.207  71.701  1.00  0.00    -0.284 C  
HETATM   18  C   UNL     1     -11.846   6.223  71.555  1.00  0.00    -0.230 A  
HETATM   19  N   UNL     1     -12.993   6.770  72.057  1.00  0.00    -0.205 NA 
HETATM   20  N   UNL     1     -13.816   9.025  72.122  1.00  0.00    -0.454 NA 
HETATM   21  C   UNL     1     -12.914   8.060  71.809  1.00  0.00    -0.331 A  
BRANCH  16  22
HETATM   22  C   UNL     1      -9.653   7.076  70.452  1.00  0.00    -0.169 C  
BRANCH  22  23
HETATM   23  C   UNL     1      -9.495   7.642  69.061  1.00  0.00    -0.150 A  
HETATM   24  C   UNL     1     -10.253   7.786  66.761  1.00  0.00    -0.346 A  
HETATM   25  C   UNL     1     -10.348   7.224  68.037  1.00  0.00    -0.243 A  
HETATM   26  C   UNL     1      -9.298   8.742  66.451  1.00  0.00    -0.204 A  
HETATM   27  N   UNL     1      -9.247   9.236  65.201  1.00  0.00    -0.226 NA 
HETATM   28  C   UNL     1      -8.280  10.132  64.913  1.00  0.00    -0.157 A  
HETATM   29  C   UNL     1      -7.342  10.571  65.827  1.00  0.00    -0.137 A  
HETATM   30  C   UNL     1      -7.414  10.078  67.125  1.00  0.00    -0.091 A  
HETATM   31  C   UNL     1      -8.404   9.143  67.465  1.00  0.00    -0.116 A  
HETATM   32  C   UNL     1      -8.518   8.603  68.764  1.00  0.00    -0.129 A  
ENDBRANCH  22  23
ENDBRANCH  16  22
ENDBRANCH   9  13
ENDBRANCH   3   6
TORSDOF 4
ENDMDL
MODEL       59
REMARK 921   NORMALIZED FREE ENERGY PREDICTED BY IDOCK:   -6.73 KCAL/MOL
REMARK 922        TOTAL FREE ENERGY PREDICTED BY IDOCK:   -8.96 KCAL/MOL
REMARK 923 INTER-LIGAND FREE ENERGY PREDICTED BY IDOCK:   -7.98 KCAL/MOL
REMARK 924 INTRA-LIGAND FREE ENERGY PREDICTED BY IDOCK:   -0.97 KCAL/MOL
REMARK 927      BINDING AFFINITY PREDICTED BY RF-SCORE:    0.00 PKD
ROOT
HETATM    1  C   UNL     1     -10.398   5.123  74.440  1.00  0.00    -0.279 C  
HETATM    2  N   UNL     1     -10.289   6.183  73.469  1.00  0.00    -0.231 N  
HETATM    3  C   UNL     1     -11.278   6.411  72.537  1.00  0.00    -0.272 C  
HETATM    4  H   UNL     1      -9.461   6.778  73.471  1.00  0.00     0.000 HD 
HETATM    5  O   UNL     1     -12.322   5.769  72.503  1.00  0.00    -0.144 OA 
ENDROOT
BRANCH   3   6
HETATM    6  C   UNL     1     -11.029   7.473  71.520  1.00  0.00    -0.256 A  
HETATM    7  C   UNL     1     -10.225   7.174  70.407  1.00  0.00    -0.203 A  
HETATM    8  C   UNL     1      -9.903   8.164  69.468  1.00  0.00    -0.181 A  
HETATM    9  C   UNL     1     -10.371   9.474  69.636  1.00  0.00    -0.236 A  
HETATM   10  C   UNL     1     -11.217   9.761  70.711  1.00  0.00    -0.419 A  
HETATM   11  F   UNL     1     -12.310   9.119  72.676  1.00  0.00    -0.386 F  
HETATM   12  C   UNL     1     -11.529   8.770  71.643  1.00  0.00    -0.316 A  
BRANCH   9  13
HETATM   13  C   UNL     1      -9.905  10.543  68.709  1.00  0.00    -0.186 C  
HETATM   14  N   UNL     1     -10.671  11.560  68.418  1.00  0.00    -0.197 NA 
HETATM   15  N   UNL     1     -10.108  12.401  67.492  1.00  0.00    -0.201 NA 
HETATM   16  C   UNL     1     -10.660  13.552  66.979  1.00  0.00    -0.269 A  
HETATM   17  C   UNL     1      -8.530  10.382  68.078  1.00  0.00    -0.119 C  
HETATM   18  C   UNL     1      -9.753  13.990  66.039  1.00  0.00    -0.258 A  
HETATM   19  N   UNL     1      -8.648  13.187  65.998  1.00  0.00     0.648 NA 
HETATM   20  N   UNL     1      -8.041  11.206  67.213  1.00  0.00    -0.131 NA 
HETATM   21  C   UNL     1      -8.860  12.239  66.886  1.00  0.00    -0.207 A  
BRANCH  16  22
HETATM   22  C   UNL     1     -11.931  14.161  67.445  1.00  0.00    -0.439 C  
BRANCH  22  23
HETATM   23  C   UNL     1     -11.883  14.701  68.855  1.00  0.00    -0.344 A  
HETATM   24  C   UNL     1     -11.178  16.420  70.415  1.00  0.00    -0.253 A  
HETATM   25  C   UNL     1     -11.179  15.876  69.128  1.00  0.00    -0.334 A  
HETATM   26  C   UNL     1     -11.836  15.806  71.469  1.00  0.00    -0.446 A  
HETATM   27  N   UNL     1     -11.787  16.371  72.689  1.00  0.00    -0.531 NA 
HETATM   28  C   UNL     1     -12.398  15.731  73.708  1.00  0.00    -0.597 A  
HETATM   29  C   UNL     1     -13.070  14.532  73.571  1.00  0.00    -0.082 A  
HETATM   30  C   UNL     1     -13.140  13.965  72.303  1.00  0.00    -0.512 A  
HETATM   31  C   UNL     1     -12.517  14.598  71.217  1.00  0.00    -0.408 A  
HETATM   32  C   UNL     1     -12.549  14.062  69.912  1.00  0.00    -0.195 A  
ENDBRANCH  22  23
ENDBRANCH  16  22
ENDBRANCH   9  13
ENDBRANCH   3   6
TORSDOF 4
ENDMDL
MODEL       60
REMARK 921   NORMALIZED FREE ENERGY PREDICTED BY IDOCK:   -6.69 KCAL/MOL
REMARK 922        TOTAL FREE ENERGY PREDICTED BY IDOCK:   -8.92 KCAL/MOL
REMARK 923 INTER-LIGAND FREE ENERGY PREDICTED BY IDOCK:   -8.11 KCAL/MOL
REMARK 924 INTRA-LIGAND FREE ENERGY PREDICTED BY IDOCK:   -0.81 KCAL/MOL
REMARK 927      BINDING AFFINITY PREDICTED BY RF-SCORE:    0.00 PKD
ROOT
HETATM    1  C   UNL     1      -8.866   5.084  73.357  1.00  0.00    -0.113 C  
HETATM    2  N   UNL     1      -9.132   6.134  72.406  1.00  0.00    -0.137 N  
HETATM    3  C   UNL     1     -10.398   6.359  71.914  1.00  0.00    -0.202 C  
HETATM    4  H   UNL     1      -8.363   6.725  72.089  1.00  0.00     0.000 HD 
HETATM    5  O   UNL     1     -11.379   5.721  72.284  1.00  0.00    -0.279 OA 
ENDROOT
BRANCH   3   6
HETATM    6  C   UNL     1     -10.551   7.409  70.866  1.00  0.00    -0.234 A  
HETATM    7  C   UNL     1     -10.458   7.040  69.514  1.00  0.00    -0.235 A  
HETATM    8  C   UNL     1     -10.518   8.008  68.501  1.00  0.00    -0.200 A  
HETATM    9  C   UNL     1     -10.661   9.362  68.828  1.00  0.00    -0.234 A  
HETATM   10  C   UNL     1     -10.810   9.727  70.169  1.00  0.00    -0.340 A  
HETATM   11  F   UNL     1     -10.851   9.176  72.441  1.00  0.00    -0.361 F  
HETATM   12  C   UNL     1     -10.745   8.757  71.170  1.00  0.00    -0.248 A  
BRANCH   9  13
HETATM   13  C   UNL     1     -10.581  10.388  67.750  1.00  0.00    -0.250 C  
HETATM   14  N   UNL     1     -10.901  11.633  67.983  1.00  0.00    -0.203 NA 
HETATM   15  N   UNL     1     -10.841  12.416  66.858  1.00  0.00    -0.244 NA 
HETATM   16  C   UNL     1     -11.119  13.761  66.773  1.00  0.00    -0.308 A  
HETATM   17  C   UNL     1     -10.165   9.924  66.361  1.00  0.00    -0.222 C  
HETATM   18  C   UNL     1     -10.993  14.063  65.435  1.00  0.00    -0.321 A  
HETATM   19  N   UNL     1     -10.596  12.975  64.711  1.00  0.00    -0.341 NA 
HETATM   20  N   UNL     1     -10.120  10.704  65.333  1.00  0.00    -0.280 NA 
HETATM   21  C   UNL     1     -10.491  11.988  65.575  1.00  0.00    -0.269 A  
BRANCH  16  22
HETATM   22  C   UNL     1     -11.413  14.639  67.934  1.00  0.00    -0.350 C  
BRANCH  22  23
HETATM   23  C   UNL     1     -10.447  15.787  68.106  1.00  0.00    -0.263 A  
HETATM   24  C   UNL     1      -9.988  18.168  68.016  1.00  0.00    -0.353 A  
HETATM   25  C   UNL     1     -10.851  17.089  67.803  1.00  0.00    -0.269 A  
HETATM   26  C   UNL     1      -8.701  17.990  68.498  1.00  0.00    -0.295 A  
HETATM   27  N   UNL     1      -7.912  19.067  68.671  1.00  0.00    -0.345 NA 
HETATM   28  C   UNL     1      -6.648  18.864  69.099  1.00  0.00    -0.291 A  
HETATM   29  C   UNL     1      -6.120  17.617  69.371  1.00  0.00    -0.242 A  
HETATM   30  C   UNL     1      -6.946  16.509  69.216  1.00  0.00    -0.227 A  
HETATM   31  C   UNL     1      -8.267  16.677  68.772  1.00  0.00    -0.249 A  
HETATM   32  C   UNL     1      -9.145  15.588  68.588  1.00  0.00    -0.202 A  
ENDBRANCH  22  23
ENDBRANCH  16  22
ENDBRANCH   9  13
ENDBRANCH   3   6
TORSDOF 4
ENDMDL
MODEL       61
REMARK 921   NORMALIZED FREE ENERGY PREDICTED BY IDOCK:   -6.69 KCAL/MOL
REMARK 922        TOTAL FREE ENERGY PREDICTED BY IDOCK:   -8.91 KCAL/MOL
REMARK 923 INTER-LIGAND FREE ENERGY PREDICTED BY IDOCK:   -8.52 KCAL/MOL
REMARK 924 INTRA-LIGAND FREE ENERGY PREDICTED BY IDOCK:   -0.40 KCAL/MOL
REMARK 927      BINDING AFFINITY PREDICTED BY RF-SCORE:    0.00 PKD
ROOT
HETATM    1  C   UNL     1      -6.249  20.629  64.795  1.00  0.00    -0.294 C  
HETATM    2  N   UNL     1      -7.117  19.790  65.584  1.00  0.00    -0.302 N  
HETATM    3  C   UNL     1      -7.579  20.189  66.819  1.00  0.00    -0.290 C  
HETATM    4  H   UNL     1      -7.396  18.880  65.219  1.00  0.00     0.000 HD 
HETATM    5  O   UNL     1      -7.326  21.288  67.301  1.00  0.00    -0.484 OA 
ENDROOT
BRANCH   3   6
HETATM    6  C   UNL     1      -8.397  19.211  67.593  1.00  0.00    -0.321 A  
HETATM    7  C   UNL     1      -7.742  18.238  68.367  1.00  0.00    -0.312 A  
HETATM    8  C   UNL     1      -8.472  17.253  69.047  1.00  0.00    -0.080 A  
HETATM    9  C   UNL     1      -9.869  17.220  68.954  1.00  0.00    -0.286 A  
HETATM   10  C   UNL     1     -10.526  18.219  68.231  1.00  0.00    -0.324 A  
HETATM   11  F   UNL     1     -10.479  20.099  66.842  1.00  0.00    -0.536 F  
HETATM   12  C   UNL     1      -9.791  19.194  67.554  1.00  0.00    -0.329 A  
BRANCH   9  13
HETATM   13  C   UNL     1     -10.617  16.086  69.566  1.00  0.00    -0.290 C  
HETATM   14  N   UNL     1     -10.550  14.885  69.059  1.00  0.00    -0.239 NA 
HETATM   15  N   UNL     1     -11.362  13.989  69.705  1.00  0.00    -0.240 NA 
HETATM   16  C   UNL     1     -11.517  12.654  69.411  1.00  0.00    -0.266 A  
HETATM   17  C   UNL     1     -11.500  16.389  70.769  1.00  0.00    -0.169 C  
HETATM   18  C   UNL     1     -12.488  12.211  70.282  1.00  0.00    -0.087 A  
HETATM   19  N   UNL     1     -12.890  13.204  71.130  1.00  0.00    -0.306 NA 
HETATM   20  N   UNL     1     -12.245  15.507  71.346  1.00  0.00    -0.355 NA 
HETATM   21  C   UNL     1     -12.198  14.270  70.789  1.00  0.00    -0.353 A  
BRANCH  16  22
HETATM   22  C   UNL     1     -10.717  11.911  68.404  1.00  0.00    -0.248 C  
BRANCH  22  23
HETATM   23  C   UNL     1     -10.527  10.446  68.717  1.00  0.00    -0.219 A  
HETATM   24  C   UNL     1      -9.971   8.700  70.307  1.00  0.00    -0.204 A  
HETATM   25  C   UNL     1     -10.092  10.055  69.985  1.00  0.00    -0.289 A  
HETATM   26  C   UNL     1     -10.240   7.702  69.384  1.00  0.00    -0.206 A  
HETATM   27  N   UNL     1     -10.093   6.415  69.750  1.00  0.00    -0.171 NA 
HETATM   28  C   UNL     1     -10.318   5.463  68.820  1.00  0.00    -0.170 A  
HETATM   29  C   UNL     1     -10.692   5.733  67.517  1.00  0.00    -0.320 A  
HETATM   30  C   UNL     1     -10.868   7.063  67.151  1.00  0.00    -0.427 A  
HETATM   31  C   UNL     1     -10.643   8.084  68.088  1.00  0.00    -0.174 A  
HETATM   32  C   UNL     1     -10.797   9.449  67.768  1.00  0.00    -0.223 A  
ENDBRANCH  22  23
ENDBRANCH  16  22
ENDBRANCH   9  13
ENDBRANCH   3   6
TORSDOF 4
ENDMDL
MODEL       62
REMARK 921   NORMALIZED FREE ENERGY PREDICTED BY IDOCK:   -6.68 KCAL/MOL
REMARK 922        TOTAL FREE ENERGY PREDICTED BY IDOCK:   -8.91 KCAL/MOL
REMARK 923 INTER-LIGAND FREE ENERGY PREDICTED BY IDOCK:   -8.08 KCAL/MOL
REMARK 924 INTRA-LIGAND FREE ENERGY PREDICTED BY IDOCK:   -0.82 KCAL/MOL
REMARK 927      BINDING AFFINITY PREDICTED BY RF-SCORE:    0.00 PKD
ROOT
HETATM    1  C   UNL     1     -10.846   5.768  66.715  1.00  0.00    -0.248 C  
HETATM    2  N   UNL     1     -10.387   7.134  66.770  1.00  0.00    -0.423 N  
HETATM    3  C   UNL     1      -9.227   7.531  66.142  1.00  0.00    -0.105 C  
HETATM    4  H   UNL     1     -10.934   7.822  67.287  1.00  0.00     0.000 HD 
HETATM    5  O   UNL     1      -8.544   6.771  65.463  1.00  0.00    -0.147 OA 
ENDROOT
BRANCH   3   6
HETATM    6  C   UNL     1      -8.793   8.944  66.335  1.00  0.00    -0.178 A  
HETATM    7  C   UNL     1      -7.821   9.230  67.309  1.00  0.00    -0.099 A  
HETATM    8  C   UNL     1      -7.442  10.553  67.576  1.00  0.00    -0.093 A  
HETATM    9  C   UNL     1      -8.038  11.612  66.879  1.00  0.00    -0.164 A  
HETATM   10  C   UNL     1      -8.963  11.328  65.871  1.00  0.00    -0.206 A  
HETATM   11  F   UNL     1     -10.263   9.804  64.665  1.00  0.00    -0.304 F  
HETATM   12  C   UNL     1      -9.338  10.008  65.615  1.00  0.00    -0.204 A  
BRANCH   9  13
HETATM   13  C   UNL     1      -7.727  13.015  67.272  1.00  0.00    -0.105 C  
HETATM   14  N   UNL     1      -8.658  13.930  67.289  1.00  0.00    -0.203 NA 
HETATM   15  N   UNL     1      -8.174  15.175  67.599  1.00  0.00    -0.153 NA 
HETATM   16  C   UNL     1      -8.897  16.342  67.695  1.00  0.00    -0.188 A  
HETATM   17  C   UNL     1      -6.280  13.352  67.603  1.00  0.00    -0.138 C  
HETATM   18  C   UNL     1      -7.959  17.319  67.950  1.00  0.00    -0.205 A  
HETATM   19  N   UNL     1      -6.706  16.790  68.069  1.00  0.00    -0.140 NA 
HETATM   20  N   UNL     1      -5.874  14.543  67.895  1.00  0.00    -0.212 NA 
HETATM   21  C   UNL     1      -6.842  15.496  67.872  1.00  0.00    -0.148 A  
BRANCH  16  22
HETATM   22  C   UNL     1     -10.377  16.430  67.602  1.00  0.00    -0.284 C  
BRANCH  22  23
HETATM   23  C   UNL     1     -11.113  15.759  68.737  1.00  0.00    -0.321 A  
HETATM   24  C   UNL     1     -12.357  13.859  69.592  1.00  0.00    -0.301 A  
HETATM   25  C   UNL     1     -11.725  14.520  68.534  1.00  0.00    -0.353 A  
HETATM   26  C   UNL     1     -12.433  14.414  70.860  1.00  0.00    -0.354 A  
HETATM   27  N   UNL     1     -13.065  13.735  71.834  1.00  0.00    -0.370 NA 
HETATM   28  C   UNL     1     -13.165  14.316  73.048  1.00  0.00    -0.397 A  
HETATM   29  C   UNL     1     -12.654  15.564  73.348  1.00  0.00    -0.646 A  
HETATM   30  C   UNL     1     -11.978  16.251  72.345  1.00  0.00    -0.630 A  
HETATM   31  C   UNL     1     -11.854  15.682  71.068  1.00  0.00    -0.442 A  
HETATM   32  C   UNL     1     -11.187  16.339  70.012  1.00  0.00    -0.324 A  
ENDBRANCH  22  23
ENDBRANCH  16  22
ENDBRANCH   9  13
ENDBRANCH   3   6
TORSDOF 4
ENDMDL
MODEL       63
REMARK 921   NORMALIZED FREE ENERGY PREDICTED BY IDOCK:   -6.67 KCAL/MOL
REMARK 922        TOTAL FREE ENERGY PREDICTED BY IDOCK:   -8.89 KCAL/MOL
REMARK 923 INTER-LIGAND FREE ENERGY PREDICTED BY IDOCK:   -8.19 KCAL/MOL
REMARK 924 INTRA-LIGAND FREE ENERGY PREDICTED BY IDOCK:   -0.70 KCAL/MOL
REMARK 927      BINDING AFFINITY PREDICTED BY RF-SCORE:    0.00 PKD
ROOT
HETATM    1  C   UNL     1      -9.547   6.969  74.314  1.00  0.00    -0.229 C  
HETATM    2  N   UNL     1      -9.842   7.949  73.299  1.00  0.00    -0.301 N  
HETATM    3  C   UNL     1     -11.076   8.009  72.690  1.00  0.00    -0.387 C  
HETATM    4  H   UNL     1      -9.119   8.615  73.024  1.00  0.00     0.000 HD 
HETATM    5  O   UNL     1     -12.008   7.275  73.002  1.00  0.00     0.066 OA 
ENDROOT
BRANCH   3   6
HETATM    6  C   UNL     1     -11.250   9.000  71.589  1.00  0.00    -0.431 A  
HETATM    7  C   UNL     1     -10.309   9.031  70.547  1.00  0.00    -0.266 A  
HETATM    8  C   UNL     1     -10.392   9.997  69.534  1.00  0.00    -0.256 A  
HETATM    9  C   UNL     1     -11.414  10.955  69.556  1.00  0.00    -0.372 A  
HETATM   10  C   UNL     1     -12.385  10.892  70.560  1.00  0.00    -0.463 A  
HETATM   11  F   UNL     1     -13.229   9.948  72.526  1.00  0.00    -0.469 F  
HETATM   12  C   UNL     1     -12.291   9.929  71.566  1.00  0.00    -0.412 A  
BRANCH   9  13
HETATM   13  C   UNL     1     -11.407  12.057  68.554  1.00  0.00    -0.272 C  
HETATM   14  N   UNL     1     -10.914  11.876  67.359  1.00  0.00    -0.248 NA 
HETATM   15  N   UNL     1     -10.921  13.018  66.601  1.00  0.00    -0.275 NA 
HETATM   16  C   UNL     1     -10.470  13.155  65.308  1.00  0.00    -0.307 A  
HETATM   17  C   UNL     1     -11.947  13.412  68.989  1.00  0.00    -0.315 C  
HETATM   18  C   UNL     1     -10.618  14.495  65.023  1.00  0.00    -0.437 A  
HETATM   19  N   UNL     1     -11.191  15.168  66.064  1.00  0.00    -0.316 NA 
HETATM   20  N   UNL     1     -11.936  14.460  68.235  1.00  0.00    -0.318 NA 
HETATM   21  C   UNL     1     -11.386  14.272  67.008  1.00  0.00    -0.341 A  
BRANCH  16  22
HETATM   22  C   UNL     1     -10.007  12.035  64.451  1.00  0.00    -0.254 C  
BRANCH  22  23
HETATM   23  C   UNL     1      -9.335  10.911  65.204  1.00  0.00    -0.252 A  
HETATM   24  C   UNL     1      -7.392  10.036  66.362  1.00  0.00    -0.104 A  
HETATM   25  C   UNL     1      -8.006  11.042  65.611  1.00  0.00     0.034 A  
HETATM   26  C   UNL     1      -8.054   8.866  66.699  1.00  0.00    -0.107 A  
HETATM   27  N   UNL     1      -7.405   7.928  67.413  1.00  0.00    -0.090 NA 
HETATM   28  C   UNL     1      -8.058   6.779  67.690  1.00  0.00    -0.116 A  
HETATM   29  C   UNL     1      -9.351   6.513  67.286  1.00  0.00    -0.129 A  
HETATM   30  C   UNL     1     -10.027   7.496  66.571  1.00  0.00    -0.209 A  
HETATM   31  C   UNL     1      -9.385   8.704  66.260  1.00  0.00    -0.282 A  
HETATM   32  C   UNL     1     -10.020   9.730  65.530  1.00  0.00    -0.329 A  
ENDBRANCH  22  23
ENDBRANCH  16  22
ENDBRANCH   9  13
ENDBRANCH   3   6
TORSDOF 4
ENDMDL
MODEL       64
REMARK 921   NORMALIZED FREE ENERGY PREDICTED BY IDOCK:   -6.65 KCAL/MOL
REMARK 922        TOTAL FREE ENERGY PREDICTED BY IDOCK:   -8.87 KCAL/MOL
REMARK 923 INTER-LIGAND FREE ENERGY PREDICTED BY IDOCK:   -8.35 KCAL/MOL
REMARK 924 INTRA-LIGAND FREE ENERGY PREDICTED BY IDOCK:   -0.51 KCAL/MOL
REMARK 927      BINDING AFFINITY PREDICTED BY RF-SCORE:    0.00 PKD
ROOT
HETATM    1  C   UNL     1      -7.884   7.106  62.441  1.00  0.00    -0.125 C  
HETATM    2  N   UNL     1      -8.646   7.803  63.447  1.00  0.00    -0.329 N  
HETATM    3  C   UNL     1      -8.211   8.993  63.986  1.00  0.00    -0.167 C  
HETATM    4  H   UNL     1      -9.528   7.404  63.768  1.00  0.00     0.000 HD 
HETATM    5  O   UNL     1      -7.186   9.556  63.616  1.00  0.00    -0.100 OA 
ENDROOT
BRANCH   3   6
HETATM    6  C   UNL     1      -9.026   9.587  65.085  1.00  0.00    -0.253 A  
HETATM    7  C   UNL     1      -9.246  10.974  65.096  1.00  0.00    -0.227 A  
HETATM    8  C   UNL     1      -9.941  11.581  66.152  1.00  0.00    -0.257 A  
HETATM    9  C   UNL     1     -10.416  10.809  67.219  1.00  0.00    -0.282 A  
HETATM   10  C   UNL     1     -10.248   9.422  67.184  1.00  0.00    -0.319 A  
HETATM   11  F   UNL     1      -9.387   7.496  66.176  1.00  0.00    -0.204 F  
HETATM   12  C   UNL     1      -9.552   8.827  66.131  1.00  0.00    -0.253 A  
BRANCH   9  13
HETATM   13  C   UNL     1     -11.027  11.486  68.398  1.00  0.00    -0.221 C  
HETATM   14  N   UNL     1     -11.647  10.800  69.319  1.00  0.00    -0.290 NA 
HETATM   15  N   UNL     1     -12.210  11.594  70.285  1.00  0.00    -0.332 NA 
HETATM   16  C   UNL     1     -12.928  11.177  71.382  1.00  0.00    -0.403 A  
HETATM   17  C   UNL     1     -10.944  13.004  68.463  1.00  0.00    -0.263 C  
HETATM   18  C   UNL     1     -13.341  12.340  71.996  1.00  0.00    -0.386 A  
HETATM   19  N   UNL     1     -12.858  13.444  71.353  1.00  0.00    -0.355 NA 
HETATM   20  N   UNL     1     -11.489  13.709  69.398  1.00  0.00    -0.283 NA 
HETATM   21  C   UNL     1     -12.165  12.990  70.331  1.00  0.00    -0.310 A  
BRANCH  16  22
HETATM   22  C   UNL     1     -13.110   9.760  71.785  1.00  0.00    -0.528 C  
BRANCH  22  23
HETATM   23  C   UNL     1     -11.919   8.875  71.505  1.00  0.00    -0.401 A  
HETATM   24  C   UNL     1      -9.581   8.338  71.865  1.00  0.00    -0.288 A  
HETATM   25  C   UNL     1     -10.676   9.182  72.065  1.00  0.00    -0.225 A  
HETATM   26  C   UNL     1      -9.669   7.196  71.085  1.00  0.00    -0.168 A  
HETATM   27  N   UNL     1      -8.576   6.429  70.919  1.00  0.00    -0.134 NA 
HETATM   28  C   UNL     1      -8.677   5.347  70.119  1.00  0.00    -0.126 A  
HETATM   29  C   UNL     1      -9.836   4.981  69.463  1.00  0.00    -0.281 A  
HETATM   30  C   UNL     1     -10.971   5.761  69.659  1.00  0.00    -0.385 A  
HETATM   31  C   UNL     1     -10.908   6.895  70.482  1.00  0.00    -0.289 A  
HETATM   32  C   UNL     1     -12.026   7.727  70.707  1.00  0.00    -0.168 A  
ENDBRANCH  22  23
ENDBRANCH  16  22
ENDBRANCH   9  13
ENDBRANCH   3   6
TORSDOF 4
ENDMDL
MODEL       65
REMARK 921   NORMALIZED FREE ENERGY PREDICTED BY IDOCK:   -6.65 KCAL/MOL
REMARK 922        TOTAL FREE ENERGY PREDICTED BY IDOCK:   -8.86 KCAL/MOL
REMARK 923 INTER-LIGAND FREE ENERGY PREDICTED BY IDOCK:   -8.11 KCAL/MOL
REMARK 924 INTRA-LIGAND FREE ENERGY PREDICTED BY IDOCK:   -0.74 KCAL/MOL
REMARK 927      BINDING AFFINITY PREDICTED BY RF-SCORE:    0.00 PKD
ROOT
HETATM    1  C   UNL     1      -8.324   4.438  68.693  1.00  0.00    -0.084 C  
HETATM    2  N   UNL     1      -8.854   5.570  67.976  1.00  0.00    -0.106 N  
HETATM    3  C   UNL     1      -8.436   6.854  68.245  1.00  0.00    -0.125 C  
HETATM    4  H   UNL     1      -9.556   5.417  67.252  1.00  0.00     0.000 HD 
HETATM    5  O   UNL     1      -7.562   7.112  69.067  1.00  0.00    -0.096 OA 
ENDROOT
BRANCH   3   6
HETATM    6  C   UNL     1      -9.111   7.963  67.511  1.00  0.00    -0.141 A  
HETATM    7  C   UNL     1      -8.604   8.362  66.263  1.00  0.00    -0.149 A  
HETATM    8  C   UNL     1      -9.161   9.450  65.577  1.00  0.00    -0.270 A  
HETATM    9  C   UNL     1     -10.229  10.163  66.135  1.00  0.00    -0.285 A  
HETATM   10  C   UNL     1     -10.773   9.735  67.349  1.00  0.00    -0.314 A  
HETATM   11  F   UNL     1     -10.749   8.317  69.209  1.00  0.00    -0.224 F  
HETATM   12  C   UNL     1     -10.209   8.653  68.027  1.00  0.00    -0.210 A  
BRANCH   9  13
HETATM   13  C   UNL     1     -10.716  11.400  65.462  1.00  0.00    -0.253 C  
HETATM   14  N   UNL     1     -10.799  12.530  66.110  1.00  0.00    -0.266 NA 
HETATM   15  N   UNL     1     -11.340  13.539  65.354  1.00  0.00    -0.287 NA 
HETATM   16  C   UNL     1     -11.561  14.839  65.747  1.00  0.00    -0.290 A  
HETATM   17  C   UNL     1     -11.160  11.286  64.010  1.00  0.00    -0.240 C  
HETATM   18  C   UNL     1     -12.184  15.432  64.672  1.00  0.00    -0.054 A  
HETATM   19  N   UNL     1     -12.301  14.566  63.621  1.00  0.00    -0.661 NA 
HETATM   20  N   UNL     1     -11.659  12.269  63.338  1.00  0.00    -0.458 NA 
HETATM   21  C   UNL     1     -11.778  13.431  64.031  1.00  0.00    -0.416 A  
BRANCH  16  22
HETATM   22  C   UNL     1     -11.123  15.415  67.044  1.00  0.00    -0.273 C  
BRANCH  22  23
HETATM   23  C   UNL     1     -10.302  16.677  66.920  1.00  0.00    -0.299 A  
HETATM   24  C   UNL     1     -10.088  19.073  67.229  1.00  0.00    -0.436 A  
HETATM   25  C   UNL     1     -10.856  17.907  67.281  1.00  0.00    -0.188 A  
HETATM   26  C   UNL     1      -8.773  19.065  66.790  1.00  0.00    -0.309 A  
HETATM   27  N   UNL     1      -8.088  20.222  66.751  1.00  0.00    -0.294 NA 
HETATM   28  C   UNL     1      -6.825  20.194  66.277  1.00  0.00    -0.239 A  
HETATM   29  C   UNL     1      -6.195  19.048  65.833  1.00  0.00    -0.233 A  
HETATM   30  C   UNL     1      -6.897  17.849  65.900  1.00  0.00    -0.315 A  
HETATM   31  C   UNL     1      -8.214  17.835  66.385  1.00  0.00    -0.290 A  
HETATM   32  C   UNL     1      -8.975  16.650  66.466  1.00  0.00    -0.310 A  
ENDBRANCH  22  23
ENDBRANCH  16  22
ENDBRANCH   9  13
ENDBRANCH   3   6
TORSDOF 4
ENDMDL
MODEL       66
REMARK 921   NORMALIZED FREE ENERGY PREDICTED BY IDOCK:   -6.63 KCAL/MOL
REMARK 922        TOTAL FREE ENERGY PREDICTED BY IDOCK:   -8.84 KCAL/MOL
REMARK 923 INTER-LIGAND FREE ENERGY PREDICTED BY IDOCK:   -7.96 KCAL/MOL
REMARK 924 INTRA-LIGAND FREE ENERGY PREDICTED BY IDOCK:   -0.89 KCAL/MOL
REMARK 927      BINDING AFFINITY PREDICTED BY RF-SCORE:    0.00 PKD
ROOT
HETATM    1  C   UNL     1     -10.560   5.238  73.089  1.00  0.00    -0.234 C  
HETATM    2  N   UNL     1     -10.489   5.893  71.806  1.00  0.00    -0.219 N  
HETATM    3  C   UNL     1      -9.771   5.355  70.761  1.00  0.00    -0.180 C  
HETATM    4  H   UNL     1     -10.982   6.775  71.669  1.00  0.00     0.000 HD 
HETATM    5  O   UNL     1      -9.193   4.275  70.835  1.00  0.00    -0.118 OA 
ENDROOT
BRANCH   3   6
HETATM    6  C   UNL     1      -9.687   6.154  69.504  1.00  0.00    -0.175 A  
HETATM    7  C   UNL     1      -8.422   6.520  69.014  1.00  0.00    -0.125 A  
HETATM    8  C   UNL     1      -8.301   7.336  67.881  1.00  0.00    -0.119 A  
HETATM    9  C   UNL     1      -9.446   7.808  67.227  1.00  0.00    -0.187 A  
HETATM   10  C   UNL     1     -10.704   7.401  67.677  1.00  0.00    -0.278 A  
HETATM   11  F   UNL     1     -12.052   6.270  69.218  1.00  0.00    -0.222 F  
HETATM   12  C   UNL     1     -10.815   6.591  68.809  1.00  0.00    -0.299 A  
BRANCH   9  13
HETATM   13  C   UNL     1      -9.301   8.786  66.112  1.00  0.00    -0.234 C  
HETATM   14  N   UNL     1     -10.224   9.680  65.879  1.00  0.00    -0.221 NA 
HETATM   15  N   UNL     1      -9.959  10.442  64.770  1.00  0.00    -0.334 NA 
HETATM   16  C   UNL     1     -10.733  11.460  64.262  1.00  0.00    -0.356 A  
HETATM   17  C   UNL     1      -8.069   8.672  65.226  1.00  0.00    -0.136 C  
HETATM   18  C   UNL     1     -10.087  11.853  63.111  1.00  0.00    -0.306 A  
HETATM   19  N   UNL     1      -8.926  11.159  62.925  1.00  0.00    -0.274 NA 
HETATM   20  N   UNL     1      -7.862   9.418  64.193  1.00  0.00    -0.118 NA 
HETATM   21  C   UNL     1      -8.844  10.319  63.935  1.00  0.00    -0.220 A  
BRANCH  16  22
HETATM   22  C   UNL     1     -11.949  12.004  64.917  1.00  0.00    -0.286 C  
BRANCH  22  23
HETATM   23  C   UNL     1     -11.670  12.973  66.042  1.00  0.00    -0.442 A  
HETATM   24  C   UNL     1     -10.911  15.153  66.786  1.00  0.00    -0.322 A  
HETATM   25  C   UNL     1     -11.116  14.224  65.763  1.00  0.00    -0.310 A  
HETATM   26  C   UNL     1     -11.211  14.865  68.108  1.00  0.00    -0.299 A  
HETATM   27  N   UNL     1     -10.979  15.796  69.051  1.00  0.00    -0.243 NA 
HETATM   28  C   UNL     1     -11.237  15.474  70.336  1.00  0.00    -0.337 A  
HETATM   29  C   UNL     1     -11.727  14.246  70.738  1.00  0.00    -0.270 A  
HETATM   30  C   UNL     1     -11.990  13.296  69.757  1.00  0.00    -0.391 A  
HETATM   31  C   UNL     1     -11.734  13.590  68.409  1.00  0.00    -0.393 A  
HETATM   32  C   UNL     1     -11.974  12.660  67.375  1.00  0.00    -0.309 A  
ENDBRANCH  22  23
ENDBRANCH  16  22
ENDBRANCH   9  13
ENDBRANCH   3   6
TORSDOF 4
ENDMDL
MODEL       67
REMARK 921   NORMALIZED FREE ENERGY PREDICTED BY IDOCK:   -6.63 KCAL/MOL
REMARK 922        TOTAL FREE ENERGY PREDICTED BY IDOCK:   -8.83 KCAL/MOL
REMARK 923 INTER-LIGAND FREE ENERGY PREDICTED BY IDOCK:   -8.17 KCAL/MOL
REMARK 924 INTRA-LIGAND FREE ENERGY PREDICTED BY IDOCK:   -0.67 KCAL/MOL
REMARK 927      BINDING AFFINITY PREDICTED BY RF-SCORE:    0.00 PKD
ROOT
HETATM    1  C   UNL     1     -10.028   4.243  69.890  1.00  0.00    -0.109 C  
HETATM    2  N   UNL     1      -9.555   5.565  69.564  1.00  0.00    -0.142 N  
HETATM    3  C   UNL     1     -10.414   6.638  69.478  1.00  0.00    -0.218 C  
HETATM    4  H   UNL     1      -8.560   5.710  69.393  1.00  0.00     0.000 HD 
HETATM    5  O   UNL     1     -11.614   6.552  69.717  1.00  0.00    -0.394 OA 
ENDROOT
BRANCH   3   6
HETATM    6  C   UNL     1      -9.838   7.945  69.046  1.00  0.00    -0.171 A  
HETATM    7  C   UNL     1      -8.940   8.608  69.900  1.00  0.00    -0.149 A  
HETATM    8  C   UNL     1      -8.437   9.873  69.566  1.00  0.00    -0.184 A  
HETATM    9  C   UNL     1      -8.833  10.499  68.378  1.00  0.00    -0.140 A  
HETATM   10  C   UNL     1      -9.681   9.818  67.500  1.00  0.00    -0.192 A  
HETATM   11  F   UNL     1     -11.025   7.977  66.978  1.00  0.00    -0.391 F  
HETATM   12  C   UNL     1     -10.181   8.561  67.842  1.00  0.00    -0.218 A  
BRANCH   9  13
HETATM   13  C   UNL     1      -8.400  11.899  68.107  1.00  0.00    -0.161 C  
HETATM   14  N   UNL     1      -9.275  12.838  67.868  1.00  0.00    -0.197 NA 
HETATM   15  N   UNL     1      -8.693  14.043  67.565  1.00  0.00    -0.186 NA 
HETATM   16  C   UNL     1      -9.339  15.220  67.264  1.00  0.00    -0.205 A  
HETATM   17  C   UNL     1      -6.905  12.182  68.070  1.00  0.00    -0.081 C  
HETATM   18  C   UNL     1      -8.331  16.108  66.962  1.00  0.00    -0.215 A  
HETATM   19  N   UNL     1      -7.099  15.540  67.121  1.00  0.00    -0.201 NA 
HETATM   20  N   UNL     1      -6.406  13.338  67.784  1.00  0.00    -0.147 NA 
HETATM   21  C   UNL     1      -7.321  14.299  67.499  1.00  0.00    -0.179 A  
BRANCH  16  22
HETATM   22  C   UNL     1     -10.808  15.422  67.344  1.00  0.00    -0.309 C  
BRANCH  22  23
HETATM   23  C   UNL     1     -11.410  15.101  68.691  1.00  0.00    -0.322 A  
HETATM   24  C   UNL     1     -12.645  13.581  70.122  1.00  0.00    -0.178 A  
HETATM   25  C   UNL     1     -12.136  13.921  68.866  1.00  0.00    -0.355 A  
HETATM   26  C   UNL     1     -12.484  14.406  71.225  1.00  0.00    -0.352 A  
HETATM   27  N   UNL     1     -13.009  14.030  72.406  1.00  0.00    -0.386 NA 
HETATM   28  C   UNL     1     -12.877  14.872  73.453  1.00  0.00    -0.515 A  
HETATM   29  C   UNL     1     -12.234  16.092  73.383  1.00  0.00    -0.635 A  
HETATM   30  C   UNL     1     -11.671  16.465  72.167  1.00  0.00    -0.453 A  
HETATM   31  C   UNL     1     -11.787  15.619  71.053  1.00  0.00    -0.442 A  
HETATM   32  C   UNL     1     -11.243  15.951  69.794  1.00  0.00    -0.339 A  
ENDBRANCH  22  23
ENDBRANCH  16  22
ENDBRANCH   9  13
ENDBRANCH   3   6
TORSDOF 4
ENDMDL
MODEL       68
REMARK 921   NORMALIZED FREE ENERGY PREDICTED BY IDOCK:   -6.62 KCAL/MOL
REMARK 922        TOTAL FREE ENERGY PREDICTED BY IDOCK:   -8.83 KCAL/MOL
REMARK 923 INTER-LIGAND FREE ENERGY PREDICTED BY IDOCK:   -7.90 KCAL/MOL
REMARK 924 INTRA-LIGAND FREE ENERGY PREDICTED BY IDOCK:   -0.93 KCAL/MOL
REMARK 927      BINDING AFFINITY PREDICTED BY RF-SCORE:    0.00 PKD
ROOT
HETATM    1  C   UNL     1     -11.898  15.898  71.892  1.00  0.00    -0.506 C  
HETATM    2  N   UNL     1     -11.450  14.880  70.975  1.00  0.00    -0.447 N  
HETATM    3  C   UNL     1     -11.703  14.965  69.624  1.00  0.00    -0.320 C  
HETATM    4  H   UNL     1     -10.934  14.077  71.335  1.00  0.00     0.000 HD 
HETATM    5  O   UNL     1     -12.274  15.922  69.112  1.00  0.00    -0.264 OA 
ENDROOT
BRANCH   3   6
HETATM    6  C   UNL     1     -11.276  13.816  68.773  1.00  0.00    -0.303 A  
HETATM    7  C   UNL     1     -11.786  12.537  69.052  1.00  0.00    -0.368 A  
HETATM    8  C   UNL     1     -11.351  11.418  68.327  1.00  0.00    -0.354 A  
HETATM    9  C   UNL     1     -10.390  11.562  67.318  1.00  0.00    -0.236 A  
HETATM   10  C   UNL     1      -9.924  12.841  66.999  1.00  0.00    -0.231 A  
HETATM   11  F   UNL     1      -9.842  15.142  67.404  1.00  0.00    -0.219 F  
HETATM   12  C   UNL     1     -10.359  13.948  67.729  1.00  0.00    -0.240 A  
BRANCH   9  13
HETATM   13  C   UNL     1      -9.837  10.348  66.654  1.00  0.00    -0.202 C  
HETATM   14  N   UNL     1     -10.297   9.159  66.938  1.00  0.00    -0.260 NA 
HETATM   15  N   UNL     1      -9.618   8.159  66.291  1.00  0.00    -0.207 NA 
HETATM   16  C   UNL     1      -9.858   6.807  66.380  1.00  0.00    -0.031 A  
HETATM   17  C   UNL     1      -8.687  10.539  65.676  1.00  0.00    -0.180 C  
HETATM   18  C   UNL     1      -8.872   6.222  65.615  1.00  0.00    -0.074 A  
HETATM   19  N   UNL     1      -8.079   7.161  65.019  1.00  0.00    -0.128 NA 
HETATM   20  N   UNL     1      -8.082   9.562  65.087  1.00  0.00    -0.121 NA 
HETATM   21  C   UNL     1      -8.541   8.327  65.417  1.00  0.00    -0.151 A  
BRANCH  16  22
HETATM   22  C   UNL     1     -10.999   6.196  67.108  1.00  0.00    -0.420 C  
BRANCH  22  23
HETATM   23  C   UNL     1     -10.797   6.081  68.601  1.00  0.00    -0.379 A  
HETATM   24  C   UNL     1      -9.951   4.845  70.508  1.00  0.00    -0.311 A  
HETATM   25  C   UNL     1     -10.201   4.938  69.137  1.00  0.00    -0.186 A  
HETATM   26  C   UNL     1     -10.311   5.854  71.388  1.00  0.00    -0.218 A  
HETATM   27  N   UNL     1     -10.057   5.701  72.700  1.00  0.00    -0.177 NA 
HETATM   28  C   UNL     1     -10.458   6.678  73.541  1.00  0.00    -0.313 A  
HETATM   29  C   UNL     1     -11.111   7.824  73.132  1.00  0.00    -0.336 A  
HETATM   30  C   UNL     1     -11.349   7.990  71.772  1.00  0.00    -0.318 A  
HETATM   31  C   UNL     1     -10.950   6.997  70.864  1.00  0.00    -0.282 A  
HETATM   32  C   UNL     1     -11.175   7.110  69.476  1.00  0.00    -0.121 A  
ENDBRANCH  22  23
ENDBRANCH  16  22
ENDBRANCH   9  13
ENDBRANCH   3   6
TORSDOF 4
ENDMDL
MODEL       69
REMARK 921   NORMALIZED FREE ENERGY PREDICTED BY IDOCK:   -6.62 KCAL/MOL
REMARK 922        TOTAL FREE ENERGY PREDICTED BY IDOCK:   -8.82 KCAL/MOL
REMARK 923 INTER-LIGAND FREE ENERGY PREDICTED BY IDOCK:   -8.23 KCAL/MOL
REMARK 924 INTRA-LIGAND FREE ENERGY PREDICTED BY IDOCK:   -0.60 KCAL/MOL
REMARK 927      BINDING AFFINITY PREDICTED BY RF-SCORE:    0.00 PKD
ROOT
HETATM    1  C   UNL     1     -13.525  15.856  72.670  1.00  0.00    -0.473 C  
HETATM    2  N   UNL     1     -12.907  14.866  71.824  1.00  0.00    -0.312 N  
HETATM    3  C   UNL     1     -13.295  13.545  71.858  1.00  0.00    -0.443 C  
HETATM    4  H   UNL     1     -12.165  15.150  71.185  1.00  0.00     0.000 HD 
HETATM    5  O   UNL     1     -14.211  13.138  72.565  1.00  0.00    -0.654 OA 
ENDROOT
BRANCH   3   6
HETATM    6  C   UNL     1     -12.531  12.584  71.010  1.00  0.00    -0.353 A  
HETATM    7  C   UNL     1     -11.804  13.075  69.913  1.00  0.00    -0.377 A  
HETATM    8  C   UNL     1     -11.138  12.198  69.045  1.00  0.00    -0.290 A  
HETATM    9  C   UNL     1     -11.198  10.815  69.257  1.00  0.00    -0.333 A  
HETATM   10  C   UNL     1     -11.873  10.327  70.380  1.00  0.00    -0.396 A  
HETATM   11  F   UNL     1     -13.203  10.674  72.271  1.00  0.00    -0.549 F  
HETATM   12  C   UNL     1     -12.537  11.207  71.236  1.00  0.00    -0.398 A  
BRANCH   9  13
HETATM   13  C   UNL     1     -10.603   9.892  68.249  1.00  0.00    -0.229 C  
HETATM   14  N   UNL     1     -10.583   8.602  68.449  1.00  0.00    -0.166 NA 
HETATM   15  N   UNL     1      -9.930   7.920  67.455  1.00  0.00    -0.179 NA 
HETATM   16  C   UNL     1      -9.736   6.560  67.375  1.00  0.00    -0.126 A  
HETATM   17  C   UNL     1      -9.977  10.511  67.007  1.00  0.00    -0.201 C  
HETATM   18  C   UNL     1      -8.967   6.379  66.247  1.00  0.00    -0.156 A  
HETATM   19  N   UNL     1      -8.731   7.562  65.606  1.00  0.00    -0.120 NA 
HETATM   20  N   UNL     1      -9.376   9.823  66.095  1.00  0.00    -0.177 NA 
HETATM   21  C   UNL     1      -9.325   8.487  66.329  1.00  0.00    -0.224 A  
BRANCH  16  22
HETATM   22  C   UNL     1     -10.327   5.566  68.307  1.00  0.00    -0.237 C  
BRANCH  22  23
HETATM   23  C   UNL     1     -10.090   5.865  69.769  1.00  0.00    -0.258 A  
HETATM   24  C   UNL     1     -10.967   6.186  72.007  1.00  0.00    -0.305 A  
HETATM   25  C   UNL     1     -11.174   5.972  70.642  1.00  0.00    -0.347 A  
HETATM   26  C   UNL     1      -9.696   6.336  72.540  1.00  0.00    -0.156 A  
HETATM   27  N   UNL     1      -9.560   6.554  73.861  1.00  0.00    -0.181 NA 
HETATM   28  C   UNL     1      -8.315   6.741  74.347  1.00  0.00    -0.143 A  
HETATM   29  C   UNL     1      -7.174   6.720  73.568  1.00  0.00    -0.079 A  
HETATM   30  C   UNL     1      -7.316   6.469  72.208  1.00  0.00    -0.090 A  
HETATM   31  C   UNL     1      -8.594   6.270  71.662  1.00  0.00    -0.133 A  
HETATM   32  C   UNL     1      -8.797   6.022  70.288  1.00  0.00    -0.144 A  
ENDBRANCH  22  23
ENDBRANCH  16  22
ENDBRANCH   9  13
ENDBRANCH   3   6
TORSDOF 4
ENDMDL
MODEL       70
REMARK 921   NORMALIZED FREE ENERGY PREDICTED BY IDOCK:   -6.60 KCAL/MOL
REMARK 922        TOTAL FREE ENERGY PREDICTED BY IDOCK:   -8.80 KCAL/MOL
REMARK 923 INTER-LIGAND FREE ENERGY PREDICTED BY IDOCK:   -8.15 KCAL/MOL
REMARK 924 INTRA-LIGAND FREE ENERGY PREDICTED BY IDOCK:   -0.66 KCAL/MOL
REMARK 927      BINDING AFFINITY PREDICTED BY RF-SCORE:    0.00 PKD
ROOT
HETATM    1  C   UNL     1      -6.541  20.459  69.267  1.00  0.00    -0.139 C  
HETATM    2  N   UNL     1      -7.251  19.449  68.522  1.00  0.00    -0.307 N  
HETATM    3  C   UNL     1      -8.619  19.312  68.616  1.00  0.00    -0.366 C  
HETATM    4  H   UNL     1      -6.729  18.821  67.912  1.00  0.00     0.000 HD 
HETATM    5  O   UNL     1      -9.318  20.061  69.290  1.00  0.00    -0.050 OA 
ENDROOT
BRANCH   3   6
HETATM    6  C   UNL     1      -9.246  18.179  67.876  1.00  0.00    -0.273 A  
HETATM    7  C   UNL     1      -9.164  16.885  68.417  1.00  0.00    -0.253 A  
HETATM    8  C   UNL     1      -9.672  15.782  67.717  1.00  0.00    -0.216 A  
HETATM    9  C   UNL     1     -10.260  15.956  66.458  1.00  0.00    -0.297 A  
HETATM   10  C   UNL     1     -10.394  17.248  65.942  1.00  0.00    -0.287 A  
HETATM   11  F   UNL     1     -10.002  19.550  66.076  1.00  0.00    -0.409 F  
HETATM   12  C   UNL     1      -9.882  18.340  66.644  1.00  0.00    -0.352 A  
BRANCH   9  13
HETATM   13  C   UNL     1     -10.667  14.760  65.667  1.00  0.00    -0.336 C  
HETATM   14  N   UNL     1      -9.958  13.664  65.695  1.00  0.00    -0.273 NA 
HETATM   15  N   UNL     1     -10.439  12.698  64.849  1.00  0.00    -0.299 NA 
HETATM   16  C   UNL     1      -9.918  11.440  64.650  1.00  0.00    -0.268 A  
HETATM   17  C   UNL     1     -11.904  14.881  64.789  1.00  0.00    -0.384 C  
HETATM   18  C   UNL     1     -10.700  10.887  63.659  1.00  0.00    -0.052 A  
HETATM   19  N   UNL     1     -11.708  11.731  63.287  1.00  0.00    -0.334 NA 
HETATM   20  N   UNL     1     -12.320  13.938  64.011  1.00  0.00    -0.683 NA 
HETATM   21  C   UNL     1     -11.556  12.815  64.017  1.00  0.00    -0.424 A  
BRANCH  16  22
HETATM   22  C   UNL     1      -8.797  10.856  65.429  1.00  0.00    -0.192 C  
BRANCH  22  23
HETATM   23  C   UNL     1      -8.800   9.347  65.490  1.00  0.00    -0.220 A  
HETATM   24  C   UNL     1      -7.820   7.225  64.844  1.00  0.00    -0.126 A  
HETATM   25  C   UNL     1      -7.868   8.618  64.749  1.00  0.00    -0.123 A  
HETATM   26  C   UNL     1      -8.706   6.514  65.639  1.00  0.00    -0.091 A  
HETATM   27  N   UNL     1      -8.618   5.172  65.680  1.00  0.00    -0.134 NA 
HETATM   28  C   UNL     1      -9.521   4.501  66.426  1.00  0.00    -0.172 A  
HETATM   29  C   UNL     1     -10.526   5.112  67.151  1.00  0.00    -0.224 A  
HETATM   30  C   UNL     1     -10.597   6.500  67.127  1.00  0.00    -0.398 A  
HETATM   31  C   UNL     1      -9.678   7.236  66.362  1.00  0.00    -0.148 A  
HETATM   32  C   UNL     1      -9.710   8.645  66.295  1.00  0.00    -0.322 A  
ENDBRANCH  22  23
ENDBRANCH  16  22
ENDBRANCH   9  13
ENDBRANCH   3   6
TORSDOF 4
ENDMDL
MODEL       71
REMARK 921   NORMALIZED FREE ENERGY PREDICTED BY IDOCK:   -6.57 KCAL/MOL
REMARK 922        TOTAL FREE ENERGY PREDICTED BY IDOCK:   -8.77 KCAL/MOL
REMARK 923 INTER-LIGAND FREE ENERGY PREDICTED BY IDOCK:   -7.86 KCAL/MOL
REMARK 924 INTRA-LIGAND FREE ENERGY PREDICTED BY IDOCK:   -0.91 KCAL/MOL
REMARK 927      BINDING AFFINITY PREDICTED BY RF-SCORE:    0.00 PKD
ROOT
HETATM    1  C   UNL     1      -9.869   3.987  65.107  1.00  0.00    -0.201 C  
HETATM    2  N   UNL     1      -9.546   5.387  65.226  1.00  0.00    -0.362 N  
HETATM    3  C   UNL     1      -8.959   5.898  66.362  1.00  0.00    -0.140 C  
HETATM    4  H   UNL     1      -9.759   6.014  64.451  1.00  0.00     0.000 HD 
HETATM    5  O   UNL     1      -8.630   5.197  67.315  1.00  0.00    -0.106 OA 
ENDROOT
BRANCH   3   6
HETATM    6  C   UNL     1      -8.749   7.373  66.421  1.00  0.00    -0.154 A  
HETATM    7  C   UNL     1      -7.450   7.883  66.257  1.00  0.00    -0.079 A  
HETATM    8  C   UNL     1      -7.198   9.256  66.384  1.00  0.00    -0.088 A  
HETATM    9  C   UNL     1      -8.242  10.140  66.687  1.00  0.00    -0.123 A  
HETATM   10  C   UNL     1      -9.544   9.644  66.795  1.00  0.00    -0.225 A  
HETATM   11  F   UNL     1     -11.049   7.855  66.828  1.00  0.00    -0.336 F  
HETATM   12  C   UNL     1      -9.785   8.274  66.671  1.00  0.00    -0.251 A  
BRANCH   9  13
HETATM   13  C   UNL     1      -7.934  11.573  66.956  1.00  0.00    -0.161 C  
HETATM   14  N   UNL     1      -8.871  12.481  66.909  1.00  0.00    -0.210 NA 
HETATM   15  N   UNL     1      -8.391  13.750  67.106  1.00  0.00    -0.171 NA 
HETATM   16  C   UNL     1      -9.120  14.917  67.114  1.00  0.00    -0.222 A  
HETATM   17  C   UNL     1      -6.485  11.944  67.235  1.00  0.00    -0.141 C  
HETATM   18  C   UNL     1      -8.185  15.917  67.271  1.00  0.00    -0.185 A  
HETATM   19  N   UNL     1      -6.927  15.406  67.416  1.00  0.00    -0.194 NA 
HETATM   20  N   UNL     1      -6.083  13.157  67.419  1.00  0.00    -0.319 NA 
HETATM   21  C   UNL     1      -7.057  14.100  67.331  1.00  0.00    -0.077 A  
BRANCH  16  22
HETATM   22  C   UNL     1     -10.601  14.989  67.037  1.00  0.00    -0.293 C  
BRANCH  22  23
HETATM   23  C   UNL     1     -11.307  14.744  68.350  1.00  0.00    -0.317 A  
HETATM   24  C   UNL     1     -12.504  15.608  70.275  1.00  0.00    -0.369 A  
HETATM   25  C   UNL     1     -11.796  15.823  69.090  1.00  0.00    -0.367 A  
HETATM   26  C   UNL     1     -12.718  14.334  70.778  1.00  0.00    -0.350 A  
HETATM   27  N   UNL     1     -13.396  14.191  71.932  1.00  0.00    -0.363 NA 
HETATM   28  C   UNL     1     -13.552  12.944  72.424  1.00  0.00    -0.478 A  
HETATM   29  C   UNL     1     -13.057  11.808  71.813  1.00  0.00    -0.480 A  
HETATM   30  C   UNL     1     -12.379  11.958  70.608  1.00  0.00    -0.405 A  
HETATM   31  C   UNL     1     -12.194  13.238  70.062  1.00  0.00    -0.345 A  
HETATM   32  C   UNL     1     -11.507  13.449  68.848  1.00  0.00    -0.347 A  
ENDBRANCH  22  23
ENDBRANCH  16  22
ENDBRANCH   9  13
ENDBRANCH   3   6
TORSDOF 4
ENDMDL
MODEL       72
REMARK 921   NORMALIZED FREE ENERGY PREDICTED BY IDOCK:   -6.55 KCAL/MOL
REMARK 922        TOTAL FREE ENERGY PREDICTED BY IDOCK:   -8.74 KCAL/MOL
REMARK 923 INTER-LIGAND FREE ENERGY PREDICTED BY IDOCK:   -8.07 KCAL/MOL
REMARK 924 INTRA-LIGAND FREE ENERGY PREDICTED BY IDOCK:   -0.66 KCAL/MOL
REMARK 927      BINDING AFFINITY PREDICTED BY RF-SCORE:    0.00 PKD
ROOT
HETATM    1  C   UNL     1      -9.368   2.148  69.997  1.00  0.00    -0.102 C  
HETATM    2  N   UNL     1      -9.328   3.384  69.257  1.00  0.00    -0.163 N  
HETATM    3  C   UNL     1      -9.804   4.561  69.792  1.00  0.00    -0.225 C  
HETATM    4  H   UNL     1      -8.939   3.388  68.314  1.00  0.00     0.000 HD 
HETATM    5  O   UNL     1     -10.241   4.644  70.935  1.00  0.00    -0.211 OA 
ENDROOT
BRANCH   3   6
HETATM    6  C   UNL     1      -9.801   5.765  68.911  1.00  0.00    -0.191 A  
HETATM    7  C   UNL     1     -10.915   6.011  68.091  1.00  0.00    -0.340 A  
HETATM    8  C   UNL     1     -10.919   7.087  67.192  1.00  0.00    -0.393 A  
HETATM    9  C   UNL     1      -9.804   7.927  67.093  1.00  0.00    -0.273 A  
HETATM   10  C   UNL     1      -8.717   7.720  67.947  1.00  0.00    -0.124 A  
HETATM   11  F   UNL     1      -7.629   6.472  69.598  1.00  0.00    -0.087 F  
HETATM   12  C   UNL     1      -8.720   6.644  68.836  1.00  0.00    -0.128 A  
BRANCH   9  13
HETATM   13  C   UNL     1      -9.769   8.978  66.036  1.00  0.00    -0.269 C  
HETATM   14  N   UNL     1     -10.583   9.999  66.077  1.00  0.00    -0.056 NA 
HETATM   15  N   UNL     1     -10.461  10.819  64.986  1.00  0.00    -0.274 NA 
HETATM   16  C   UNL     1     -11.174  11.969  64.733  1.00  0.00    -0.318 A  
HETATM   17  C   UNL     1      -8.790   8.792  64.886  1.00  0.00    -0.074 C  
HETATM   18  C   UNL     1     -10.748  12.383  63.490  1.00  0.00    -0.430 A  
HETATM   19  N   UNL     1      -9.767  11.568  63.000  1.00  0.00    -0.391 NA 
HETATM   20  N   UNL     1      -8.711   9.598  63.880  1.00  0.00    -0.207 NA 
HETATM   21  C   UNL     1      -9.587  10.635  63.911  1.00  0.00    -0.306 A  
BRANCH  16  22
HETATM   22  C   UNL     1     -12.126  12.599  65.682  1.00  0.00    -0.502 C  
BRANCH  22  23
HETATM   23  C   UNL     1     -11.524  13.689  66.538  1.00  0.00    -0.357 A  
HETATM   24  C   UNL     1     -11.217  14.709  68.717  1.00  0.00    -0.285 A  
HETATM   25  C   UNL     1     -11.816  13.744  67.902  1.00  0.00    -0.413 A  
HETATM   26  C   UNL     1     -10.348  15.661  68.206  1.00  0.00    -0.244 A  
HETATM   27  N   UNL     1      -9.813  16.572  69.039  1.00  0.00    -0.259 NA 
HETATM   28  C   UNL     1      -9.006  17.516  68.510  1.00  0.00    -0.279 A  
HETATM   29  C   UNL     1      -8.696  17.597  67.166  1.00  0.00    -0.252 A  
HETATM   30  C   UNL     1      -9.230  16.638  66.313  1.00  0.00    -0.328 A  
HETATM   31  C   UNL     1     -10.076  15.640  66.823  1.00  0.00    -0.277 A  
HETATM   32  C   UNL     1     -10.652  14.648  66.002  1.00  0.00    -0.314 A  
ENDBRANCH  22  23
ENDBRANCH  16  22
ENDBRANCH   9  13
ENDBRANCH   3   6
TORSDOF 4
ENDMDL
MODEL       73
REMARK 921   NORMALIZED FREE ENERGY PREDICTED BY IDOCK:   -6.54 KCAL/MOL
REMARK 922        TOTAL FREE ENERGY PREDICTED BY IDOCK:   -8.73 KCAL/MOL
REMARK 923 INTER-LIGAND FREE ENERGY PREDICTED BY IDOCK:   -7.90 KCAL/MOL
REMARK 924 INTRA-LIGAND FREE ENERGY PREDICTED BY IDOCK:   -0.84 KCAL/MOL
REMARK 927      BINDING AFFINITY PREDICTED BY RF-SCORE:    0.00 PKD
ROOT
HETATM    1  C   UNL     1     -10.047   3.895  64.593  1.00  0.00    -0.213 C  
HETATM    2  N   UNL     1      -9.559   5.171  65.053  1.00  0.00    -0.362 N  
HETATM    3  C   UNL     1      -9.938   5.692  66.271  1.00  0.00    -0.115 C  
HETATM    4  H   UNL     1      -8.918   5.701  64.463  1.00  0.00     0.000 HD 
HETATM    5  O   UNL     1     -10.666   5.092  67.054  1.00  0.00    -0.197 OA 
ENDROOT
BRANCH   3   6
HETATM    6  C   UNL     1      -9.449   7.059  66.613  1.00  0.00    -0.210 A  
HETATM    7  C   UNL     1     -10.387   8.073  66.869  1.00  0.00    -0.408 A  
HETATM    8  C   UNL     1      -9.971   9.389  67.118  1.00  0.00    -0.263 A  
HETATM    9  C   UNL     1      -8.608   9.712  67.104  1.00  0.00    -0.133 A  
HETATM   10  C   UNL     1      -7.670   8.695  66.905  1.00  0.00    -0.091 A  
HETATM   11  F   UNL     1      -7.146   6.467  66.429  1.00  0.00    -0.061 F  
HETATM   12  C   UNL     1      -8.094   7.389  66.655  1.00  0.00    -0.123 A  
BRANCH   9  13
HETATM   13  C   UNL     1      -8.192  11.137  67.230  1.00  0.00    -0.136 C  
HETATM   14  N   UNL     1      -9.069  12.101  67.162  1.00  0.00    -0.183 NA 
HETATM   15  N   UNL     1      -8.496  13.346  67.221  1.00  0.00    -0.202 NA 
HETATM   16  C   UNL     1      -9.146  14.558  67.172  1.00  0.00    -0.225 A  
HETATM   17  C   UNL     1      -6.706  11.428  67.390  1.00  0.00    -0.094 C  
HETATM   18  C   UNL     1      -8.140  15.499  67.187  1.00  0.00    -0.216 A  
HETATM   19  N   UNL     1      -6.911  14.915  67.300  1.00  0.00    -0.267 NA 
HETATM   20  N   UNL     1      -6.216  12.621  67.445  1.00  0.00    -0.163 NA 
HETATM   21  C   UNL     1      -7.130  13.618  67.335  1.00  0.00    -0.079 A  
BRANCH  16  22
HETATM   22  C   UNL     1     -10.622  14.726  67.177  1.00  0.00    -0.285 C  
BRANCH  22  23
HETATM   23  C   UNL     1     -11.265  14.542  68.531  1.00  0.00    -0.285 A  
HETATM   24  C   UNL     1     -12.489  13.149  70.094  1.00  0.00    -0.192 A  
HETATM   25  C   UNL     1     -11.943  13.357  68.825  1.00  0.00    -0.359 A  
HETATM   26  C   UNL     1     -12.414  14.110  71.090  1.00  0.00    -0.371 A  
HETATM   27  N   UNL     1     -12.972  13.856  72.288  1.00  0.00    -0.364 NA 
HETATM   28  C   UNL     1     -12.925  14.826  73.226  1.00  0.00    -0.493 A  
HETATM   29  C   UNL     1     -12.337  16.060  73.028  1.00  0.00    -0.625 A  
HETATM   30  C   UNL     1     -11.740  16.309  71.797  1.00  0.00    -0.504 A  
HETATM   31  C   UNL     1     -11.768  15.328  70.794  1.00  0.00    -0.377 A  
HETATM   32  C   UNL     1     -11.186  15.530  69.524  1.00  0.00    -0.300 A  
ENDBRANCH  22  23
ENDBRANCH  16  22
ENDBRANCH   9  13
ENDBRANCH   3   6
TORSDOF 4
ENDMDL
MODEL       74
REMARK 921   NORMALIZED FREE ENERGY PREDICTED BY IDOCK:   -6.52 KCAL/MOL
REMARK 922        TOTAL FREE ENERGY PREDICTED BY IDOCK:   -8.70 KCAL/MOL
REMARK 923 INTER-LIGAND FREE ENERGY PREDICTED BY IDOCK:   -8.00 KCAL/MOL
REMARK 924 INTRA-LIGAND FREE ENERGY PREDICTED BY IDOCK:   -0.70 KCAL/MOL
REMARK 927      BINDING AFFINITY PREDICTED BY RF-SCORE:    0.00 PKD
ROOT
HETATM    1  C   UNL     1      -9.183   2.557  67.138  1.00  0.00    -0.109 C  
HETATM    2  N   UNL     1      -9.043   3.991  67.188  1.00  0.00    -0.137 N  
HETATM    3  C   UNL     1      -9.608   4.805  66.232  1.00  0.00    -0.178 C  
HETATM    4  H   UNL     1      -8.514   4.413  67.951  1.00  0.00     0.000 HD 
HETATM    5  O   UNL     1     -10.298   4.374  65.314  1.00  0.00    -0.242 OA 
ENDROOT
BRANCH   3   6
HETATM    6  C   UNL     1      -9.329   6.267  66.324  1.00  0.00    -0.155 A  
HETATM    7  C   UNL     1      -8.035   6.733  66.033  1.00  0.00    -0.109 A  
HETATM    8  C   UNL     1      -7.711   8.088  66.183  1.00  0.00    -0.087 A  
HETATM    9  C   UNL     1      -8.674   8.998  66.637  1.00  0.00    -0.140 A  
HETATM   10  C   UNL     1      -9.976   8.549  66.874  1.00  0.00    -0.335 A  
HETATM   11  F   UNL     1     -11.545   6.820  67.009  1.00  0.00    -0.416 F  
HETATM   12  C   UNL     1     -10.289   7.197  66.725  1.00  0.00    -0.227 A  
BRANCH   9  13
HETATM   13  C   UNL     1      -8.276  10.405  66.925  1.00  0.00    -0.124 C  
HETATM   14  N   UNL     1      -9.153  11.371  66.891  1.00  0.00    -0.170 NA 
HETATM   15  N   UNL     1      -8.593  12.605  67.105  1.00  0.00    -0.196 NA 
HETATM   16  C   UNL     1      -9.246  13.816  67.128  1.00  0.00    -0.243 A  
HETATM   17  C   UNL     1      -6.806  10.679  67.209  1.00  0.00    -0.079 C  
HETATM   18  C   UNL     1      -8.249  14.751  67.298  1.00  0.00    -0.213 A  
HETATM   19  N   UNL     1      -7.025  14.160  67.436  1.00  0.00    -0.204 NA 
HETATM   20  N   UNL     1      -6.327  11.861  67.409  1.00  0.00    -0.112 NA 
HETATM   21  C   UNL     1      -7.239  12.865  67.334  1.00  0.00    -0.126 A  
BRANCH  16  22
HETATM   22  C   UNL     1     -10.719  13.983  67.051  1.00  0.00    -0.284 C  
BRANCH  22  23
HETATM   23  C   UNL     1     -11.442  13.741  68.355  1.00  0.00    -0.351 A  
HETATM   24  C   UNL     1     -12.150  12.215  70.103  1.00  0.00    -0.368 A  
HETATM   25  C   UNL     1     -11.538  12.445  68.868  1.00  0.00    -0.364 A  
HETATM   26  C   UNL     1     -12.711  13.243  70.845  1.00  0.00    -0.254 A  
HETATM   27  N   UNL     1     -13.298  12.956  72.021  1.00  0.00    -0.500 NA 
HETATM   28  C   UNL     1     -13.877  13.968  72.702  1.00  0.00    -0.405 A  
HETATM   29  C   UNL     1     -13.900  15.277  72.263  1.00  0.00    -0.632 A  
HETATM   30  C   UNL     1     -13.269  15.573  71.059  1.00  0.00    -0.539 A  
HETATM   31  C   UNL     1     -12.657  14.550  70.319  1.00  0.00    -0.378 A  
HETATM   32  C   UNL     1     -12.011  14.792  69.088  1.00  0.00    -0.317 A  
ENDBRANCH  22  23
ENDBRANCH  16  22
ENDBRANCH   9  13
ENDBRANCH   3   6
TORSDOF 4
ENDMDL
MODEL       75
REMARK 921   NORMALIZED FREE ENERGY PREDICTED BY IDOCK:   -6.50 KCAL/MOL
REMARK 922        TOTAL FREE ENERGY PREDICTED BY IDOCK:   -8.67 KCAL/MOL
REMARK 923 INTER-LIGAND FREE ENERGY PREDICTED BY IDOCK:   -8.64 KCAL/MOL
REMARK 924 INTRA-LIGAND FREE ENERGY PREDICTED BY IDOCK:   -0.03 KCAL/MOL
REMARK 927      BINDING AFFINITY PREDICTED BY RF-SCORE:    0.00 PKD
ROOT
HETATM    1  C   UNL     1      -7.615  19.897  65.744  1.00  0.00    -0.297 C  
HETATM    2  N   UNL     1      -8.286  18.766  66.335  1.00  0.00    -0.290 N  
HETATM    3  C   UNL     1      -9.658  18.723  66.456  1.00  0.00    -0.348 C  
HETATM    4  H   UNL     1      -7.732  17.979  66.673  1.00  0.00     0.000 HD 
HETATM    5  O   UNL     1     -10.392  19.609  66.030  1.00  0.00    -0.469 OA 
ENDROOT
BRANCH   3   6
HETATM    6  C   UNL     1     -10.247  17.550  67.164  1.00  0.00    -0.323 A  
HETATM    7  C   UNL     1     -10.402  17.605  68.559  1.00  0.00    -0.370 A  
HETATM    8  C   UNL     1     -10.878  16.496  69.272  1.00  0.00    -0.326 A  
HETATM    9  C   UNL     1     -11.198  15.310  68.599  1.00  0.00    -0.303 A  
HETATM   10  C   UNL     1     -11.099  15.270  67.205  1.00  0.00    -0.325 A  
HETATM   11  F   UNL     1     -10.506  16.263  65.173  1.00  0.00    -0.374 F  
HETATM   12  C   UNL     1     -10.619  16.378  66.505  1.00  0.00    -0.235 A  
BRANCH   9  13
HETATM   13  C   UNL     1     -11.568  14.099  69.384  1.00  0.00    -0.304 C  
HETATM   14  N   UNL     1     -11.178  12.910  69.009  1.00  0.00    -0.267 NA 
HETATM   15  N   UNL     1     -11.676  11.911  69.806  1.00  0.00    -0.327 NA 
HETATM   16  C   UNL     1     -11.454  10.560  69.674  1.00  0.00    -0.282 A  
HETATM   17  C   UNL     1     -12.456  14.292  70.605  1.00  0.00    -0.358 C  
HETATM   18  C   UNL     1     -12.225   9.977  70.655  1.00  0.00    -0.269 A  
HETATM   19  N   UNL     1     -12.863  10.917  71.414  1.00  0.00    -0.425 NA 
HETATM   20  N   UNL     1     -12.896  13.317  71.328  1.00  0.00    -0.345 NA 
HETATM   21  C   UNL     1     -12.518  12.082  70.909  1.00  0.00    -0.288 A  
BRANCH  16  22
HETATM   22  C   UNL     1     -10.512   9.950  68.701  1.00  0.00    -0.231 C  
BRANCH  22  23
HETATM   23  C   UNL     1     -10.249   8.480  68.926  1.00  0.00    -0.221 A  
HETATM   24  C   UNL     1      -9.950   6.617  70.451  1.00  0.00    -0.193 A  
HETATM   25  C   UNL     1     -10.131   7.984  70.227  1.00  0.00    -0.192 A  
HETATM   26  C   UNL     1      -9.846   5.712  69.406  1.00  0.00    -0.175 A  
HETATM   27  N   UNL     1      -9.659   4.408  69.685  1.00  0.00    -0.189 NA 
HETATM   28  C   UNL     1      -9.516   3.554  68.650  1.00  0.00    -0.141 A  
HETATM   29  C   UNL     1      -9.552   3.939  67.324  1.00  0.00    -0.222 A  
HETATM   30  C   UNL     1      -9.772   5.282  67.040  1.00  0.00    -0.167 A  
HETATM   31  C   UNL     1      -9.924   6.204  68.087  1.00  0.00    -0.158 A  
HETATM   32  C   UNL     1     -10.139   7.579  67.856  1.00  0.00    -0.226 A  
ENDBRANCH  22  23
ENDBRANCH  16  22
ENDBRANCH   9  13
ENDBRANCH   3   6
TORSDOF 4
ENDMDL
MODEL       76
REMARK 921   NORMALIZED FREE ENERGY PREDICTED BY IDOCK:   -6.47 KCAL/MOL
REMARK 922        TOTAL FREE ENERGY PREDICTED BY IDOCK:   -8.64 KCAL/MOL
REMARK 923 INTER-LIGAND FREE ENERGY PREDICTED BY IDOCK:   -7.71 KCAL/MOL
REMARK 924 INTRA-LIGAND FREE ENERGY PREDICTED BY IDOCK:   -0.93 KCAL/MOL
REMARK 927      BINDING AFFINITY PREDICTED BY RF-SCORE:    0.00 PKD
ROOT
HETATM    1  C   UNL     1     -10.515   3.694  64.263  1.00  0.00    -0.218 C  
HETATM    2  N   UNL     1      -9.960   4.934  64.745  1.00  0.00    -0.361 N  
HETATM    3  C   UNL     1      -9.791   5.174  66.090  1.00  0.00    -0.185 C  
HETATM    4  H   UNL     1      -9.685   5.651  64.073  1.00  0.00     0.000 HD 
HETATM    5  O   UNL     1     -10.053   4.342  66.953  1.00  0.00    -0.209 OA 
ENDROOT
BRANCH   3   6
HETATM    6  C   UNL     1      -9.294   6.522  66.489  1.00  0.00    -0.188 A  
HETATM    7  C   UNL     1     -10.225   7.542  66.750  1.00  0.00    -0.324 A  
HETATM    8  C   UNL     1      -9.797   8.843  67.051  1.00  0.00    -0.277 A  
HETATM    9  C   UNL     1      -8.431   9.145  67.086  1.00  0.00    -0.120 A  
HETATM   10  C   UNL     1      -7.501   8.122  66.883  1.00  0.00    -0.091 A  
HETATM   11  F   UNL     1      -6.995   5.901  66.352  1.00  0.00    -0.054 F  
HETATM   12  C   UNL     1      -7.936   6.830  66.580  1.00  0.00    -0.105 A  
BRANCH   9  13
HETATM   13  C   UNL     1      -7.998  10.560  67.268  1.00  0.00    -0.114 C  
HETATM   14  N   UNL     1      -8.841  11.545  67.118  1.00  0.00    -0.163 NA 
HETATM   15  N   UNL     1      -8.250  12.775  67.248  1.00  0.00    -0.185 NA 
HETATM   16  C   UNL     1      -8.865  14.002  67.143  1.00  0.00    -0.228 A  
HETATM   17  C   UNL     1      -6.531  10.815  67.585  1.00  0.00    -0.056 C  
HETATM   18  C   UNL     1      -7.845  14.920  67.273  1.00  0.00    -0.206 A  
HETATM   19  N   UNL     1      -6.647  14.307  67.507  1.00  0.00    -0.287 NA 
HETATM   20  N   UNL     1      -6.022  11.996  67.703  1.00  0.00    -0.079 NA 
HETATM   21  C   UNL     1      -6.898  13.015  67.507  1.00  0.00    -0.151 A  
BRANCH  16  22
HETATM   22  C   UNL     1     -10.328  14.205  66.996  1.00  0.00    -0.267 C  
BRANCH  22  23
HETATM   23  C   UNL     1     -11.077  14.313  68.303  1.00  0.00    -0.276 A  
HETATM   24  C   UNL     1     -12.154  15.683  69.991  1.00  0.00    -0.379 A  
HETATM   25  C   UNL     1     -11.407  15.570  68.815  1.00  0.00    -0.339 A  
HETATM   26  C   UNL     1     -12.561  14.570  70.709  1.00  0.00    -0.351 A  
HETATM   27  N   UNL     1     -13.267  14.743  71.842  1.00  0.00    -0.322 NA 
HETATM   28  C   UNL     1     -13.613  13.645  72.546  1.00  0.00    -0.570 A  
HETATM   29  C   UNL     1     -13.287  12.356  72.170  1.00  0.00    -0.508 A  
HETATM   30  C   UNL     1     -12.581  12.180  70.986  1.00  0.00    -0.359 A  
HETATM   31  C   UNL     1     -12.200  13.295  70.225  1.00  0.00    -0.391 A  
HETATM   32  C   UNL     1     -11.475  13.175  69.020  1.00  0.00    -0.345 A  
ENDBRANCH  22  23
ENDBRANCH  16  22
ENDBRANCH   9  13
ENDBRANCH   3   6
TORSDOF 4
ENDMDL
MODEL       77
REMARK 921   NORMALIZED FREE ENERGY PREDICTED BY IDOCK:   -6.45 KCAL/MOL
REMARK 922        TOTAL FREE ENERGY PREDICTED BY IDOCK:   -8.62 KCAL/MOL
REMARK 923 INTER-LIGAND FREE ENERGY PREDICTED BY IDOCK:   -8.06 KCAL/MOL
REMARK 924 INTRA-LIGAND FREE ENERGY PREDICTED BY IDOCK:   -0.56 KCAL/MOL
REMARK 927      BINDING AFFINITY PREDICTED BY RF-SCORE:    0.00 PKD
ROOT
HETATM    1  C   UNL     1     -12.158  15.035  64.298  1.00  0.00    -0.306 C  
HETATM    2  N   UNL     1     -12.124  14.074  65.373  1.00  0.00    -0.381 N  
HETATM    3  C   UNL     1     -11.629  14.399  66.616  1.00  0.00    -0.384 C  
HETATM    4  H   UNL     1     -12.476  13.131  65.209  1.00  0.00     0.000 HD 
HETATM    5  O   UNL     1     -11.234  15.525  66.902  1.00  0.00    -0.276 OA 
ENDROOT
BRANCH   3   6
HETATM    6  C   UNL     1     -11.555  13.309  67.631  1.00  0.00    -0.386 A  
HETATM    7  C   UNL     1     -11.120  12.035  67.230  1.00  0.00    -0.341 A  
HETATM    8  C   UNL     1     -11.110  10.963  68.135  1.00  0.00    -0.337 A  
HETATM    9  C   UNL     1     -11.546  11.150  69.453  1.00  0.00    -0.388 A  
HETATM   10  C   UNL     1     -11.926  12.428  69.870  1.00  0.00    -0.369 A  
HETATM   11  F   UNL     1     -12.352  14.681  69.412  1.00  0.00    -0.337 F  
HETATM   12  C   UNL     1     -11.936  13.488  68.962  1.00  0.00    -0.335 A  
BRANCH   9  13
HETATM   13  C   UNL     1     -11.662   9.973  70.359  1.00  0.00    -0.286 C  
HETATM   14  N   UNL     1     -10.964   8.890  70.147  1.00  0.00    -0.238 NA 
HETATM   15  N   UNL     1     -11.256   7.886  71.034  1.00  0.00    -0.265 NA 
HETATM   16  C   UNL     1     -10.697   6.630  71.074  1.00  0.00    -0.236 A  
HETATM   17  C   UNL     1     -12.657  10.060  71.508  1.00  0.00    -0.425 C  
HETATM   18  C   UNL     1     -11.370   5.975  72.082  1.00  0.00    -0.299 A  
HETATM   19  N   UNL     1     -12.274   6.795  72.695  1.00  0.00     0.106 NA 
HETATM   20  N   UNL     1     -12.894   9.086  72.321  1.00  0.00    -0.403 NA 
HETATM   21  C   UNL     1     -12.192   7.951  72.070  1.00  0.00    -0.317 A  
BRANCH  16  22
HETATM   22  C   UNL     1      -9.564   6.181  70.224  1.00  0.00    -0.188 C  
BRANCH  22  23
HETATM   23  C   UNL     1      -9.439   6.919  68.912  1.00  0.00    -0.136 A  
HETATM   24  C   UNL     1     -10.314   7.434  66.710  1.00  0.00    -0.321 A  
HETATM   25  C   UNL     1     -10.383   6.712  67.904  1.00  0.00    -0.227 A  
HETATM   26  C   UNL     1      -9.301   8.347  66.463  1.00  0.00    -0.201 A  
HETATM   27  N   UNL     1      -9.281   9.002  65.288  1.00  0.00    -0.184 NA 
HETATM   28  C   UNL     1      -8.259   9.852  65.055  1.00  0.00    -0.143 A  
HETATM   29  C   UNL     1      -7.235  10.089  65.952  1.00  0.00    -0.115 A  
HETATM   30  C   UNL     1      -7.274   9.429  67.175  1.00  0.00    -0.087 A  
HETATM   31  C   UNL     1      -8.318   8.536  67.457  1.00  0.00    -0.128 A  
HETATM   32  C   UNL     1      -8.402   7.834  68.678  1.00  0.00    -0.129 A  
ENDBRANCH  22  23
ENDBRANCH  16  22
ENDBRANCH   9  13
ENDBRANCH   3   6
TORSDOF 4
ENDMDL
MODEL       78
REMARK 921   NORMALIZED FREE ENERGY PREDICTED BY IDOCK:   -6.36 KCAL/MOL
REMARK 922        TOTAL FREE ENERGY PREDICTED BY IDOCK:   -8.51 KCAL/MOL
REMARK 923 INTER-LIGAND FREE ENERGY PREDICTED BY IDOCK:   -7.66 KCAL/MOL
REMARK 924 INTRA-LIGAND FREE ENERGY PREDICTED BY IDOCK:   -0.85 KCAL/MOL
REMARK 927      BINDING AFFINITY PREDICTED BY RF-SCORE:    0.00 PKD
ROOT
HETATM    1  C   UNL     1     -13.223  15.028  73.267  1.00  0.00    -0.422 C  
HETATM    2  N   UNL     1     -12.982  14.435  71.976  1.00  0.00    -0.335 N  
HETATM    3  C   UNL     1     -11.959  14.870  71.162  1.00  0.00    -0.335 C  
HETATM    4  H   UNL     1     -13.583  13.676  71.656  1.00  0.00     0.000 HD 
HETATM    5  O   UNL     1     -11.167  15.744  71.497  1.00  0.00    -0.354 OA 
ENDROOT
BRANCH   3   6
HETATM    6  C   UNL     1     -11.851  14.253  69.808  1.00  0.00    -0.380 A  
HETATM    7  C   UNL     1     -11.842  12.853  69.697  1.00  0.00    -0.387 A  
HETATM    8  C   UNL     1     -11.663  12.234  68.452  1.00  0.00    -0.390 A  
HETATM    9  C   UNL     1     -11.481  13.008  67.299  1.00  0.00    -0.380 A  
HETATM   10  C   UNL     1     -11.546  14.401  67.397  1.00  0.00    -0.398 A  
HETATM   11  F   UNL     1     -11.731  16.350  68.676  1.00  0.00    -0.350 F  
HETATM   12  C   UNL     1     -11.720  15.008  68.642  1.00  0.00    -0.337 A  
BRANCH   9  13
HETATM   13  C   UNL     1     -11.153  12.337  66.010  1.00  0.00    -0.309 C  
HETATM   14  N   UNL     1     -10.307  11.344  65.966  1.00  0.00    -0.242 NA 
HETATM   15  N   UNL     1     -10.070  10.903  64.689  1.00  0.00    -0.303 NA 
HETATM   16  C   UNL     1      -9.232   9.879  64.311  1.00  0.00    -0.265 A  
HETATM   17  C   UNL     1     -11.799  12.883  64.744  1.00  0.00    -0.363 C  
HETATM   18  C   UNL     1      -9.278   9.876  62.934  1.00  0.00    -0.261 A  
HETATM   19  N   UNL     1     -10.150  10.815  62.460  1.00  0.00     0.056 NA 
HETATM   20  N   UNL     1     -11.546  12.429  63.562  1.00  0.00    -0.480 NA 
HETATM   21  C   UNL     1     -10.636  11.422  63.522  1.00  0.00    -0.402 A  
BRANCH  16  22
HETATM   22  C   UNL     1      -8.525   8.974  65.251  1.00  0.00    -0.181 C  
BRANCH  22  23
HETATM   23  C   UNL     1      -7.640   9.681  66.250  1.00  0.00    -0.101 A  
HETATM   24  C   UNL     1      -5.869  11.272  66.719  1.00  0.00    -0.121 A  
HETATM   25  C   UNL     1      -6.654  10.564  65.804  1.00  0.00    -0.123 A  
HETATM   26  C   UNL     1      -6.010  11.104  68.088  1.00  0.00    -0.045 A  
HETATM   27  N   UNL     1      -5.216  11.804  68.919  1.00  0.00    -0.050 NA 
HETATM   28  C   UNL     1      -5.342  11.589  70.245  1.00  0.00    -0.107 A  
HETATM   29  C   UNL     1      -6.238  10.694  70.798  1.00  0.00     0.012 A  
HETATM   30  C   UNL     1      -7.075   9.992  69.937  1.00  0.00    -0.130 A  
HETATM   31  C   UNL     1      -6.975  10.185  68.551  1.00  0.00    -0.069 A  
HETATM   32  C   UNL     1      -7.792   9.493  67.632  1.00  0.00    -0.102 A  
ENDBRANCH  22  23
ENDBRANCH  16  22
ENDBRANCH   9  13
ENDBRANCH   3   6
TORSDOF 4
ENDMDL
MODEL       79
REMARK 921   NORMALIZED FREE ENERGY PREDICTED BY IDOCK:   -6.35 KCAL/MOL
REMARK 922        TOTAL FREE ENERGY PREDICTED BY IDOCK:   -8.49 KCAL/MOL
REMARK 923 INTER-LIGAND FREE ENERGY PREDICTED BY IDOCK:   -7.99 KCAL/MOL
REMARK 924 INTRA-LIGAND FREE ENERGY PREDICTED BY IDOCK:   -0.50 KCAL/MOL
REMARK 927      BINDING AFFINITY PREDICTED BY RF-SCORE:    0.00 PKD
ROOT
HETATM    1  C   UNL     1     -12.514   6.909  71.227  1.00  0.00    -0.361 C  
HETATM    2  N   UNL     1     -11.735   7.968  70.635  1.00  0.00    -0.444 N  
HETATM    3  C   UNL     1     -10.582   7.707  69.929  1.00  0.00    -0.235 C  
HETATM    4  H   UNL     1     -12.045   8.934  70.743  1.00  0.00     0.000 HD 
HETATM    5  O   UNL     1     -10.173   6.570  69.717  1.00  0.00    -0.177 OA 
ENDROOT
BRANCH   3   6
HETATM    6  C   UNL     1      -9.801   8.878  69.435  1.00  0.00    -0.183 A  
HETATM    7  C   UNL     1      -8.600   9.217  70.082  1.00  0.00    -0.195 A  
HETATM    8  C   UNL     1      -7.877  10.355  69.699  1.00  0.00    -0.138 A  
HETATM    9  C   UNL     1      -8.350  11.178  68.669  1.00  0.00    -0.154 A  
HETATM   10  C   UNL     1      -9.513  10.813  67.986  1.00  0.00    -0.166 A  
HETATM   11  F   UNL     1     -11.361   9.407  67.710  1.00  0.00    -0.202 F  
HETATM   12  C   UNL     1     -10.229   9.680  68.376  1.00  0.00    -0.188 A  
BRANCH   9  13
HETATM   13  C   UNL     1      -7.645  12.456  68.370  1.00  0.00    -0.129 C  
HETATM   14  N   UNL     1      -8.305  13.511  67.973  1.00  0.00    -0.156 NA 
HETATM   15  N   UNL     1      -7.486  14.569  67.672  1.00  0.00    -0.163 NA 
HETATM   16  C   UNL     1      -7.873  15.812  67.228  1.00  0.00    -0.195 A  
HETATM   17  C   UNL     1      -6.128  12.473  68.495  1.00  0.00    -0.061 C  
HETATM   18  C   UNL     1      -6.694  16.486  66.996  1.00  0.00    -0.205 A  
HETATM   19  N   UNL     1      -5.609  15.728  67.333  1.00  0.00    -0.321 NA 
HETATM   20  N   UNL     1      -5.400  13.498  68.203  1.00  0.00    -0.099 NA 
HETATM   21  C   UNL     1      -6.091  14.578  67.754  1.00  0.00    -0.117 A  
BRANCH  16  22
HETATM   22  C   UNL     1      -9.281  16.271  67.120  1.00  0.00    -0.226 C  
BRANCH  22  23
HETATM   23  C   UNL     1     -10.226  15.249  66.534  1.00  0.00    -0.282 A  
HETATM   24  C   UNL     1     -12.406  14.186  66.513  1.00  0.00    -0.405 A  
HETATM   25  C   UNL     1     -11.500  15.084  67.083  1.00  0.00    -0.304 A  
HETATM   26  C   UNL     1     -12.073  13.406  65.416  1.00  0.00    -0.421 A  
HETATM   27  N   UNL     1     -12.985  12.550  64.920  1.00  0.00    -0.805 NA 
HETATM   28  C   UNL     1     -12.620  11.770  63.881  1.00  0.00    -0.248 A  
HETATM   29  C   UNL     1     -11.368  11.801  63.297  1.00  0.00    -0.347 A  
HETATM   30  C   UNL     1     -10.438  12.705  63.797  1.00  0.00    -0.411 A  
HETATM   31  C   UNL     1     -10.776  13.534  64.877  1.00  0.00    -0.391 A  
HETATM   32  C   UNL     1      -9.868  14.463  65.429  1.00  0.00    -0.265 A  
ENDBRANCH  22  23
ENDBRANCH  16  22
ENDBRANCH   9  13
ENDBRANCH   3   6
TORSDOF 4
ENDMDL
MODEL       80
REMARK 921   NORMALIZED FREE ENERGY PREDICTED BY IDOCK:   -6.35 KCAL/MOL
REMARK 922        TOTAL FREE ENERGY PREDICTED BY IDOCK:   -8.49 KCAL/MOL
REMARK 923 INTER-LIGAND FREE ENERGY PREDICTED BY IDOCK:   -7.74 KCAL/MOL
REMARK 924 INTRA-LIGAND FREE ENERGY PREDICTED BY IDOCK:   -0.75 KCAL/MOL
REMARK 927      BINDING AFFINITY PREDICTED BY RF-SCORE:    0.00 PKD
ROOT
HETATM    1  C   UNL     1     -10.491  19.393  66.548  1.00  0.00    -0.476 C  
HETATM    2  N   UNL     1     -10.567  17.958  66.432  1.00  0.00    -0.291 N  
HETATM    3  C   UNL     1     -10.565  17.143  67.543  1.00  0.00    -0.323 C  
HETATM    4  H   UNL     1     -10.624  17.536  65.506  1.00  0.00     0.000 HD 
HETATM    5  O   UNL     1     -10.548  17.580  68.689  1.00  0.00    -0.350 OA 
ENDROOT
BRANCH   3   6
HETATM    6  C   UNL     1     -10.556  15.670  67.312  1.00  0.00    -0.305 A  
HETATM    7  C   UNL     1     -11.620  14.897  67.806  1.00  0.00    -0.358 A  
HETATM    8  C   UNL     1     -11.611  13.501  67.678  1.00  0.00    -0.374 A  
HETATM    9  C   UNL     1     -10.530  12.856  67.064  1.00  0.00    -0.244 A  
HETATM   10  C   UNL     1      -9.497  13.625  66.521  1.00  0.00    -0.270 A  
HETATM   11  F   UNL     1      -8.471  15.693  66.153  1.00  0.00    -0.321 F  
HETATM   12  C   UNL     1      -9.513  15.014  66.656  1.00  0.00    -0.266 A  
BRANCH   9  13
HETATM   13  C   UNL     1     -10.470  11.367  67.062  1.00  0.00    -0.236 C  
HETATM   14  N   UNL     1     -10.723  10.683  68.146  1.00  0.00    -0.207 NA 
HETATM   15  N   UNL     1     -10.544   9.334  67.977  1.00  0.00    -0.227 NA 
HETATM   16  C   UNL     1     -10.726   8.352  68.923  1.00  0.00    -0.068 A  
HETATM   17  C   UNL     1     -10.056  10.677  65.770  1.00  0.00    -0.266 C  
HETATM   18  C   UNL     1     -10.348   7.184  68.297  1.00  0.00    -0.195 A  
HETATM   19  N   UNL     1     -10.000   7.405  66.995  1.00  0.00    -0.209 NA 
HETATM   20  N   UNL     1      -9.906   9.400  65.660  1.00  0.00    -0.286 NA 
HETATM   21  C   UNL     1     -10.133   8.700  66.801  1.00  0.00    -0.296 A  
BRANCH  16  22
HETATM   22  C   UNL     1     -11.282   8.579  70.281  1.00  0.00    -0.185 C  
BRANCH  22  23
HETATM   23  C   UNL     1     -10.291   8.374  71.403  1.00  0.00    -0.285 A  
HETATM   24  C   UNL     1      -9.776   7.502  73.607  1.00  0.00    -0.341 A  
HETATM   25  C   UNL     1     -10.697   7.753  72.586  1.00  0.00    -0.402 A  
HETATM   26  C   UNL     1      -8.448   7.883  73.504  1.00  0.00    -0.228 A  
HETATM   27  N   UNL     1      -7.611   7.625  74.527  1.00  0.00    -0.148 NA 
HETATM   28  C   UNL     1      -6.333   8.046  74.421  1.00  0.00    -0.109 A  
HETATM   29  C   UNL     1      -5.835   8.725  73.326  1.00  0.00    -0.102 A  
HETATM   30  C   UNL     1      -6.696   8.967  72.261  1.00  0.00     0.044 A  
HETATM   31  C   UNL     1      -8.033   8.546  72.331  1.00  0.00    -0.122 A  
HETATM   32  C   UNL     1      -8.952   8.773  71.284  1.00  0.00    -0.295 A  
ENDBRANCH  22  23
ENDBRANCH  16  22
ENDBRANCH   9  13
ENDBRANCH   3   6
TORSDOF 4
ENDMDL
MODEL       81
REMARK 921   NORMALIZED FREE ENERGY PREDICTED BY IDOCK:   -6.32 KCAL/MOL
REMARK 922        TOTAL FREE ENERGY PREDICTED BY IDOCK:   -8.46 KCAL/MOL
REMARK 923 INTER-LIGAND FREE ENERGY PREDICTED BY IDOCK:   -7.91 KCAL/MOL
REMARK 924 INTRA-LIGAND FREE ENERGY PREDICTED BY IDOCK:   -0.55 KCAL/MOL
REMARK 927      BINDING AFFINITY PREDICTED BY RF-SCORE:    0.00 PKD
ROOT
HETATM    1  C   UNL     1     -12.560  16.169  73.833  1.00  0.00    -0.590 C  
HETATM    2  N   UNL     1     -12.094  15.514  72.636  1.00  0.00    -0.396 N  
HETATM    3  C   UNL     1     -12.931  15.286  71.566  1.00  0.00    -0.412 C  
HETATM    4  H   UNL     1     -11.122  15.211  72.580  1.00  0.00     0.000 HD 
HETATM    5  O   UNL     1     -14.098  15.664  71.541  1.00  0.00    -0.507 OA 
ENDROOT
BRANCH   3   6
HETATM    6  C   UNL     1     -12.377  14.520  70.413  1.00  0.00    -0.400 A  
HETATM    7  C   UNL     1     -11.858  15.225  69.314  1.00  0.00    -0.353 A  
HETATM    8  C   UNL     1     -11.399  14.545  68.177  1.00  0.00    -0.319 A  
HETATM    9  C   UNL     1     -11.463  13.147  68.119  1.00  0.00    -0.349 A  
HETATM   10  C   UNL     1     -11.925  12.439  69.232  1.00  0.00    -0.308 A  
HETATM   11  F   UNL     1     -12.856  12.392  71.377  1.00  0.00    -0.441 F  
HETATM   12  C   UNL     1     -12.384  13.126  70.358  1.00  0.00    -0.279 A  
BRANCH   9  13
HETATM   13  C   UNL     1     -11.103  12.449  66.853  1.00  0.00    -0.287 C  
HETATM   14  N   UNL     1     -10.030  11.709  66.775  1.00  0.00    -0.202 NA 
HETATM   15  N   UNL     1      -9.818  11.210  65.515  1.00  0.00    -0.222 NA 
HETATM   16  C   UNL     1      -8.780  10.403  65.110  1.00  0.00    -0.181 A  
HETATM   17  C   UNL     1     -12.000  12.670  65.644  1.00  0.00    -0.452 C  
HETATM   18  C   UNL     1      -8.967  10.241  63.755  1.00  0.00    -0.239 A  
HETATM   19  N   UNL     1     -10.104  10.867  63.328  1.00  0.00    -0.337 NA 
HETATM   20  N   UNL     1     -11.760  12.174  64.477  1.00  0.00    -0.348 NA 
HETATM   21  C   UNL     1     -10.622  11.437  64.395  1.00  0.00    -0.341 A  
BRANCH  16  22
HETATM   22  C   UNL     1      -7.761   9.817  66.017  1.00  0.00    -0.104 C  
BRANCH  22  23
HETATM   23  C   UNL     1      -7.973   8.355  66.332  1.00  0.00    -0.099 A  
HETATM   24  C   UNL     1      -9.290   6.333  66.091  1.00  0.00    -0.117 A  
HETATM   25  C   UNL     1      -9.112   7.699  65.859  1.00  0.00    -0.101 A  
HETATM   26  C   UNL     1      -8.376   5.588  66.819  1.00  0.00    -0.108 A  
HETATM   27  N   UNL     1      -8.609   4.278  67.020  1.00  0.00    -0.104 NA 
HETATM   28  C   UNL     1      -7.727   3.586  67.771  1.00  0.00    -0.069 A  
HETATM   29  C   UNL     1      -6.599   4.143  68.342  1.00  0.00    -0.046 A  
HETATM   30  C   UNL     1      -6.348   5.491  68.111  1.00  0.00    -0.042 A  
HETATM   31  C   UNL     1      -7.241   6.247  67.337  1.00  0.00    -0.075 A  
HETATM   32  C   UNL     1      -7.040   7.620  67.078  1.00  0.00    -0.084 A  
ENDBRANCH  22  23
ENDBRANCH  16  22
ENDBRANCH   9  13
ENDBRANCH   3   6
TORSDOF 4
ENDMDL
MODEL       82
REMARK 921   NORMALIZED FREE ENERGY PREDICTED BY IDOCK:   -6.29 KCAL/MOL
REMARK 922        TOTAL FREE ENERGY PREDICTED BY IDOCK:   -8.43 KCAL/MOL
REMARK 923 INTER-LIGAND FREE ENERGY PREDICTED BY IDOCK:   -7.90 KCAL/MOL
REMARK 924 INTRA-LIGAND FREE ENERGY PREDICTED BY IDOCK:   -0.52 KCAL/MOL
REMARK 927      BINDING AFFINITY PREDICTED BY RF-SCORE:    0.00 PKD
ROOT
HETATM    1  C   UNL     1      -9.034   5.157  70.655  1.00  0.00    -0.132 C  
HETATM    2  N   UNL     1      -9.427   6.368  69.979  1.00  0.00    -0.155 N  
HETATM    3  C   UNL     1      -9.691   6.386  68.627  1.00  0.00    -0.123 C  
HETATM    4  H   UNL     1      -9.513   7.232  70.513  1.00  0.00     0.000 HD 
HETATM    5  O   UNL     1      -9.656   5.378  67.928  1.00  0.00    -0.120 OA 
ENDROOT
BRANCH   3   6
HETATM    6  C   UNL     1     -10.001   7.706  68.006  1.00  0.00    -0.208 A  
HETATM    7  C   UNL     1      -9.621   7.938  66.674  1.00  0.00    -0.293 A  
HETATM    8  C   UNL     1      -9.824   9.192  66.079  1.00  0.00    -0.342 A  
HETATM    9  C   UNL     1     -10.401  10.235  66.813  1.00  0.00    -0.288 A  
HETATM   10  C   UNL     1     -10.832   9.992  68.120  1.00  0.00    -0.303 A  
HETATM   11  F   UNL     1     -11.019   8.584  69.977  1.00  0.00    -0.239 F  
HETATM   12  C   UNL     1     -10.622   8.742  68.705  1.00  0.00    -0.145 A  
BRANCH   9  13
HETATM   13  C   UNL     1     -10.481  11.597  66.212  1.00  0.00    -0.246 C  
HETATM   14  N   UNL     1     -10.576  12.659  66.965  1.00  0.00    -0.238 NA 
HETATM   15  N   UNL     1     -10.716  13.814  66.240  1.00  0.00    -0.284 NA 
HETATM   16  C   UNL     1     -10.843  15.091  66.737  1.00  0.00    -0.318 A  
HETATM   17  C   UNL     1     -10.498  11.699  64.693  1.00  0.00    -0.302 C  
HETATM   18  C   UNL     1     -11.033  15.884  65.627  1.00  0.00    -0.203 A  
HETATM   19  N   UNL     1     -10.970  15.155  64.474  1.00  0.00    -0.275 NA 
HETATM   20  N   UNL     1     -10.628  12.815  64.056  1.00  0.00    -0.414 NA 
HETATM   21  C   UNL     1     -10.765  13.910  64.847  1.00  0.00    -0.410 A  
BRANCH  16  22
HETATM   22  C   UNL     1     -10.717  15.457  68.171  1.00  0.00    -0.271 C  
BRANCH  22  23
HETATM   23  C   UNL     1      -9.398  16.095  68.538  1.00  0.00    -0.209 A  
HETATM   24  C   UNL     1      -7.110  15.875  69.310  1.00  0.00    -0.206 A  
HETATM   25  C   UNL     1      -8.354  15.307  69.025  1.00  0.00    -0.215 A  
HETATM   26  C   UNL     1      -6.872  17.232  69.156  1.00  0.00    -0.234 A  
HETATM   27  N   UNL     1      -5.656  17.722  69.459  1.00  0.00    -0.205 NA 
HETATM   28  C   UNL     1      -5.464  19.053  69.344  1.00  0.00    -0.200 A  
HETATM   29  C   UNL     1      -6.441  19.939  68.933  1.00  0.00    -0.347 A  
HETATM   30  C   UNL     1      -7.689  19.424  68.596  1.00  0.00    -0.394 A  
HETATM   31  C   UNL     1      -7.930  18.046  68.703  1.00  0.00    -0.303 A  
HETATM   32  C   UNL     1      -9.179  17.472  68.383  1.00  0.00    -0.279 A  
ENDBRANCH  22  23
ENDBRANCH  16  22
ENDBRANCH   9  13
ENDBRANCH   3   6
TORSDOF 4
ENDMDL
MODEL       83
REMARK 921   NORMALIZED FREE ENERGY PREDICTED BY IDOCK:   -6.29 KCAL/MOL
REMARK 922        TOTAL FREE ENERGY PREDICTED BY IDOCK:   -8.42 KCAL/MOL
REMARK 923 INTER-LIGAND FREE ENERGY PREDICTED BY IDOCK:   -7.58 KCAL/MOL
REMARK 924 INTRA-LIGAND FREE ENERGY PREDICTED BY IDOCK:   -0.84 KCAL/MOL
REMARK 927      BINDING AFFINITY PREDICTED BY RF-SCORE:    0.00 PKD
ROOT
HETATM    1  C   UNL     1      -8.050   5.594  63.425  1.00  0.00    -0.105 C  
HETATM    2  N   UNL     1      -8.594   6.693  64.182  1.00  0.00    -0.302 N  
HETATM    3  C   UNL     1      -8.005   7.938  64.171  1.00  0.00    -0.125 C  
HETATM    4  H   UNL     1      -9.435   6.546  64.740  1.00  0.00     0.000 HD 
HETATM    5  O   UNL     1      -7.021   8.203  63.487  1.00  0.00    -0.081 OA 
ENDROOT
BRANCH   3   6
HETATM    6  C   UNL     1      -8.593   8.983  65.059  1.00  0.00    -0.207 A  
HETATM    7  C   UNL     1      -8.382   8.894  66.445  1.00  0.00    -0.117 A  
HETATM    8  C   UNL     1      -8.982   9.811  67.321  1.00  0.00    -0.146 A  
HETATM    9  C   UNL     1      -9.810  10.824  66.822  1.00  0.00    -0.233 A  
HETATM   10  C   UNL     1      -9.976  10.949  65.440  1.00  0.00    -0.319 A  
HETATM   11  F   UNL     1      -9.611  10.178  63.263  1.00  0.00    -0.308 F  
HETATM   12  C   UNL     1      -9.379  10.030  64.576  1.00  0.00    -0.286 A  
BRANCH   9  13
HETATM   13  C   UNL     1     -10.549  11.701  67.774  1.00  0.00    -0.194 C  
HETATM   14  N   UNL     1     -10.665  12.983  67.555  1.00  0.00    -0.236 NA 
HETATM   15  N   UNL     1     -11.308  13.640  68.572  1.00  0.00    -0.270 NA 
HETATM   16  C   UNL     1     -11.583  14.986  68.642  1.00  0.00    -0.325 A  
HETATM   17  C   UNL     1     -11.119  11.058  69.030  1.00  0.00    -0.244 C  
HETATM   18  C   UNL     1     -12.165  15.164  69.878  1.00  0.00    -0.314 A  
HETATM   19  N   UNL     1     -12.308  13.977  70.539  1.00  0.00    -0.346 NA 
HETATM   20  N   UNL     1     -11.722  11.721  69.959  1.00  0.00    -0.323 NA 
HETATM   21  C   UNL     1     -11.804  13.059  69.742  1.00  0.00    -0.311 A  
BRANCH  16  22
HETATM   22  C   UNL     1     -11.337  15.957  67.546  1.00  0.00    -0.098 C  
BRANCH  22  23
HETATM   23  C   UNL     1      -9.941  16.533  67.525  1.00  0.00    -0.255 A  
HETATM   24  C   UNL     1      -7.662  16.466  66.695  1.00  0.00    -0.310 A  
HETATM   25  C   UNL     1      -8.942  15.910  66.773  1.00  0.00    -0.280 A  
HETATM   26  C   UNL     1      -7.325  17.624  67.379  1.00  0.00    -0.185 A  
HETATM   27  N   UNL     1      -6.072  18.104  67.275  1.00  0.00    -0.151 NA 
HETATM   28  C   UNL     1      -5.756  19.207  67.985  1.00  0.00    -0.192 A  
HETATM   29  C   UNL     1      -6.643  19.871  68.810  1.00  0.00    -0.355 A  
HETATM   30  C   UNL     1      -7.944  19.387  68.895  1.00  0.00    -0.360 A  
HETATM   31  C   UNL     1      -8.313  18.241  68.173  1.00  0.00    -0.296 A  
HETATM   32  C   UNL     1      -9.615  17.702  68.229  1.00  0.00    -0.306 A  
ENDBRANCH  22  23
ENDBRANCH  16  22
ENDBRANCH   9  13
ENDBRANCH   3   6
TORSDOF 4
ENDMDL
MODEL       84
REMARK 921   NORMALIZED FREE ENERGY PREDICTED BY IDOCK:   -6.28 KCAL/MOL
REMARK 922        TOTAL FREE ENERGY PREDICTED BY IDOCK:   -8.40 KCAL/MOL
REMARK 923 INTER-LIGAND FREE ENERGY PREDICTED BY IDOCK:   -7.48 KCAL/MOL
REMARK 924 INTRA-LIGAND FREE ENERGY PREDICTED BY IDOCK:   -0.92 KCAL/MOL
REMARK 927      BINDING AFFINITY PREDICTED BY RF-SCORE:    0.00 PKD
ROOT
HETATM    1  C   UNL     1      -6.012   6.650  71.066  1.00  0.00    -0.028 C  
HETATM    2  N   UNL     1      -6.831   7.442  70.184  1.00  0.00    -0.054 N  
HETATM    3  C   UNL     1      -7.250   6.961  68.963  1.00  0.00    -0.091 C  
HETATM    4  H   UNL     1      -7.108   8.381  70.470  1.00  0.00     0.000 HD 
HETATM    5  O   UNL     1      -6.998   5.826  68.572  1.00  0.00    -0.063 OA 
ENDROOT
BRANCH   3   6
HETATM    6  C   UNL     1      -8.018   7.892  68.086  1.00  0.00    -0.125 A  
HETATM    7  C   UNL     1      -7.326   8.896  67.388  1.00  0.00    -0.081 A  
HETATM    8  C   UNL     1      -8.018   9.839  66.616  1.00  0.00    -0.112 A  
HETATM    9  C   UNL     1      -9.416   9.798  66.539  1.00  0.00    -0.228 A  
HETATM   10  C   UNL     1     -10.103   8.768  67.186  1.00  0.00    -0.320 A  
HETATM   11  F   UNL     1     -10.127   6.896  68.587  1.00  0.00    -0.147 F  
HETATM   12  C   UNL     1      -9.406   7.835  67.956  1.00  0.00    -0.141 A  
BRANCH   9  13
HETATM   13  C   UNL     1     -10.143  10.889  65.830  1.00  0.00    -0.252 C  
HETATM   14  N   UNL     1     -10.675  11.881  66.491  1.00  0.00    -0.247 NA 
HETATM   15  N   UNL     1     -11.368  12.747  65.684  1.00  0.00    -0.307 NA 
HETATM   16  C   UNL     1     -12.040  13.882  66.075  1.00  0.00    -0.437 A  
HETATM   17  C   UNL     1     -10.285  10.778  64.319  1.00  0.00    -0.354 C  
HETATM   18  C   UNL     1     -12.631  14.356  64.924  1.00  0.00    -0.286 A  
HETATM   19  N   UNL     1     -12.302  13.592  63.841  1.00  0.00    -0.696 NA 
HETATM   20  N   UNL     1     -10.945  11.624  63.601  1.00  0.00    -0.413 NA 
HETATM   21  C   UNL     1     -11.528  12.632  64.301  1.00  0.00    -0.363 A  
BRANCH  16  22
HETATM   22  C   UNL     1     -12.021  14.445  67.449  1.00  0.00    -0.407 C  
BRANCH  22  23
HETATM   23  C   UNL     1     -10.799  15.276  67.765  1.00  0.00    -0.295 A  
HETATM   24  C   UNL     1      -9.652  17.412  67.718  1.00  0.00    -0.264 A  
HETATM   25  C   UNL     1     -10.749  16.616  67.378  1.00  0.00    -0.253 A  
HETATM   26  C   UNL     1      -8.566  16.903  68.414  1.00  0.00    -0.240 A  
HETATM   27  N   UNL     1      -7.533  17.716  68.701  1.00  0.00    -0.265 NA 
HETATM   28  C   UNL     1      -6.469  17.185  69.340  1.00  0.00    -0.233 A  
HETATM   29  C   UNL     1      -6.381  15.859  69.716  1.00  0.00    -0.175 A  
HETATM   30  C   UNL     1      -7.461  15.028  69.440  1.00  0.00    -0.196 A  
HETATM   31  C   UNL     1      -8.587  15.540  68.777  1.00  0.00    -0.188 A  
HETATM   32  C   UNL     1      -9.707  14.741  68.464  1.00  0.00    -0.218 A  
ENDBRANCH  22  23
ENDBRANCH  16  22
ENDBRANCH   9  13
ENDBRANCH   3   6
TORSDOF 4
ENDMDL
MODEL       85
REMARK 921   NORMALIZED FREE ENERGY PREDICTED BY IDOCK:   -6.27 KCAL/MOL
REMARK 922        TOTAL FREE ENERGY PREDICTED BY IDOCK:   -8.40 KCAL/MOL
REMARK 923 INTER-LIGAND FREE ENERGY PREDICTED BY IDOCK:   -7.47 KCAL/MOL
REMARK 924 INTRA-LIGAND FREE ENERGY PREDICTED BY IDOCK:   -0.93 KCAL/MOL
REMARK 927      BINDING AFFINITY PREDICTED BY RF-SCORE:    0.00 PKD
ROOT
HETATM    1  C   UNL     1      -9.761   3.913  68.382  1.00  0.00    -0.045 C  
HETATM    2  N   UNL     1     -10.083   5.258  68.790  1.00  0.00    -0.181 N  
HETATM    3  C   UNL     1     -10.322   5.573  70.110  1.00  0.00    -0.284 C  
HETATM    4  H   UNL     1     -10.137   5.993  68.086  1.00  0.00     0.000 HD 
HETATM    5  O   UNL     1     -10.229   4.754  71.018  1.00  0.00    -0.214 OA 
ENDROOT
BRANCH   3   6
HETATM    6  C   UNL     1     -10.737   6.973  70.415  1.00  0.00    -0.259 A  
HETATM    7  C   UNL     1     -11.995   7.198  70.999  1.00  0.00    -0.387 A  
HETATM    8  C   UNL     1     -12.455   8.502  71.230  1.00  0.00    -0.275 A  
HETATM    9  C   UNL     1     -11.667   9.602  70.871  1.00  0.00    -0.412 A  
HETATM   10  C   UNL     1     -10.391   9.382  70.343  1.00  0.00    -0.318 A  
HETATM   11  F   UNL     1      -8.728   7.936  69.562  1.00  0.00    -0.130 F  
HETATM   12  C   UNL     1      -9.943   8.080  70.112  1.00  0.00    -0.191 A  
BRANCH   9  13
HETATM   13  C   UNL     1     -12.227  10.977  70.994  1.00  0.00    -0.351 C  
HETATM   14  N   UNL     1     -11.930  11.904  70.123  1.00  0.00    -0.346 NA 
HETATM   15  N   UNL     1     -12.474  13.123  70.438  1.00  0.00    -0.256 NA 
HETATM   16  C   UNL     1     -12.345  14.293  69.727  1.00  0.00    -0.292 A  
HETATM   17  C   UNL     1     -13.115  11.274  72.194  1.00  0.00    -0.167 C  
HETATM   18  C   UNL     1     -12.999  15.240  70.484  1.00  0.00    -0.333 A  
HETATM   19  N   UNL     1     -13.569  14.687  71.595  1.00  0.00    -0.366 NA 
HETATM   20  N   UNL     1     -13.608  12.441  72.445  1.00  0.00    -0.356 NA 
HETATM   21  C   UNL     1     -13.262  13.408  71.556  1.00  0.00    -0.312 A  
BRANCH  16  22
HETATM   22  C   UNL     1     -11.687  14.408  68.400  1.00  0.00    -0.367 C  
BRANCH  22  23
HETATM   23  C   UNL     1     -10.191  14.610  68.462  1.00  0.00    -0.240 A  
HETATM   24  C   UNL     1      -8.288  15.991  69.056  1.00  0.00    -0.243 A  
HETATM   25  C   UNL     1      -9.669  15.815  68.936  1.00  0.00    -0.225 A  
HETATM   26  C   UNL     1      -7.389  15.005  68.682  1.00  0.00    -0.118 A  
HETATM   27  N   UNL     1      -6.070  15.239  68.809  1.00  0.00    -0.086 NA 
HETATM   28  C   UNL     1      -5.215  14.280  68.396  1.00  0.00    -0.105 A  
HETATM   29  C   UNL     1      -5.615  13.075  67.852  1.00  0.00    -0.123 A  
HETATM   30  C   UNL     1      -6.979  12.827  67.747  1.00  0.00    -0.131 A  
HETATM   31  C   UNL     1      -7.902  13.798  68.164  1.00  0.00    -0.149 A  
HETATM   32  C   UNL     1      -9.296  13.603  68.071  1.00  0.00    -0.208 A  
ENDBRANCH  22  23
ENDBRANCH  16  22
ENDBRANCH   9  13
ENDBRANCH   3   6
TORSDOF 4
ENDMDL
MODEL       86
REMARK 921   NORMALIZED FREE ENERGY PREDICTED BY IDOCK:   -6.25 KCAL/MOL
REMARK 922        TOTAL FREE ENERGY PREDICTED BY IDOCK:   -8.37 KCAL/MOL
REMARK 923 INTER-LIGAND FREE ENERGY PREDICTED BY IDOCK:   -7.51 KCAL/MOL
REMARK 924 INTRA-LIGAND FREE ENERGY PREDICTED BY IDOCK:   -0.86 KCAL/MOL
REMARK 927      BINDING AFFINITY PREDICTED BY RF-SCORE:    0.00 PKD
ROOT
HETATM    1  C   UNL     1     -14.266   8.630  72.441  1.00  0.00    -0.363 C  
HETATM    2  N   UNL     1     -13.432   8.123  71.381  1.00  0.00    -0.505 N  
HETATM    3  C   UNL     1     -12.109   7.804  71.594  1.00  0.00    -0.304 C  
HETATM    4  H   UNL     1     -13.830   7.997  70.451  1.00  0.00     0.000 HD 
HETATM    5  O   UNL     1     -11.574   7.883  72.695  1.00  0.00    -0.376 OA 
ENDROOT
BRANCH   3   6
HETATM    6  C   UNL     1     -11.309   7.373  70.411  1.00  0.00    -0.273 A  
HETATM    7  C   UNL     1     -11.004   8.317  69.416  1.00  0.00    -0.013 A  
HETATM    8  C   UNL     1     -10.322   7.935  68.252  1.00  0.00    -0.239 A  
HETATM    9  C   UNL     1      -9.943   6.601  68.062  1.00  0.00    -0.157 A  
HETATM   10  C   UNL     1     -10.194   5.671  69.075  1.00  0.00    -0.291 A  
HETATM   11  F   UNL     1     -11.127   5.111  71.144  1.00  0.00    -0.204 F  
HETATM   12  C   UNL     1     -10.878   6.059  70.228  1.00  0.00    -0.329 A  
BRANCH   9  13
HETATM   13  C   UNL     1      -9.346   6.186  66.761  1.00  0.00    -0.140 C  
HETATM   14  N   UNL     1      -8.759   7.057  65.984  1.00  0.00    -0.147 NA 
HETATM   15  N   UNL     1      -8.338   6.512  64.798  1.00  0.00    -0.073 NA 
HETATM   16  C   UNL     1      -7.692   7.163  63.773  1.00  0.00    -0.119 A  
HETATM   17  C   UNL     1      -9.489   4.728  66.350  1.00  0.00    -0.158 C  
HETATM   18  C   UNL     1      -7.555   6.215  62.783  1.00  0.00    -0.079 A  
HETATM   19  N   UNL     1      -8.039   5.001  63.182  1.00  0.00    -0.092 NA 
HETATM   20  N   UNL     1      -9.071   4.262  65.221  1.00  0.00    -0.135 NA 
HETATM   21  C   UNL     1      -8.496   5.181  64.402  1.00  0.00    -0.138 A  
BRANCH  16  22
HETATM   22  C   UNL     1      -7.215   8.568  63.832  1.00  0.00    -0.097 C  
BRANCH  22  23
HETATM   23  C   UNL     1      -8.315   9.603  63.774  1.00  0.00    -0.173 A  
HETATM   24  C   UNL     1      -9.743  11.068  62.471  1.00  0.00    -0.149 A  
HETATM   25  C   UNL     1      -8.686  10.157  62.547  1.00  0.00    -0.230 A  
HETATM   26  C   UNL     1     -10.434  11.482  63.598  1.00  0.00    -0.427 A  
HETATM   27  N   UNL     1     -11.434  12.372  63.463  1.00  0.00    -0.470 NA 
HETATM   28  C   UNL     1     -12.063  12.793  64.581  1.00  0.00    -0.423 A  
HETATM   29  C   UNL     1     -11.740  12.362  65.853  1.00  0.00    -0.476 A  
HETATM   30  C   UNL     1     -10.723  11.423  65.986  1.00  0.00    -0.318 A  
HETATM   31  C   UNL     1     -10.044  10.960  64.849  1.00  0.00    -0.374 A  
HETATM   32  C   UNL     1      -8.999  10.015  64.927  1.00  0.00    -0.241 A  
ENDBRANCH  22  23
ENDBRANCH  16  22
ENDBRANCH   9  13
ENDBRANCH   3   6
TORSDOF 4
ENDMDL
MODEL       87
REMARK 921   NORMALIZED FREE ENERGY PREDICTED BY IDOCK:   -6.20 KCAL/MOL
REMARK 922        TOTAL FREE ENERGY PREDICTED BY IDOCK:   -8.31 KCAL/MOL
REMARK 923 INTER-LIGAND FREE ENERGY PREDICTED BY IDOCK:   -7.31 KCAL/MOL
REMARK 924 INTRA-LIGAND FREE ENERGY PREDICTED BY IDOCK:   -1.00 KCAL/MOL
REMARK 927      BINDING AFFINITY PREDICTED BY RF-SCORE:    0.00 PKD
ROOT
HETATM    1  C   UNL     1      -7.995   7.833  70.961  1.00  0.00    -0.090 C  
HETATM    2  N   UNL     1      -7.926   9.228  70.604  1.00  0.00    -0.154 N  
HETATM    3  C   UNL     1      -7.063   9.682  69.632  1.00  0.00    -0.075 C  
HETATM    4  H   UNL     1      -8.531   9.895  71.083  1.00  0.00     0.000 HD 
HETATM    5  O   UNL     1      -6.341   8.935  68.980  1.00  0.00    -0.043 OA 
ENDROOT
BRANCH   3   6
HETATM    6  C   UNL     1      -7.003  11.155  69.401  1.00  0.00    -0.124 A  
HETATM    7  C   UNL     1      -6.051  11.915  70.100  1.00  0.00    -0.137 A  
HETATM    8  C   UNL     1      -6.013  13.311  69.971  1.00  0.00    -0.134 A  
HETATM    9  C   UNL     1      -6.936  13.968  69.148  1.00  0.00    -0.103 A  
HETATM   10  C   UNL     1      -7.848  13.210  68.408  1.00  0.00    -0.135 A  
HETATM   11  F   UNL     1      -8.808  11.155  67.842  1.00  0.00    -0.126 F  
HETATM   12  C   UNL     1      -7.881  11.822  68.546  1.00  0.00    -0.144 A  
BRANCH   9  13
HETATM   13  C   UNL     1      -6.973  15.457  69.131  1.00  0.00    -0.154 C  
HETATM   14  N   UNL     1      -8.072  16.099  68.840  1.00  0.00    -0.216 NA 
HETATM   15  N   UNL     1      -7.898  17.459  68.798  1.00  0.00    -0.267 NA 
HETATM   16  C   UNL     1      -8.857  18.405  68.518  1.00  0.00    -0.314 A  
HETATM   17  C   UNL     1      -5.674  16.200  69.416  1.00  0.00    -0.128 C  
HETATM   18  C   UNL     1      -8.179  19.605  68.521  1.00  0.00    -0.297 A  
HETATM   19  N   UNL     1      -6.863  19.436  68.846  1.00  0.00    -0.320 NA 
HETATM   20  N   UNL     1      -5.563  17.485  69.369  1.00  0.00    -0.192 NA 
HETATM   21  C   UNL     1      -6.701  18.143  69.027  1.00  0.00    -0.254 A  
BRANCH  16  22
HETATM   22  C   UNL     1     -10.302  18.117  68.336  1.00  0.00    -0.371 C  
BRANCH  22  23
HETATM   23  C   UNL     1     -10.599  17.029  67.332  1.00  0.00    -0.289 A  
HETATM   24  C   UNL     1     -10.674  16.271  65.029  1.00  0.00    -0.319 A  
HETATM   25  C   UNL     1     -10.462  17.286  65.966  1.00  0.00    -0.285 A  
HETATM   26  C   UNL     1     -11.057  14.994  65.408  1.00  0.00    -0.374 A  
HETATM   27  N   UNL     1     -11.259  14.062  64.458  1.00  0.00    -0.369 NA 
HETATM   28  C   UNL     1     -11.675  12.839  64.850  1.00  0.00    -0.352 A  
HETATM   29  C   UNL     1     -11.904  12.489  66.166  1.00  0.00    -0.459 A  
HETATM   30  C   UNL     1     -11.669  13.447  67.146  1.00  0.00    -0.424 A  
HETATM   31  C   UNL     1     -11.237  14.732  66.782  1.00  0.00    -0.344 A  
HETATM   32  C   UNL     1     -10.993  15.744  67.733  1.00  0.00    -0.314 A  
ENDBRANCH  22  23
ENDBRANCH  16  22
ENDBRANCH   9  13
ENDBRANCH   3   6
TORSDOF 4
ENDMDL
MODEL       88
REMARK 921   NORMALIZED FREE ENERGY PREDICTED BY IDOCK:   -6.18 KCAL/MOL
REMARK 922        TOTAL FREE ENERGY PREDICTED BY IDOCK:   -8.28 KCAL/MOL
REMARK 923 INTER-LIGAND FREE ENERGY PREDICTED BY IDOCK:   -7.40 KCAL/MOL
REMARK 924 INTRA-LIGAND FREE ENERGY PREDICTED BY IDOCK:   -0.88 KCAL/MOL
REMARK 927      BINDING AFFINITY PREDICTED BY RF-SCORE:    0.00 PKD
ROOT
HETATM    1  C   UNL     1     -11.037   2.034  62.633  1.00  0.00    -0.223 C  
HETATM    2  N   UNL     1     -10.807   2.646  63.918  1.00  0.00    -0.463 N  
HETATM    3  C   UNL     1      -9.557   3.086  64.294  1.00  0.00    -0.149 C  
HETATM    4  H   UNL     1     -11.588   2.755  64.564  1.00  0.00     0.000 HD 
HETATM    5  O   UNL     1      -8.581   3.031  63.552  1.00  0.00    -0.089 OA 
ENDROOT
BRANCH   3   6
HETATM    6  C   UNL     1      -9.406   3.621  65.678  1.00  0.00    -0.162 A  
HETATM    7  C   UNL     1      -9.350   2.719  66.753  1.00  0.00    -0.070 A  
HETATM    8  C   UNL     1      -9.288   3.184  68.075  1.00  0.00    -0.248 A  
HETATM    9  C   UNL     1      -9.291   4.559  68.340  1.00  0.00    -0.194 A  
HETATM   10  C   UNL     1      -9.289   5.458  67.270  1.00  0.00    -0.118 A  
HETATM   11  F   UNL     1      -9.395   5.901  64.977  1.00  0.00     0.038 F  
HETATM   12  C   UNL     1      -9.356   4.987  65.958  1.00  0.00    -0.157 A  
BRANCH   9  13
HETATM   13  C   UNL     1      -9.365   5.033  69.751  1.00  0.00    -0.134 C  
HETATM   14  N   UNL     1     -10.327   5.824  70.143  1.00  0.00    -0.233 NA 
HETATM   15  N   UNL     1     -10.191   6.218  71.450  1.00  0.00    -0.198 NA 
HETATM   16  C   UNL     1     -11.033   7.047  72.154  1.00  0.00    -0.234 A  
HETATM   17  C   UNL     1      -8.256   4.604  70.700  1.00  0.00    -0.083 C  
HETATM   18  C   UNL     1     -10.432   7.199  73.384  1.00  0.00    -0.368 A  
HETATM   19  N   UNL     1      -9.291   6.454  73.479  1.00  0.00    -0.132 NA 
HETATM   20  N   UNL     1      -8.175   5.000  71.927  1.00  0.00    -0.114 NA 
HETATM   21  C   UNL     1      -9.157   5.853  72.316  1.00  0.00    -0.141 A  
BRANCH  16  22
HETATM   22  C   UNL     1     -12.330   7.565  71.647  1.00  0.00    -0.362 C  
BRANCH  22  23
HETATM   23  C   UNL     1     -12.320   9.034  71.296  1.00  0.00    -0.361 A  
HETATM   24  C   UNL     1     -13.079  11.295  71.735  1.00  0.00    -0.527 A  
HETATM   25  C   UNL     1     -13.125   9.925  72.008  1.00  0.00    -0.545 A  
HETATM   26  C   UNL     1     -12.272  11.816  70.736  1.00  0.00    -0.326 A  
HETATM   27  N   UNL     1     -12.281  13.143  70.512  1.00  0.00    -0.361 NA 
HETATM   28  C   UNL     1     -11.520  13.619  69.504  1.00  0.00    -0.263 A  
HETATM   29  C   UNL     1     -10.732  12.825  68.693  1.00  0.00    -0.273 A  
HETATM   30  C   UNL     1     -10.705  11.458  68.946  1.00  0.00    -0.248 A  
HETATM   31  C   UNL     1     -11.483  10.922  69.983  1.00  0.00    -0.411 A  
HETATM   32  C   UNL     1     -11.501   9.542  70.277  1.00  0.00    -0.256 A  
ENDBRANCH  22  23
ENDBRANCH  16  22
ENDBRANCH   9  13
ENDBRANCH   3   6
TORSDOF 4
ENDMDL
MODEL       89
REMARK 921   NORMALIZED FREE ENERGY PREDICTED BY IDOCK:   -6.14 KCAL/MOL
REMARK 922        TOTAL FREE ENERGY PREDICTED BY IDOCK:   -8.24 KCAL/MOL
REMARK 923 INTER-LIGAND FREE ENERGY PREDICTED BY IDOCK:   -7.89 KCAL/MOL
REMARK 924 INTRA-LIGAND FREE ENERGY PREDICTED BY IDOCK:   -0.35 KCAL/MOL
REMARK 927      BINDING AFFINITY PREDICTED BY RF-SCORE:    0.00 PKD
ROOT
HETATM    1  C   UNL     1      -7.380   5.041  68.022  1.00  0.00    -0.075 C  
HETATM    2  N   UNL     1      -7.983   6.290  67.628  1.00  0.00    -0.112 N  
HETATM    3  C   UNL     1      -8.573   6.448  66.393  1.00  0.00    -0.134 C  
HETATM    4  H   UNL     1      -7.974   7.075  68.279  1.00  0.00     0.000 HD 
HETATM    5  O   UNL     1      -8.665   5.537  65.577  1.00  0.00    -0.149 OA 
ENDROOT
BRANCH   3   6
HETATM    6  C   UNL     1      -9.087   7.805  66.048  1.00  0.00    -0.169 A  
HETATM    7  C   UNL     1      -8.513   8.496  64.967  1.00  0.00    -0.183 A  
HETATM    8  C   UNL     1      -8.914   9.803  64.659  1.00  0.00    -0.270 A  
HETATM    9  C   UNL     1      -9.888  10.444  65.435  1.00  0.00    -0.347 A  
HETATM   10  C   UNL     1     -10.501   9.740  66.475  1.00  0.00    -0.212 A  
HETATM   11  F   UNL     1     -10.689   7.833  67.815  1.00  0.00    -0.281 F  
HETATM   12  C   UNL     1     -10.093   8.440  66.778  1.00  0.00    -0.303 A  
BRANCH   9  13
HETATM   13  C   UNL     1     -10.200  11.879  65.181  1.00  0.00    -0.277 C  
HETATM   14  N   UNL     1      -9.701  12.819  65.938  1.00  0.00    -0.237 NA 
HETATM   15  N   UNL     1     -10.157  14.068  65.605  1.00  0.00    -0.324 NA 
HETATM   16  C   UNL     1      -9.824  15.258  66.209  1.00  0.00    -0.294 A  
HETATM   17  C   UNL     1     -11.158  12.204  64.044  1.00  0.00    -0.386 C  
HETATM   18  C   UNL     1     -10.594  16.206  65.572  1.00  0.00    -0.377 A  
HETATM   19  N   UNL     1     -11.339  15.654  64.569  1.00  0.00    -0.387 NA 
HETATM   20  N   UNL     1     -11.555  13.400  63.766  1.00  0.00    -0.365 NA 
HETATM   21  C   UNL     1     -11.062  14.368  64.582  1.00  0.00    -0.354 A  
BRANCH  16  22
HETATM   22  C   UNL     1      -8.791  15.409  67.266  1.00  0.00    -0.212 C  
BRANCH  22  23
HETATM   23  C   UNL     1      -7.986  16.683  67.172  1.00  0.00    -0.212 A  
HETATM   24  C   UNL     1      -6.836  18.338  65.822  1.00  0.00    -0.310 A  
HETATM   25  C   UNL     1      -7.529  17.129  65.930  1.00  0.00     0.014 A  
HETATM   26  C   UNL     1      -6.546  19.117  66.930  1.00  0.00    -0.195 A  
HETATM   27  N   UNL     1      -5.864  20.265  66.764  1.00  0.00    -0.173 NA 
HETATM   28  C   UNL     1      -5.554  20.983  67.864  1.00  0.00    -0.311 A  
HETATM   29  C   UNL     1      -5.899  20.609  69.148  1.00  0.00    -0.395 A  
HETATM   30  C   UNL     1      -6.626  19.435  69.314  1.00  0.00    -0.361 A  
HETATM   31  C   UNL     1      -6.967  18.659  68.196  1.00  0.00    -0.257 A  
HETATM   32  C   UNL     1      -7.695  17.455  68.307  1.00  0.00    -0.241 A  
ENDBRANCH  22  23
ENDBRANCH  16  22
ENDBRANCH   9  13
ENDBRANCH   3   6
TORSDOF 4
ENDMDL
MODEL       90
REMARK 921   NORMALIZED FREE ENERGY PREDICTED BY IDOCK:   -6.08 KCAL/MOL
REMARK 922        TOTAL FREE ENERGY PREDICTED BY IDOCK:   -8.16 KCAL/MOL
REMARK 923 INTER-LIGAND FREE ENERGY PREDICTED BY IDOCK:   -7.70 KCAL/MOL
REMARK 924 INTRA-LIGAND FREE ENERGY PREDICTED BY IDOCK:   -0.46 KCAL/MOL
REMARK 927      BINDING AFFINITY PREDICTED BY RF-SCORE:    0.00 PKD
ROOT
HETATM    1  C   UNL     1      -9.551   5.792  66.292  1.00  0.00    -0.134 C  
HETATM    2  N   UNL     1      -9.465   7.223  66.442  1.00  0.00    -0.306 N  
HETATM    3  C   UNL     1      -8.424   7.944  65.900  1.00  0.00    -0.138 C  
HETATM    4  H   UNL     1     -10.191   7.713  66.963  1.00  0.00     0.000 HD 
HETATM    5  O   UNL     1      -7.541   7.430  65.221  1.00  0.00    -0.086 OA 
ENDROOT
BRANCH   3   6
HETATM    6  C   UNL     1      -8.379   9.406  66.190  1.00  0.00    -0.118 A  
HETATM    7  C   UNL     1      -7.328   9.912  66.973  1.00  0.00    -0.091 A  
HETATM    8  C   UNL     1      -7.291  11.267  67.333  1.00  0.00    -0.115 A  
HETATM    9  C   UNL     1      -8.312  12.133  66.923  1.00  0.00    -0.151 A  
HETATM   10  C   UNL     1      -9.328  11.646  66.097  1.00  0.00    -0.237 A  
HETATM   11  F   UNL     1     -10.384   9.879  64.988  1.00  0.00    -0.376 F  
HETATM   12  C   UNL     1      -9.359  10.295  65.747  1.00  0.00    -0.186 A  
BRANCH   9  13
HETATM   13  C   UNL     1      -8.332  13.534  67.430  1.00  0.00    -0.194 C  
HETATM   14  N   UNL     1      -9.460  14.158  67.638  1.00  0.00    -0.207 NA 
HETATM   15  N   UNL     1      -9.284  15.460  68.030  1.00  0.00    -0.183 NA 
HETATM   16  C   UNL     1     -10.269  16.376  68.322  1.00  0.00    -0.255 A  
HETATM   17  C   UNL     1      -6.994  14.226  67.648  1.00  0.00    -0.184 C  
HETATM   18  C   UNL     1      -9.594  17.548  68.583  1.00  0.00    -0.303 A  
HETATM   19  N   UNL     1      -8.241  17.373  68.519  1.00  0.00    -0.262 NA 
HETATM   20  N   UNL     1      -6.880  15.457  68.023  1.00  0.00    -0.127 NA 
HETATM   21  C   UNL     1      -8.058  16.109  68.200  1.00  0.00    -0.149 A  
BRANCH  16  22
HETATM   22  C   UNL     1     -11.719  16.065  68.388  1.00  0.00    -0.196 C  
BRANCH  22  23
HETATM   23  C   UNL     1     -12.085  15.012  69.408  1.00  0.00    -0.290 A  
HETATM   24  C   UNL     1     -13.015  14.428  71.571  1.00  0.00    -0.406 A  
HETATM   25  C   UNL     1     -12.615  15.393  70.642  1.00  0.00    -0.491 A  
HETATM   26  C   UNL     1     -12.872  13.072  71.324  1.00  0.00    -0.281 A  
HETATM   27  N   UNL     1     -13.263  12.191  72.262  1.00  0.00    -0.366 NA 
HETATM   28  C   UNL     1     -13.071  10.877  72.017  1.00  0.00    -0.356 A  
HETATM   29  C   UNL     1     -12.499  10.387  70.859  1.00  0.00    -0.478 A  
HETATM   30  C   UNL     1     -12.119  11.300  69.881  1.00  0.00    -0.414 A  
HETATM   31  C   UNL     1     -12.300  12.674  70.098  1.00  0.00    -0.222 A  
HETATM   32  C   UNL     1     -11.925  13.644  69.144  1.00  0.00    -0.394 A  
ENDBRANCH  22  23
ENDBRANCH  16  22
ENDBRANCH   9  13
ENDBRANCH   3   6
TORSDOF 4
ENDMDL
MODEL       91
REMARK 921   NORMALIZED FREE ENERGY PREDICTED BY IDOCK:   -6.08 KCAL/MOL
REMARK 922        TOTAL FREE ENERGY PREDICTED BY IDOCK:   -8.16 KCAL/MOL
REMARK 923 INTER-LIGAND FREE ENERGY PREDICTED BY IDOCK:   -7.29 KCAL/MOL
REMARK 924 INTRA-LIGAND FREE ENERGY PREDICTED BY IDOCK:   -0.87 KCAL/MOL
REMARK 927      BINDING AFFINITY PREDICTED BY RF-SCORE:    0.00 PKD
ROOT
HETATM    1  C   UNL     1      -9.099  17.344  68.456  1.00  0.00    -0.273 C  
HETATM    2  N   UNL     1      -9.539  16.007  68.767  1.00  0.00    -0.211 N  
HETATM    3  C   UNL     1     -10.854  15.627  68.614  1.00  0.00    -0.273 C  
HETATM    4  H   UNL     1      -8.861  15.326  69.109  1.00  0.00     0.000 HD 
HETATM    5  O   UNL     1     -11.716  16.375  68.164  1.00  0.00    -0.136 OA 
ENDROOT
BRANCH   3   6
HETATM    6  C   UNL     1     -11.225  14.249  69.050  1.00  0.00    -0.294 A  
HETATM    7  C   UNL     1     -12.018  14.088  70.198  1.00  0.00    -0.399 A  
HETATM    8  C   UNL     1     -12.323  12.809  70.685  1.00  0.00    -0.381 A  
HETATM    9  C   UNL     1     -11.829  11.671  70.035  1.00  0.00    -0.435 A  
HETATM   10  C   UNL     1     -11.087  11.826  68.861  1.00  0.00    -0.297 A  
HETATM   11  F   UNL     1     -10.032  13.185  67.278  1.00  0.00    -0.219 F  
HETATM   12  C   UNL     1     -10.785  13.103  68.386  1.00  0.00    -0.253 A  
BRANCH   9  13
HETATM   13  C   UNL     1     -12.045  10.329  70.645  1.00  0.00    -0.338 C  
HETATM   14  N   UNL     1     -11.138   9.394  70.550  1.00  0.00    -0.255 NA 
HETATM   15  N   UNL     1     -11.540   8.205  71.101  1.00  0.00    -0.277 NA 
HETATM   16  C   UNL     1     -10.817   7.035  71.158  1.00  0.00    -0.237 A  
HETATM   17  C   UNL     1     -13.377  10.071  71.334  1.00  0.00    -0.347 C  
HETATM   18  C   UNL     1     -11.674   6.119  71.729  1.00  0.00    -0.253 A  
HETATM   19  N   UNL     1     -12.864   6.694  72.073  1.00  0.00    -0.218 NA 
HETATM   20  N   UNL     1     -13.707   8.931  71.843  1.00  0.00    -0.414 NA 
HETATM   21  C   UNL     1     -12.774   7.954  71.706  1.00  0.00    -0.329 A  
BRANCH  16  22
HETATM   22  C   UNL     1      -9.400   6.895  70.739  1.00  0.00    -0.161 C  
BRANCH  22  23
HETATM   23  C   UNL     1      -9.215   6.434  69.312  1.00  0.00    -0.135 A  
HETATM   24  C   UNL     1      -9.527   4.741  67.603  1.00  0.00    -0.176 A  
HETATM   25  C   UNL     1      -9.636   5.157  68.933  1.00  0.00    -0.201 A  
HETATM   26  C   UNL     1      -8.972   5.552  66.626  1.00  0.00    -0.118 A  
HETATM   27  N   UNL     1      -8.882   5.090  65.365  1.00  0.00    -0.149 NA 
HETATM   28  C   UNL     1      -8.297   5.881  64.441  1.00  0.00    -0.048 A  
HETATM   29  C   UNL     1      -7.788   7.136  64.714  1.00  0.00    -0.126 A  
HETATM   30  C   UNL     1      -7.906   7.620  66.012  1.00  0.00    -0.101 A  
HETATM   31  C   UNL     1      -8.506   6.828  67.003  1.00  0.00    -0.114 A  
HETATM   32  C   UNL     1      -8.644   7.266  68.338  1.00  0.00    -0.124 A  
ENDBRANCH  22  23
ENDBRANCH  16  22
ENDBRANCH   9  13
ENDBRANCH   3   6
TORSDOF 4
ENDMDL
MODEL       92
REMARK 921   NORMALIZED FREE ENERGY PREDICTED BY IDOCK:   -6.00 KCAL/MOL
REMARK 922        TOTAL FREE ENERGY PREDICTED BY IDOCK:   -8.07 KCAL/MOL
REMARK 923 INTER-LIGAND FREE ENERGY PREDICTED BY IDOCK:   -7.17 KCAL/MOL
REMARK 924 INTRA-LIGAND FREE ENERGY PREDICTED BY IDOCK:   -0.90 KCAL/MOL
REMARK 927      BINDING AFFINITY PREDICTED BY RF-SCORE:    0.00 PKD
ROOT
HETATM    1  C   UNL     1      -8.591   3.113  72.021  1.00  0.00    -0.077 C  
HETATM    2  N   UNL     1      -8.301   4.464  71.607  1.00  0.00    -0.099 N  
HETATM    3  C   UNL     1      -9.261   5.263  71.027  1.00  0.00    -0.147 C  
HETATM    4  H   UNL     1      -7.362   4.836  71.747  1.00  0.00     0.000 HD 
HETATM    5  O   UNL     1     -10.423   4.901  70.871  1.00  0.00    -0.191 OA 
ENDROOT
BRANCH   3   6
HETATM    6  C   UNL     1      -8.835   6.611  70.552  1.00  0.00    -0.152 A  
HETATM    7  C   UNL     1      -9.079   7.728  71.369  1.00  0.00    -0.154 A  
HETATM    8  C   UNL     1      -8.766   9.021  70.926  1.00  0.00    -0.280 A  
HETATM    9  C   UNL     1      -8.213   9.216  69.654  1.00  0.00    -0.116 A  
HETATM   10  C   UNL     1      -7.917   8.103  68.862  1.00  0.00    -0.114 A  
HETATM   11  F   UNL     1      -7.967   5.796  68.485  1.00  0.00    -0.095 F  
HETATM   12  C   UNL     1      -8.236   6.820  69.310  1.00  0.00    -0.124 A  
BRANCH   9  13
HETATM   13  C   UNL     1      -8.017  10.603  69.145  1.00  0.00    -0.139 C  
HETATM   14  N   UNL     1      -9.033  11.327  68.759  1.00  0.00    -0.150 NA 
HETATM   15  N   UNL     1      -8.656  12.543  68.250  1.00  0.00    -0.184 NA 
HETATM   16  C   UNL     1      -9.485  13.526  67.760  1.00  0.00    -0.216 A  
HETATM   17  C   UNL     1      -6.590  11.125  69.046  1.00  0.00    -0.075 C  
HETATM   18  C   UNL     1      -8.635  14.508  67.301  1.00  0.00    -0.215 A  
HETATM   19  N   UNL     1      -7.328  14.192  67.541  1.00  0.00    -0.180 NA 
HETATM   20  N   UNL     1      -6.287  12.283  68.562  1.00  0.00    -0.053 NA 
HETATM   21  C   UNL     1      -7.346  13.013  68.127  1.00  0.00    -0.118 A  
BRANCH  16  22
HETATM   22  C   UNL     1     -10.968  13.488  67.819  1.00  0.00    -0.284 C  
BRANCH  22  23
HETATM   23  C   UNL     1     -11.543  13.717  69.197  1.00  0.00    -0.356 A  
HETATM   24  C   UNL     1     -12.740  12.874  71.131  1.00  0.00    -0.366 A  
HETATM   25  C   UNL     1     -12.255  12.698  69.833  1.00  0.00    -0.238 A  
HETATM   26  C   UNL     1     -12.567  14.064  71.821  1.00  0.00    -0.287 A  
HETATM   27  N   UNL     1     -13.068  14.179  73.065  1.00  0.00    -0.540 NA 
HETATM   28  C   UNL     1     -12.926  15.363  73.697  1.00  0.00    -0.473 A  
HETATM   29  C   UNL     1     -12.297  16.460  73.143  1.00  0.00    -0.518 A  
HETATM   30  C   UNL     1     -11.758  16.329  71.868  1.00  0.00    -0.518 A  
HETATM   31  C   UNL     1     -11.885  15.116  71.175  1.00  0.00    -0.393 A  
HETATM   32  C   UNL     1     -11.366  14.931  69.876  1.00  0.00    -0.311 A  
ENDBRANCH  22  23
ENDBRANCH  16  22
ENDBRANCH   9  13
ENDBRANCH   3   6
TORSDOF 4
ENDMDL
MODEL       93
REMARK 921   NORMALIZED FREE ENERGY PREDICTED BY IDOCK:   -5.98 KCAL/MOL
REMARK 922        TOTAL FREE ENERGY PREDICTED BY IDOCK:   -8.04 KCAL/MOL
REMARK 923 INTER-LIGAND FREE ENERGY PREDICTED BY IDOCK:   -7.52 KCAL/MOL
REMARK 924 INTRA-LIGAND FREE ENERGY PREDICTED BY IDOCK:   -0.52 KCAL/MOL
REMARK 927      BINDING AFFINITY PREDICTED BY RF-SCORE:    0.00 PKD
ROOT
HETATM    1  C   UNL     1      -6.958   5.432  71.482  1.00  0.00    -0.066 C  
HETATM    2  N   UNL     1      -7.666   6.518  70.851  1.00  0.00    -0.099 N  
HETATM    3  C   UNL     1      -9.004   6.743  71.090  1.00  0.00    -0.147 C  
HETATM    4  H   UNL     1      -7.165   7.135  70.212  1.00  0.00     0.000 HD 
HETATM    5  O   UNL     1      -9.660   6.074  71.882  1.00  0.00    -0.152 OA 
ENDROOT
BRANCH   3   6
HETATM    6  C   UNL     1      -9.665   7.835  70.319  1.00  0.00    -0.179 A  
HETATM    7  C   UNL     1      -9.752   7.724  68.921  1.00  0.00    -0.160 A  
HETATM    8  C   UNL     1     -10.295   8.763  68.152  1.00  0.00    -0.266 A  
HETATM    9  C   UNL     1     -10.749   9.935  68.771  1.00  0.00    -0.247 A  
HETATM   10  C   UNL     1     -10.716  10.025  70.165  1.00  0.00    -0.361 A  
HETATM   11  F   UNL     1     -10.126   9.153  72.253  1.00  0.00    -0.366 F  
HETATM   12  C   UNL     1     -10.170   8.987  70.922  1.00  0.00    -0.257 A  
BRANCH   9  13
HETATM   13  C   UNL     1     -11.192  11.082  67.930  1.00  0.00    -0.310 C  
HETATM   14  N   UNL     1     -11.141  11.020  66.627  1.00  0.00    -0.199 NA 
HETATM   15  N   UNL     1     -11.514  12.193  66.023  1.00  0.00    -0.363 NA 
HETATM   16  C   UNL     1     -11.564  12.447  64.672  1.00  0.00    -0.343 A  
HETATM   17  C   UNL     1     -11.656  12.344  68.644  1.00  0.00    -0.319 C  
HETATM   18  C   UNL     1     -11.918  13.775  64.575  1.00  0.00    -0.427 A  
HETATM   19  N   UNL     1     -12.140  14.325  65.806  1.00  0.00    -0.407 NA 
HETATM   20  N   UNL     1     -12.002  13.425  68.028  1.00  0.00    -0.347 NA 
HETATM   21  C   UNL     1     -11.910  13.364  66.675  1.00  0.00    -0.395 A  
BRANCH  16  22
HETATM   22  C   UNL     1     -11.341  11.431  63.612  1.00  0.00    -0.299 C  
BRANCH  22  23
HETATM   23  C   UNL     1      -9.925  10.913  63.533  1.00  0.00    -0.419 A  
HETATM   24  C   UNL     1      -7.800  10.795  62.369  1.00  0.00    -0.195 A  
HETATM   25  C   UNL     1      -9.132  11.217  62.425  1.00  0.00    -0.292 A  
HETATM   26  C   UNL     1      -7.229  10.038  63.379  1.00  0.00    -0.135 A  
HETATM   27  N   UNL     1      -5.946   9.651  63.262  1.00  0.00    -0.097 NA 
HETATM   28  C   UNL     1      -5.426   8.877  64.238  1.00  0.00    -0.056 A  
HETATM   29  C   UNL     1      -6.134   8.462  65.349  1.00  0.00    -0.045 A  
HETATM   30  C   UNL     1      -7.452   8.886  65.479  1.00  0.00    -0.086 A  
HETATM   31  C   UNL     1      -8.031   9.690  64.486  1.00  0.00    -0.140 A  
HETATM   32  C   UNL     1      -9.366  10.141  64.563  1.00  0.00    -0.345 A  
ENDBRANCH  22  23
ENDBRANCH  16  22
ENDBRANCH   9  13
ENDBRANCH   3   6
TORSDOF 4
ENDMDL
MODEL       94
REMARK 921   NORMALIZED FREE ENERGY PREDICTED BY IDOCK:   -5.95 KCAL/MOL
REMARK 922        TOTAL FREE ENERGY PREDICTED BY IDOCK:   -8.00 KCAL/MOL
REMARK 923 INTER-LIGAND FREE ENERGY PREDICTED BY IDOCK:   -7.27 KCAL/MOL
REMARK 924 INTRA-LIGAND FREE ENERGY PREDICTED BY IDOCK:   -0.73 KCAL/MOL
REMARK 927      BINDING AFFINITY PREDICTED BY RF-SCORE:    0.00 PKD
ROOT
HETATM    1  C   UNL     1      -7.424   5.855  62.382  1.00  0.00    -0.060 C  
HETATM    2  N   UNL     1      -7.982   6.279  63.642  1.00  0.00    -0.168 N  
HETATM    3  C   UNL     1      -7.179   6.655  64.697  1.00  0.00    -0.071 C  
HETATM    4  H   UNL     1      -8.995   6.300  63.756  1.00  0.00     0.000 HD 
HETATM    5  O   UNL     1      -5.956   6.701  64.619  1.00  0.00    -0.033 OA 
ENDROOT
BRANCH   3   6
HETATM    6  C   UNL     1      -7.852   6.989  65.985  1.00  0.00    -0.104 A  
HETATM    7  C   UNL     1      -7.731   6.100  67.067  1.00  0.00    -0.100 A  
HETATM    8  C   UNL     1      -8.411   6.338  68.269  1.00  0.00    -0.114 A  
HETATM    9  C   UNL     1      -9.233   7.464  68.404  1.00  0.00    -0.138 A  
HETATM   10  C   UNL     1      -9.312   8.379  67.351  1.00  0.00    -0.178 A  
HETATM   11  F   UNL     1      -8.784   9.026  65.166  1.00  0.00    -0.158 F  
HETATM   12  C   UNL     1      -8.634   8.133  66.156  1.00  0.00    -0.139 A  
BRANCH   9  13
HETATM   13  C   UNL     1     -10.057   7.627  69.635  1.00  0.00    -0.194 C  
HETATM   14  N   UNL     1     -10.948   8.577  69.725  1.00  0.00    -0.182 NA 
HETATM   15  N   UNL     1     -11.554   8.622  70.955  1.00  0.00    -0.278 NA 
HETATM   16  C   UNL     1     -12.528   9.503  71.364  1.00  0.00    -0.362 A  
HETATM   17  C   UNL     1      -9.786   6.682  70.797  1.00  0.00    -0.183 C  
HETATM   18  C   UNL     1     -12.749   9.194  72.689  1.00  0.00    -0.184 A  
HETATM   19  N   UNL     1     -11.994   8.128  73.087  1.00  0.00    -0.025 NA 
HETATM   20  N   UNL     1     -10.388   6.763  71.936  1.00  0.00    -0.197 NA 
HETATM   21  C   UNL     1     -11.286   7.777  72.035  1.00  0.00    -0.278 A  
BRANCH  16  22
HETATM   22  C   UNL     1     -13.195  10.494  70.483  1.00  0.00    -0.075 C  
BRANCH  22  23
HETATM   23  C   UNL     1     -12.777  11.925  70.726  1.00  0.00    -0.242 A  
HETATM   24  C   UNL     1     -11.659  13.937  69.960  1.00  0.00    -0.282 A  
HETATM   25  C   UNL     1     -12.001  12.595  69.777  1.00  0.00    -0.365 A  
HETATM   26  C   UNL     1     -12.039  14.642  71.091  1.00  0.00    -0.342 A  
HETATM   27  N   UNL     1     -11.669  15.929  71.217  1.00  0.00    -0.415 NA 
HETATM   28  C   UNL     1     -12.013  16.579  72.348  1.00  0.00    -0.328 A  
HETATM   29  C   UNL     1     -12.724  16.001  73.382  1.00  0.00    -0.668 A  
HETATM   30  C   UNL     1     -13.127  14.679  73.237  1.00  0.00    -0.505 A  
HETATM   31  C   UNL     1     -12.789  13.966  72.076  1.00  0.00    -0.393 A  
HETATM   32  C   UNL     1     -13.165  12.620  71.881  1.00  0.00    -0.504 A  
ENDBRANCH  22  23
ENDBRANCH  16  22
ENDBRANCH   9  13
ENDBRANCH   3   6
TORSDOF 4
ENDMDL
MODEL       95
REMARK 921   NORMALIZED FREE ENERGY PREDICTED BY IDOCK:   -5.93 KCAL/MOL
REMARK 922        TOTAL FREE ENERGY PREDICTED BY IDOCK:   -7.98 KCAL/MOL
REMARK 923 INTER-LIGAND FREE ENERGY PREDICTED BY IDOCK:   -7.24 KCAL/MOL
REMARK 924 INTRA-LIGAND FREE ENERGY PREDICTED BY IDOCK:   -0.74 KCAL/MOL
REMARK 927      BINDING AFFINITY PREDICTED BY RF-SCORE:    0.00 PKD
ROOT
HETATM    1  C   UNL     1      -6.077   9.584  62.356  1.00  0.00    -0.096 C  
HETATM    2  N   UNL     1      -6.578   9.101  63.618  1.00  0.00    -0.089 N  
HETATM    3  C   UNL     1      -7.920   8.864  63.819  1.00  0.00    -0.154 C  
HETATM    4  H   UNL     1      -5.924   8.931  64.382  1.00  0.00     0.000 HD 
HETATM    5  O   UNL     1      -8.759   8.999  62.934  1.00  0.00    -0.209 OA 
ENDROOT
BRANCH   3   6
HETATM    6  C   UNL     1      -8.347   8.452  65.187  1.00  0.00    -0.177 A  
HETATM    7  C   UNL     1      -9.201   9.296  65.916  1.00  0.00    -0.277 A  
HETATM    8  C   UNL     1      -9.562   8.985  67.234  1.00  0.00    -0.206 A  
HETATM    9  C   UNL     1      -9.065   7.827  67.847  1.00  0.00    -0.132 A  
HETATM   10  C   UNL     1      -8.262   6.956  67.106  1.00  0.00    -0.118 A  
HETATM   11  F   UNL     1      -7.094   6.422  65.152  1.00  0.00    -0.054 F  
HETATM   12  C   UNL     1      -7.903   7.277  65.796  1.00  0.00    -0.108 A  
BRANCH   9  13
HETATM   13  C   UNL     1      -9.346   7.584  69.290  1.00  0.00    -0.151 C  
HETATM   14  N   UNL     1     -10.438   8.034  69.847  1.00  0.00    -0.229 NA 
HETATM   15  N   UNL     1     -10.489   7.783  71.194  1.00  0.00    -0.208 NA 
HETATM   16  C   UNL     1     -11.500   8.129  72.061  1.00  0.00    -0.320 A  
HETATM   17  C   UNL     1      -8.293   6.839  70.099  1.00  0.00    -0.135 C  
HETATM   18  C   UNL     1     -11.053   7.731  73.302  1.00  0.00    -0.129 A  
HETATM   19  N   UNL     1      -9.840   7.108  73.221  1.00  0.00    -0.208 NA 
HETATM   20  N   UNL     1      -8.391   6.623  71.368  1.00  0.00    -0.120 NA 
HETATM   21  C   UNL     1      -9.511   7.128  71.947  1.00  0.00    -0.146 A  
BRANCH  16  22
HETATM   22  C   UNL     1     -12.794   8.733  71.653  1.00  0.00    -0.392 C  
BRANCH  22  23
HETATM   23  C   UNL     1     -12.710  10.196  71.284  1.00  0.00    -0.509 A  
HETATM   24  C   UNL     1     -13.040  12.525  71.874  1.00  0.00    -0.473 A  
HETATM   25  C   UNL     1     -13.168  11.167  72.177  1.00  0.00    -0.297 A  
HETATM   26  C   UNL     1     -12.492  12.960  70.677  1.00  0.00    -0.252 A  
HETATM   27  N   UNL     1     -12.407  14.281  70.437  1.00  0.00    -0.333 NA 
HETATM   28  C   UNL     1     -11.912  14.678  69.246  1.00  0.00    -0.302 A  
HETATM   29  C   UNL     1     -11.486  13.807  68.262  1.00  0.00    -0.348 A  
HETATM   30  C   UNL     1     -11.552  12.443  68.524  1.00  0.00    -0.358 A  
HETATM   31  C   UNL     1     -12.062  11.988  69.750  1.00  0.00    -0.317 A  
HETATM   32  C   UNL     1     -12.159  10.616  70.064  1.00  0.00    -0.393 A  
ENDBRANCH  22  23
ENDBRANCH  16  22
ENDBRANCH   9  13
ENDBRANCH   3   6
TORSDOF 4
ENDMDL
MODEL       96
REMARK 921   NORMALIZED FREE ENERGY PREDICTED BY IDOCK:   -5.92 KCAL/MOL
REMARK 922        TOTAL FREE ENERGY PREDICTED BY IDOCK:   -7.96 KCAL/MOL
REMARK 923 INTER-LIGAND FREE ENERGY PREDICTED BY IDOCK:   -7.10 KCAL/MOL
REMARK 924 INTRA-LIGAND FREE ENERGY PREDICTED BY IDOCK:   -0.86 KCAL/MOL
REMARK 927      BINDING AFFINITY PREDICTED BY RF-SCORE:    0.00 PKD
ROOT
HETATM    1  C   UNL     1     -11.572  15.770  68.540  1.00  0.00    -0.362 C  
HETATM    2  N   UNL     1     -10.921  14.556  68.117  1.00  0.00    -0.245 N  
HETATM    3  C   UNL     1     -10.750  14.256  66.783  1.00  0.00    -0.287 C  
HETATM    4  H   UNL     1     -10.579  13.902  68.821  1.00  0.00     0.000 HD 
HETATM    5  O   UNL     1     -11.091  15.014  65.881  1.00  0.00    -0.336 OA 
ENDROOT
BRANCH   3   6
HETATM    6  C   UNL     1     -10.147  12.933  66.450  1.00  0.00    -0.272 A  
HETATM    7  C   UNL     1     -10.810  12.093  65.539  1.00  0.00    -0.324 A  
HETATM    8  C   UNL     1     -10.318  10.811  65.258  1.00  0.00    -0.327 A  
HETATM    9  C   UNL     1      -9.159  10.346  65.893  1.00  0.00    -0.192 A  
HETATM   10  C   UNL     1      -8.466  11.199  66.756  1.00  0.00    -0.153 A  
HETATM   11  F   UNL     1      -8.278  13.228  67.903  1.00  0.00    -0.120 F  
HETATM   12  C   UNL     1      -8.966  12.473  67.033  1.00  0.00    -0.211 A  
BRANCH   9  13
HETATM   13  C   UNL     1      -8.730   8.933  65.690  1.00  0.00    -0.182 C  
HETATM   14  N   UNL     1      -9.406   7.944  66.210  1.00  0.00    -0.184 NA 
HETATM   15  N   UNL     1      -8.822   6.724  65.985  1.00  0.00    -0.153 NA 
HETATM   16  C   UNL     1      -9.284   5.497  66.402  1.00  0.00    -0.150 A  
HETATM   17  C   UNL     1      -7.450   8.689  64.902  1.00  0.00    -0.093 C  
HETATM   18  C   UNL     1      -8.317   4.601  66.001  1.00  0.00    -0.114 A  
HETATM   19  N   UNL     1      -7.315   5.221  65.310  1.00  0.00    -0.067 NA 
HETATM   20  N   UNL     1      -6.942   7.518  64.714  1.00  0.00    -0.053 NA 
HETATM   21  C   UNL     1      -7.630   6.499  65.290  1.00  0.00    -0.088 A  
BRANCH  16  22
HETATM   22  C   UNL     1     -10.591   5.269  67.069  1.00  0.00    -0.255 C  
BRANCH  22  23
HETATM   23  C   UNL     1     -10.588   5.544  68.555  1.00  0.00    -0.208 A  
HETATM   24  C   UNL     1      -9.914   4.916  70.798  1.00  0.00    -0.292 A  
HETATM   25  C   UNL     1      -9.977   4.643  69.429  1.00  0.00    -0.249 A  
HETATM   26  C   UNL     1     -10.476   6.060  71.343  1.00  0.00    -0.231 A  
HETATM   27  N   UNL     1     -10.394   6.261  72.671  1.00  0.00    -0.193 NA 
HETATM   28  C   UNL     1     -10.989   7.359  73.183  1.00  0.00    -0.359 A  
HETATM   29  C   UNL     1     -11.675   8.287  72.423  1.00  0.00    -0.463 A  
HETATM   30  C   UNL     1     -11.735   8.089  71.048  1.00  0.00    -0.295 A  
HETATM   31  C   UNL     1     -11.131   6.959  70.476  1.00  0.00    -0.332 A  
HETATM   32  C   UNL     1     -11.170   6.703  69.089  1.00  0.00    -0.305 A  
ENDBRANCH  22  23
ENDBRANCH  16  22
ENDBRANCH   9  13
ENDBRANCH   3   6
TORSDOF 4
ENDMDL
MODEL       97
REMARK 921   NORMALIZED FREE ENERGY PREDICTED BY IDOCK:   -5.88 KCAL/MOL
REMARK 922        TOTAL FREE ENERGY PREDICTED BY IDOCK:   -7.91 KCAL/MOL
REMARK 923 INTER-LIGAND FREE ENERGY PREDICTED BY IDOCK:   -7.30 KCAL/MOL
REMARK 924 INTRA-LIGAND FREE ENERGY PREDICTED BY IDOCK:   -0.61 KCAL/MOL
REMARK 927      BINDING AFFINITY PREDICTED BY RF-SCORE:    0.00 PKD
ROOT
HETATM    1  C   UNL     1      -7.639   6.006  74.058  1.00  0.00    -0.091 C  
HETATM    2  N   UNL     1      -7.834   6.895  72.940  1.00  0.00    -0.093 N  
HETATM    3  C   UNL     1      -8.859   6.706  72.039  1.00  0.00    -0.135 C  
HETATM    4  H   UNL     1      -7.199   7.682  72.812  1.00  0.00     0.000 HD 
HETATM    5  O   UNL     1      -9.690   5.811  72.154  1.00  0.00    -0.153 OA 
ENDROOT
BRANCH   3   6
HETATM    6  C   UNL     1      -8.920   7.626  70.867  1.00  0.00    -0.148 A  
HETATM    7  C   UNL     1      -9.195   8.986  71.084  1.00  0.00    -0.326 A  
HETATM    8  C   UNL     1      -9.338   9.870  70.004  1.00  0.00    -0.232 A  
HETATM    9  C   UNL     1      -9.218   9.401  68.690  1.00  0.00    -0.131 A  
HETATM   10  C   UNL     1      -8.888   8.061  68.472  1.00  0.00    -0.134 A  
HETATM   11  F   UNL     1      -8.477   5.904  69.276  1.00  0.00    -0.108 F  
HETATM   12  C   UNL     1      -8.751   7.188  69.553  1.00  0.00    -0.134 A  
BRANCH   9  13
HETATM   13  C   UNL     1      -9.511  10.321  67.555  1.00  0.00    -0.152 C  
HETATM   14  N   UNL     1      -9.603  11.610  67.742  1.00  0.00    -0.173 NA 
HETATM   15  N   UNL     1      -9.954  12.289  66.603  1.00  0.00    -0.212 NA 
HETATM   16  C   UNL     1     -10.133  13.647  66.472  1.00  0.00    -0.286 A  
HETATM   17  C   UNL     1      -9.749   9.701  66.185  1.00  0.00    -0.252 C  
HETATM   18  C   UNL     1     -10.550  13.824  65.171  1.00  0.00    -0.374 A  
HETATM   19  N   UNL     1     -10.578  12.642  64.489  1.00  0.00    -0.325 NA 
HETATM   20  N   UNL     1     -10.073  10.386  65.139  1.00  0.00    -0.316 NA 
HETATM   21  C   UNL     1     -10.204  11.721  65.351  1.00  0.00    -0.261 A  
BRANCH  16  22
HETATM   22  C   UNL     1      -9.845  14.644  67.535  1.00  0.00    -0.218 C  
BRANCH  22  23
HETATM   23  C   UNL     1     -10.861  14.674  68.652  1.00  0.00    -0.261 A  
HETATM   24  C   UNL     1     -12.911  13.834  69.640  1.00  0.00     0.427 A  
HETATM   25  C   UNL     1     -11.995  13.861  68.585  1.00  0.00    -0.401 A  
HETATM   26  C   UNL     1     -12.754  14.626  70.766  1.00  0.00    -0.359 A  
HETATM   27  N   UNL     1     -13.677  14.565  71.744  1.00  0.00    -0.384 NA 
HETATM   28  C   UNL     1     -13.525  15.379  72.809  1.00  0.00    -0.538 A  
HETATM   29  C   UNL     1     -12.478  16.268  72.955  1.00  0.00    -0.533 A  
HETATM   30  C   UNL     1     -11.513  16.309  71.955  1.00  0.00    -0.298 A  
HETATM   31  C   UNL     1     -11.634  15.480  70.829  1.00  0.00    -0.399 A  
HETATM   32  C   UNL     1     -10.689  15.488  69.781  1.00  0.00    -0.301 A  
ENDBRANCH  22  23
ENDBRANCH  16  22
ENDBRANCH   9  13
ENDBRANCH   3   6
TORSDOF 4
ENDMDL
MODEL       98
REMARK 921   NORMALIZED FREE ENERGY PREDICTED BY IDOCK:   -5.85 KCAL/MOL
REMARK 922        TOTAL FREE ENERGY PREDICTED BY IDOCK:   -7.87 KCAL/MOL
REMARK 923 INTER-LIGAND FREE ENERGY PREDICTED BY IDOCK:   -8.05 KCAL/MOL
REMARK 924 INTRA-LIGAND FREE ENERGY PREDICTED BY IDOCK:    0.18 KCAL/MOL
REMARK 927      BINDING AFFINITY PREDICTED BY RF-SCORE:    0.00 PKD
ROOT
HETATM    1  C   UNL     1      -7.004   2.530  67.264  1.00  0.00    -0.045 C  
HETATM    2  N   UNL     1      -7.605   3.752  67.737  1.00  0.00    -0.066 N  
HETATM    3  C   UNL     1      -8.731   3.742  68.531  1.00  0.00    -0.102 C  
HETATM    4  H   UNL     1      -7.188   4.645  67.478  1.00  0.00     0.000 HD 
HETATM    5  O   UNL     1      -9.261   2.707  68.923  1.00  0.00    -0.134 OA 
ENDROOT
BRANCH   3   6
HETATM    6  C   UNL     1      -9.327   5.061  68.891  1.00  0.00    -0.174 A  
HETATM    7  C   UNL     1      -9.002   5.639  70.130  1.00  0.00    -0.151 A  
HETATM    8  C   UNL     1      -9.601   6.838  70.540  1.00  0.00    -0.174 A  
HETATM    9  C   UNL     1     -10.543   7.472  69.720  1.00  0.00    -0.245 A  
HETATM   10  C   UNL     1     -10.826   6.931  68.463  1.00  0.00    -0.234 A  
HETATM   11  F   UNL     1     -10.575   5.242  66.866  1.00  0.00    -0.245 F  
HETATM   12  C   UNL     1     -10.228   5.734  68.065  1.00  0.00    -0.187 A  
BRANCH   9  13
HETATM   13  C   UNL     1     -11.272   8.668  70.230  1.00  0.00    -0.184 C  
HETATM   14  N   UNL     1     -11.159   9.826  69.638  1.00  0.00    -0.235 NA 
HETATM   15  N   UNL     1     -11.837  10.824  70.290  1.00  0.00    -0.319 NA 
HETATM   16  C   UNL     1     -11.912  12.148  69.923  1.00  0.00    -0.309 A  
HETATM   17  C   UNL     1     -12.108   8.501  71.491  1.00  0.00    -0.304 C  
HETATM   18  C   UNL     1     -12.634  12.753  70.928  1.00  0.00    -0.255 A  
HETATM   19  N   UNL     1     -13.050  11.846  71.862  1.00  0.00    -0.437 NA 
HETATM   20  N   UNL     1     -12.733   9.474  72.065  1.00  0.00    -0.394 NA 
HETATM   21  C   UNL     1     -12.580  10.683  71.466  1.00  0.00    -0.412 A  
BRANCH  16  22
HETATM   22  C   UNL     1     -11.366  12.708  68.660  1.00  0.00    -0.331 C  
BRANCH  22  23
HETATM   23  C   UNL     1     -11.051  14.184  68.718  1.00  0.00    -0.283 A  
HETATM   24  C   UNL     1     -10.728  16.206  70.019  1.00  0.00    -0.318 A  
HETATM   25  C   UNL     1     -11.078  14.855  69.942  1.00  0.00    -0.288 A  
HETATM   26  C   UNL     1     -10.378  16.936  68.894  1.00  0.00    -0.333 A  
HETATM   27  N   UNL     1     -10.064  18.237  69.029  1.00  0.00    -0.347 NA 
HETATM   28  C   UNL     1      -9.770  18.937  67.913  1.00  0.00    -0.327 A  
HETATM   29  C   UNL     1      -9.773  18.394  66.642  1.00  0.00    -0.342 A  
HETATM   30  C   UNL     1     -10.073  17.043  66.510  1.00  0.00    -0.318 A  
HETATM   31  C   UNL     1     -10.385  16.280  67.645  1.00  0.00    -0.284 A  
HETATM   32  C   UNL     1     -10.706  14.908  67.567  1.00  0.00    -0.276 A  
ENDBRANCH  22  23
ENDBRANCH  16  22
ENDBRANCH   9  13
ENDBRANCH   3   6
TORSDOF 4
ENDMDL
MODEL       99
REMARK 921   NORMALIZED FREE ENERGY PREDICTED BY IDOCK:   -5.83 KCAL/MOL
REMARK 922        TOTAL FREE ENERGY PREDICTED BY IDOCK:   -7.85 KCAL/MOL
REMARK 923 INTER-LIGAND FREE ENERGY PREDICTED BY IDOCK:   -7.36 KCAL/MOL
REMARK 924 INTRA-LIGAND FREE ENERGY PREDICTED BY IDOCK:   -0.50 KCAL/MOL
REMARK 927      BINDING AFFINITY PREDICTED BY RF-SCORE:    0.00 PKD
ROOT
HETATM    1  C   UNL     1     -11.028   6.976  67.793  1.00  0.00    -0.164 C  
HETATM    2  N   UNL     1     -10.491   8.314  67.814  1.00  0.00    -0.337 N  
HETATM    3  C   UNL     1      -9.152   8.556  67.598  1.00  0.00    -0.135 C  
HETATM    4  H   UNL     1     -11.116   9.099  67.992  1.00  0.00     0.000 HD 
HETATM    5  O   UNL     1      -8.349   7.669  67.330  1.00  0.00    -0.114 OA 
ENDROOT
BRANCH   3   6
HETATM    6  C   UNL     1      -8.681   9.965  67.731  1.00  0.00    -0.129 A  
HETATM    7  C   UNL     1      -7.681  10.263  68.672  1.00  0.00    -0.094 A  
HETATM    8  C   UNL     1      -7.266  11.586  68.882  1.00  0.00    -0.117 A  
HETATM    9  C   UNL     1      -7.854  12.632  68.161  1.00  0.00    -0.145 A  
HETATM   10  C   UNL     1      -8.808  12.334  67.184  1.00  0.00    -0.194 A  
HETATM   11  F   UNL     1     -10.169  10.799  66.063  1.00  0.00    -0.267 F  
HETATM   12  C   UNL     1      -9.218  11.015  66.984  1.00  0.00    -0.153 A  
BRANCH   9  13
HETATM   13  C   UNL     1      -7.502  14.041  68.496  1.00  0.00    -0.124 C  
HETATM   14  N   UNL     1      -8.369  15.005  68.341  1.00  0.00    -0.147 NA 
HETATM   15  N   UNL     1      -7.847  16.241  68.625  1.00  0.00    -0.189 NA 
HETATM   16  C   UNL     1      -8.501  17.449  68.556  1.00  0.00    -0.274 A  
HETATM   17  C   UNL     1      -6.085  14.321  68.976  1.00  0.00    -0.092 C  
HETATM   18  C   UNL     1      -7.539  18.388  68.858  1.00  0.00    -0.227 A  
HETATM   19  N   UNL     1      -6.344  17.801  69.162  1.00  0.00    -0.223 NA 
HETATM   20  N   UNL     1      -5.641  15.505  69.236  1.00  0.00    -0.101 NA 
HETATM   21  C   UNL     1      -6.537  16.506  69.035  1.00  0.00    -0.193 A  
BRANCH  16  22
HETATM   22  C   UNL     1      -9.951  17.612  68.281  1.00  0.00    -0.339 C  
BRANCH  22  23
HETATM   23  C   UNL     1     -10.614  16.389  67.693  1.00  0.00    -0.313 A  
HETATM   24  C   UNL     1     -12.093  14.484  67.950  1.00  0.00    -0.261 A  
HETATM   25  C   UNL     1     -11.425  15.583  68.495  1.00  0.00    -0.369 A  
HETATM   26  C   UNL     1     -11.956  14.131  66.617  1.00  0.00    -0.444 A  
HETATM   27  N   UNL     1     -12.615  13.054  66.153  1.00  0.00    -0.368 NA 
HETATM   28  C   UNL     1     -12.429  12.705  64.862  1.00  0.00    -0.494 A  
HETATM   29  C   UNL     1     -11.603  13.389  63.992  1.00  0.00    -0.429 A  
HETATM   30  C   UNL     1     -10.943  14.517  64.469  1.00  0.00    -0.264 A  
HETATM   31  C   UNL     1     -11.109  14.913  65.805  1.00  0.00    -0.342 A  
HETATM   32  C   UNL     1     -10.457  16.043  66.343  1.00  0.00    -0.313 A  
ENDBRANCH  22  23
ENDBRANCH  16  22
ENDBRANCH   9  13
ENDBRANCH   3   6
TORSDOF 4
ENDMDL
MODEL      100
REMARK 921   NORMALIZED FREE ENERGY PREDICTED BY IDOCK:   -5.83 KCAL/MOL
REMARK 922        TOTAL FREE ENERGY PREDICTED BY IDOCK:   -7.85 KCAL/MOL
REMARK 923 INTER-LIGAND FREE ENERGY PREDICTED BY IDOCK:   -7.11 KCAL/MOL
REMARK 924 INTRA-LIGAND FREE ENERGY PREDICTED BY IDOCK:   -0.74 KCAL/MOL
REMARK 927      BINDING AFFINITY PREDICTED BY RF-SCORE:    0.00 PKD
ROOT
HETATM    1  C   UNL     1     -13.897  13.262  72.255  1.00  0.00    -0.539 C  
HETATM    2  N   UNL     1     -12.893  12.453  71.611  1.00  0.00    -0.322 N  
HETATM    3  C   UNL     1     -12.970  11.078  71.603  1.00  0.00    -0.456 C  
HETATM    4  H   UNL     1     -12.106  12.910  71.150  1.00  0.00     0.000 HD 
HETATM    5  O   UNL     1     -13.909  10.461  72.094  1.00  0.00    -0.127 OA 
ENDROOT
BRANCH   3   6
HETATM    6  C   UNL     1     -11.834  10.331  70.990  1.00  0.00    -0.472 A  
HETATM    7  C   UNL     1     -11.289  10.795  69.781  1.00  0.00    -0.372 A  
HETATM    8  C   UNL     1     -10.273  10.079  69.131  1.00  0.00    -0.224 A  
HETATM    9  C   UNL     1      -9.795   8.881  69.678  1.00  0.00    -0.182 A  
HETATM   10  C   UNL     1     -10.295   8.447  70.908  1.00  0.00    -0.234 A  
HETATM   11  F   UNL     1     -11.777   8.672  72.703  1.00  0.00    -0.432 F  
HETATM   12  C   UNL     1     -11.309   9.164  71.546  1.00  0.00    -0.368 A  
BRANCH   9  13
HETATM   13  C   UNL     1      -8.818   8.062  68.906  1.00  0.00    -0.141 C  
HETATM   14  N   UNL     1      -8.261   8.528  67.820  1.00  0.00    -0.121 NA 
HETATM   15  N   UNL     1      -7.451   7.610  67.203  1.00  0.00    -0.094 NA 
HETATM   16  C   UNL     1      -6.729   7.791  66.046  1.00  0.00    -0.049 A  
HETATM   17  C   UNL     1      -8.532   6.651  69.399  1.00  0.00    -0.131 C  
HETATM   18  C   UNL     1      -6.147   6.567  65.797  1.00  0.00    -0.030 A  
HETATM   19  N   UNL     1      -6.437   5.666  66.781  1.00  0.00    -0.049 NA 
HETATM   20  N   UNL     1      -7.756   5.824  68.783  1.00  0.00    -0.089 NA 
HETATM   21  C   UNL     1      -7.211   6.302  67.634  1.00  0.00    -0.083 A  
BRANCH  16  22
HETATM   22  C   UNL     1      -6.600   9.082  65.323  1.00  0.00    -0.068 C  
BRANCH  22  23
HETATM   23  C   UNL     1      -7.842   9.942  65.357  1.00  0.00    -0.132 A  
HETATM   24  C   UNL     1     -10.121  10.356  64.637  1.00  0.00    -0.378 A  
HETATM   25  C   UNL     1      -8.944   9.605  64.569  1.00  0.00    -0.278 A  
HETATM   26  C   UNL     1     -10.231  11.472  65.453  1.00  0.00    -0.264 A  
HETATM   27  N   UNL     1     -11.386  12.162  65.466  1.00  0.00    -0.339 NA 
HETATM   28  C   UNL     1     -11.452  13.270  66.234  1.00  0.00    -0.325 A  
HETATM   29  C   UNL     1     -10.405  13.734  67.007  1.00  0.00    -0.260 A  
HETATM   30  C   UNL     1      -9.222  13.003  67.011  1.00  0.00    -0.232 A  
HETATM   31  C   UNL     1      -9.111  11.846  66.225  1.00  0.00    -0.188 A  
HETATM   32  C   UNL     1      -7.932  11.072  66.184  1.00  0.00    -0.129 A  
ENDBRANCH  22  23
ENDBRANCH  16  22
ENDBRANCH   9  13
ENDBRANCH   3   6
TORSDOF 4
ENDMDL
MODEL      101
REMARK 921   NORMALIZED FREE ENERGY PREDICTED BY IDOCK:   -5.83 KCAL/MOL
REMARK 922        TOTAL FREE ENERGY PREDICTED BY IDOCK:   -7.85 KCAL/MOL
REMARK 923 INTER-LIGAND FREE ENERGY PREDICTED BY IDOCK:   -7.11 KCAL/MOL
REMARK 924 INTRA-LIGAND FREE ENERGY PREDICTED BY IDOCK:   -0.74 KCAL/MOL
REMARK 927      BINDING AFFINITY PREDICTED BY RF-SCORE:    0.00 PKD
ROOT
HETATM    1  C   UNL     1      -9.060   2.022  67.733  1.00  0.00    -0.172 C  
HETATM    2  N   UNL     1      -9.475   3.292  68.275  1.00  0.00    -0.180 N  
HETATM    3  C   UNL     1      -9.923   4.310  67.463  1.00  0.00    -0.044 C  
HETATM    4  H   UNL     1      -9.436   3.440  69.283  1.00  0.00     0.000 HD 
HETATM    5  O   UNL     1     -10.043   4.190  66.248  1.00  0.00    -0.206 OA 
ENDROOT
BRANCH   3   6
HETATM    6  C   UNL     1     -10.243   5.614  68.112  1.00  0.00    -0.236 A  
HETATM    7  C   UNL     1     -10.744   5.616  69.424  1.00  0.00    -0.365 A  
HETATM    8  C   UNL     1     -11.131   6.814  70.042  1.00  0.00    -0.366 A  
HETATM    9  C   UNL     1     -11.030   8.028  69.351  1.00  0.00    -0.021 A  
HETATM   10  C   UNL     1     -10.479   8.037  68.067  1.00  0.00    -0.243 A  
HETATM   11  F   UNL     1      -9.619   6.909  66.208  1.00  0.00    -0.207 F  
HETATM   12  C   UNL     1     -10.101   6.839  67.458  1.00  0.00    -0.170 A  
BRANCH   9  13
HETATM   13  C   UNL     1     -11.575   9.270  69.969  1.00  0.00     0.025 C  
HETATM   14  N   UNL     1     -11.488  10.419  69.355  1.00  0.00    -0.242 NA 
HETATM   15  N   UNL     1     -11.971  11.461  70.105  1.00  0.00    -0.352 NA 
HETATM   16  C   UNL     1     -12.018  12.787  69.743  1.00  0.00    -0.292 A  
HETATM   17  C   UNL     1     -12.187   9.159  71.358  1.00  0.00    -0.335 C  
HETATM   18  C   UNL     1     -12.510  13.438  70.853  1.00  0.00    -0.359 A  
HETATM   19  N   UNL     1     -12.817  12.561  71.854  1.00  0.00    -0.259 NA 
HETATM   20  N   UNL     1     -12.633  10.172  72.023  1.00  0.00    -0.334 NA 
HETATM   21  C   UNL     1     -12.505  11.368  71.393  1.00  0.00    -0.265 A  
BRANCH  16  22
HETATM   22  C   UNL     1     -11.665  13.310  68.399  1.00  0.00    -0.389 C  
BRANCH  22  23
HETATM   23  C   UNL     1     -10.487  12.620  67.752  1.00  0.00    -0.228 A  
HETATM   24  C   UNL     1      -8.104  12.170  67.683  1.00  0.00    -0.158 A  
HETATM   25  C   UNL     1      -9.196  12.849  68.232  1.00  0.00    -0.187 A  
HETATM   26  C   UNL     1      -8.250  11.280  66.631  1.00  0.00    -0.164 A  
HETATM   27  N   UNL     1      -7.160  10.666  66.136  1.00  0.00    -0.134 NA 
HETATM   28  C   UNL     1      -7.323   9.838  65.083  1.00  0.00    -0.122 A  
HETATM   29  C   UNL     1      -8.542   9.583  64.486  1.00  0.00    -0.206 A  
HETATM   30  C   UNL     1      -9.670  10.200  65.017  1.00  0.00    -0.384 A  
HETATM   31  C   UNL     1      -9.544  11.069  66.111  1.00  0.00    -0.240 A  
HETATM   32  C   UNL     1     -10.653  11.727  66.683  1.00  0.00    -0.275 A  
ENDBRANCH  22  23
ENDBRANCH  16  22
ENDBRANCH   9  13
ENDBRANCH   3   6
TORSDOF 4
ENDMDL
MODEL      102
REMARK 921   NORMALIZED FREE ENERGY PREDICTED BY IDOCK:   -5.80 KCAL/MOL
REMARK 922        TOTAL FREE ENERGY PREDICTED BY IDOCK:   -7.82 KCAL/MOL
REMARK 923 INTER-LIGAND FREE ENERGY PREDICTED BY IDOCK:   -7.19 KCAL/MOL
REMARK 924 INTRA-LIGAND FREE ENERGY PREDICTED BY IDOCK:   -0.62 KCAL/MOL
REMARK 927      BINDING AFFINITY PREDICTED BY RF-SCORE:    0.00 PKD
ROOT
HETATM    1  C   UNL     1     -12.367  13.537  63.616  1.00  0.00    -0.310 C  
HETATM    2  N   UNL     1     -12.232  12.847  64.874  1.00  0.00    -0.426 N  
HETATM    3  C   UNL     1     -11.788  13.492  66.007  1.00  0.00    -0.379 C  
HETATM    4  H   UNL     1     -12.471  11.857  64.926  1.00  0.00     0.000 HD 
HETATM    5  O   UNL     1     -11.528  14.690  66.032  1.00  0.00    -0.340 OA 
ENDROOT
BRANCH   3   6
HETATM    6  C   UNL     1     -11.597  12.667  67.235  1.00  0.00    -0.428 A  
HETATM    7  C   UNL     1     -11.066  11.372  67.109  1.00  0.00    -0.366 A  
HETATM    8  C   UNL     1     -10.943  10.536  68.228  1.00  0.00    -0.314 A  
HETATM    9  C   UNL     1     -11.360  10.980  69.489  1.00  0.00    -0.356 A  
HETATM   10  C   UNL     1     -11.836  12.287  69.627  1.00  0.00    -0.393 A  
HETATM   11  F   UNL     1     -12.462  14.340  68.698  1.00  0.00    -0.305 F  
HETATM   12  C   UNL     1     -11.958  13.111  68.507  1.00  0.00    -0.289 A  
BRANCH   9  13
HETATM   13  C   UNL     1     -11.354  10.032  70.638  1.00  0.00    -0.348 C  
HETATM   14  N   UNL     1     -10.233   9.561  71.114  1.00  0.00    -0.283 NA 
HETATM   15  N   UNL     1     -10.424   8.646  72.117  1.00  0.00    -0.342 NA 
HETATM   16  C   UNL     1      -9.449   7.971  72.816  1.00  0.00    -0.269 A  
HETATM   17  C   UNL     1     -12.698   9.596  71.203  1.00  0.00    -0.320 C  
HETATM   18  C   UNL     1     -10.140   7.120  73.651  1.00  0.00    -0.346 A  
HETATM   19  N   UNL     1     -11.490   7.287  73.532  1.00  0.00     0.156 NA 
HETATM   20  N   UNL     1     -12.826   8.733  72.154  1.00  0.00    -0.374 NA 
HETATM   21  C   UNL     1     -11.657   8.219  72.617  1.00  0.00    -0.349 A  
BRANCH  16  22
HETATM   22  C   UNL     1      -7.991   8.220  72.688  1.00  0.00    -0.193 C  
BRANCH  22  23
HETATM   23  C   UNL     1      -7.469   8.150  71.272  1.00  0.00    -0.074 A  
HETATM   24  C   UNL     1      -7.028   6.861  69.266  1.00  0.00    -0.074 A  
HETATM   25  C   UNL     1      -7.450   6.928  70.596  1.00  0.00    -0.082 A  
HETATM   26  C   UNL     1      -6.583   7.981  68.581  1.00  0.00    -0.057 A  
HETATM   27  N   UNL     1      -6.177   7.850  67.305  1.00  0.00    -0.053 NA 
HETATM   28  C   UNL     1      -5.706   8.947  66.675  1.00  0.00    -0.047 A  
HETATM   29  C   UNL     1      -5.619  10.194  67.263  1.00  0.00    -0.042 A  
HETATM   30  C   UNL     1      -6.064  10.330  68.574  1.00  0.00    -0.043 A  
HETATM   31  C   UNL     1      -6.560   9.214  69.265  1.00  0.00    -0.049 A  
HETATM   32  C   UNL     1      -7.016   9.293  70.598  1.00  0.00    -0.101 A  
ENDBRANCH  22  23
ENDBRANCH  16  22
ENDBRANCH   9  13
ENDBRANCH   3   6
TORSDOF 4
ENDMDL
MODEL      103
REMARK 921   NORMALIZED FREE ENERGY PREDICTED BY IDOCK:   -5.79 KCAL/MOL
REMARK 922        TOTAL FREE ENERGY PREDICTED BY IDOCK:   -7.81 KCAL/MOL
REMARK 923 INTER-LIGAND FREE ENERGY PREDICTED BY IDOCK:   -6.94 KCAL/MOL
REMARK 924 INTRA-LIGAND FREE ENERGY PREDICTED BY IDOCK:   -0.86 KCAL/MOL
REMARK 927      BINDING AFFINITY PREDICTED BY RF-SCORE:    0.00 PKD
ROOT
HETATM    1  C   UNL     1     -11.855  13.212  63.573  1.00  0.00    -0.476 C  
HETATM    2  N   UNL     1     -11.874  12.316  64.702  1.00  0.00    -0.371 N  
HETATM    3  C   UNL     1     -10.923  12.389  65.696  1.00  0.00    -0.286 C  
HETATM    4  H   UNL     1     -12.607  11.610  64.766  1.00  0.00     0.000 HD 
HETATM    5  O   UNL     1     -10.040  13.240  65.712  1.00  0.00    -0.287 OA 
ENDROOT
BRANCH   3   6
HETATM    6  C   UNL     1     -10.977  11.358  66.773  1.00  0.00    -0.347 A  
HETATM    7  C   UNL     1     -11.533  11.703  68.017  1.00  0.00    -0.385 A  
HETATM    8  C   UNL     1     -11.532  10.788  69.080  1.00  0.00    -0.368 A  
HETATM    9  C   UNL     1     -10.965   9.518  68.917  1.00  0.00    -0.116 A  
HETATM   10  C   UNL     1     -10.462   9.153  67.665  1.00  0.00    -0.323 A  
HETATM   11  F   UNL     1      -9.927   9.674  65.449  1.00  0.00    -0.361 F  
HETATM   12  C   UNL     1     -10.464  10.071  66.614  1.00  0.00    -0.174 A  
BRANCH   9  13
HETATM   13  C   UNL     1     -10.846   8.612  70.094  1.00  0.00    -0.233 C  
HETATM   14  N   UNL     1     -10.520   7.357  69.945  1.00  0.00    -0.225 NA 
HETATM   15  N   UNL     1     -10.535   6.660  71.126  1.00  0.00    -0.214 NA 
HETATM   16  C   UNL     1     -10.243   5.327  71.303  1.00  0.00    -0.224 A  
HETATM   17  C   UNL     1     -11.168   9.189  71.466  1.00  0.00    -0.360 C  
HETATM   18  C   UNL     1     -10.474   5.089  72.640  1.00  0.00    -0.209 A  
HETATM   19  N   UNL     1     -10.840   6.230  73.296  1.00  0.00    -0.260 NA 
HETATM   20  N   UNL     1     -11.163   8.491  72.551  1.00  0.00    -0.330 NA 
HETATM   21  C   UNL     1     -10.861   7.178  72.383  1.00  0.00    -0.246 A  
BRANCH  16  22
HETATM   22  C   UNL     1      -9.725   4.428  70.241  1.00  0.00    -0.281 C  
BRANCH  22  23
HETATM   23  C   UNL     1      -8.810   5.101  69.245  1.00  0.00    -0.115 A  
HETATM   24  C   UNL     1      -6.663   6.098  68.717  1.00  0.00    -0.061 A  
HETATM   25  C   UNL     1      -7.542   5.530  69.643  1.00  0.00    -0.071 A  
HETATM   26  C   UNL     1      -7.019   6.289  67.391  1.00  0.00    -0.068 A  
HETATM   27  N   UNL     1      -6.134   6.853  66.550  1.00  0.00    -0.033 NA 
HETATM   28  C   UNL     1      -6.521   7.070  65.275  1.00  0.00    -0.043 A  
HETATM   29  C   UNL     1      -7.771   6.744  64.785  1.00  0.00    -0.111 A  
HETATM   30  C   UNL     1      -8.674   6.138  65.652  1.00  0.00    -0.133 A  
HETATM   31  C   UNL     1      -8.312   5.896  66.985  1.00  0.00    -0.105 A  
HETATM   32  C   UNL     1      -9.191   5.293  67.909  1.00  0.00    -0.122 A  
ENDBRANCH  22  23
ENDBRANCH  16  22
ENDBRANCH   9  13
ENDBRANCH   3   6
TORSDOF 4
ENDMDL
MODEL      104
REMARK 921   NORMALIZED FREE ENERGY PREDICTED BY IDOCK:   -5.79 KCAL/MOL
REMARK 922        TOTAL FREE ENERGY PREDICTED BY IDOCK:   -7.80 KCAL/MOL
REMARK 923 INTER-LIGAND FREE ENERGY PREDICTED BY IDOCK:   -6.94 KCAL/MOL
REMARK 924 INTRA-LIGAND FREE ENERGY PREDICTED BY IDOCK:   -0.86 KCAL/MOL
REMARK 927      BINDING AFFINITY PREDICTED BY RF-SCORE:    0.00 PKD
ROOT
HETATM    1  C   UNL     1      -6.008  20.954  64.730  1.00  0.00    -0.271 C  
HETATM    2  N   UNL     1      -6.887  20.078  65.463  1.00  0.00    -0.292 N  
HETATM    3  C   UNL     1      -7.250  20.345  66.765  1.00  0.00    -0.279 C  
HETATM    4  H   UNL     1      -7.248  19.240  65.008  1.00  0.00     0.000 HD 
HETATM    5  O   UNL     1      -6.894  21.356  67.361  1.00  0.00    -0.573 OA 
ENDROOT
BRANCH   3   6
HETATM    6  C   UNL     1      -8.089  19.330  67.465  1.00  0.00    -0.307 A  
HETATM    7  C   UNL     1      -7.469  18.192  68.008  1.00  0.00    -0.242 A  
HETATM    8  C   UNL     1      -8.231  17.177  68.605  1.00  0.00    -0.255 A  
HETATM    9  C   UNL     1      -9.626  17.281  68.657  1.00  0.00    -0.284 A  
HETATM   10  C   UNL     1     -10.242  18.437  68.169  1.00  0.00    -0.410 A  
HETATM   11  F   UNL     1     -10.129  20.505  67.084  1.00  0.00    -0.553 F  
HETATM   12  C   UNL     1      -9.476  19.440  67.573  1.00  0.00    -0.312 A  
BRANCH   9  13
HETATM   13  C   UNL     1     -10.428  16.133  69.166  1.00  0.00    -0.265 C  
HETATM   14  N   UNL     1     -10.521  15.023  68.484  1.00  0.00    -0.227 NA 
HETATM   15  N   UNL     1     -11.360  14.109  69.068  1.00  0.00    -0.259 NA 
HETATM   16  C   UNL     1     -11.668  12.853  68.598  1.00  0.00    -0.324 A  
HETATM   17  C   UNL     1     -11.173  16.319  70.481  1.00  0.00    -0.309 C  
HETATM   18  C   UNL     1     -12.601  12.364  69.486  1.00  0.00     0.460 A  
HETATM   19  N   UNL     1     -12.832  13.243  70.506  1.00  0.00    -0.069 NA 
HETATM   20  N   UNL     1     -11.949  15.423  70.993  1.00  0.00    -0.323 NA 
HETATM   21  C   UNL     1     -12.071  14.287  70.258  1.00  0.00    -0.335 A  
BRANCH  16  22
HETATM   22  C   UNL     1     -11.032  12.211  67.420  1.00  0.00    -0.308 C  
BRANCH  22  23
HETATM   23  C   UNL     1      -9.938  11.228  67.762  1.00  0.00    -0.193 A  
HETATM   24  C   UNL     1      -8.963   9.019  67.531  1.00  0.00    -0.131 A  
HETATM   25  C   UNL     1      -9.998   9.920  67.274  1.00  0.00    -0.245 A  
HETATM   26  C   UNL     1      -7.863   9.367  68.300  1.00  0.00    -0.090 A  
HETATM   27  N   UNL     1      -6.904   8.450  68.524  1.00  0.00    -0.063 NA 
HETATM   28  C   UNL     1      -5.866   8.800  69.313  1.00  0.00    -0.035 A  
HETATM   29  C   UNL     1      -5.731  10.042  69.901  1.00  0.00    -0.043 A  
HETATM   30  C   UNL     1      -6.712  10.995  69.646  1.00  0.00    -0.137 A  
HETATM   31  C   UNL     1      -7.808  10.671  68.832  1.00  0.00    -0.129 A  
HETATM   32  C   UNL     1      -8.836  11.596  68.548  1.00  0.00    -0.131 A  
ENDBRANCH  22  23
ENDBRANCH  16  22
ENDBRANCH   9  13
ENDBRANCH   3   6
TORSDOF 4
ENDMDL
MODEL      105
REMARK 921   NORMALIZED FREE ENERGY PREDICTED BY IDOCK:   -5.78 KCAL/MOL
REMARK 922        TOTAL FREE ENERGY PREDICTED BY IDOCK:   -7.79 KCAL/MOL
REMARK 923 INTER-LIGAND FREE ENERGY PREDICTED BY IDOCK:   -7.42 KCAL/MOL
REMARK 924 INTRA-LIGAND FREE ENERGY PREDICTED BY IDOCK:   -0.37 KCAL/MOL
REMARK 927      BINDING AFFINITY PREDICTED BY RF-SCORE:    0.00 PKD
ROOT
HETATM    1  C   UNL     1     -12.147  14.341  65.131  1.00  0.00    -0.410 C  
HETATM    2  N   UNL     1     -11.975  12.956  65.494  1.00  0.00    -0.410 N  
HETATM    3  C   UNL     1     -10.810  12.501  66.071  1.00  0.00    -0.276 C  
HETATM    4  H   UNL     1     -12.734  12.298  65.320  1.00  0.00     0.000 HD 
HETATM    5  O   UNL     1      -9.873  13.241  66.354  1.00  0.00    -0.269 OA 
ENDROOT
BRANCH   3   6
HETATM    6  C   UNL     1     -10.697  11.036  66.325  1.00  0.00    -0.273 A  
HETATM    7  C   UNL     1     -11.189  10.515  67.534  1.00  0.00    -0.299 A  
HETATM    8  C   UNL     1     -11.033   9.157  67.846  1.00  0.00    -0.035 A  
HETATM    9  C   UNL     1     -10.373   8.301  66.956  1.00  0.00    -0.393 A  
HETATM   10  C   UNL     1      -9.933   8.803  65.728  1.00  0.00     0.117 A  
HETATM   11  F   UNL     1      -9.607  10.587  64.252  1.00  0.00    -0.242 F  
HETATM   12  C   UNL     1     -10.089  10.157  65.428  1.00  0.00    -0.272 A  
BRANCH   9  13
HETATM   13  C   UNL     1     -10.092   6.895  67.363  1.00  0.00    -0.183 C  
HETATM   14  N   UNL     1      -9.610   6.622  68.545  1.00  0.00    -0.126 NA 
HETATM   15  N   UNL     1      -9.344   5.288  68.716  1.00  0.00    -0.116 NA 
HETATM   16  C   UNL     1      -8.831   4.685  69.841  1.00  0.00    -0.089 A  
HETATM   17  C   UNL     1     -10.340   5.799  66.337  1.00  0.00    -0.151 C  
HETATM   18  C   UNL     1      -8.675   3.361  69.492  1.00  0.00    -0.076 A  
HETATM   19  N   UNL     1      -9.123   3.122  68.224  1.00  0.00    -0.146 NA 
HETATM   20  N   UNL     1     -10.076   4.553  66.547  1.00  0.00    -0.239 NA 
HETATM   21  C   UNL     1      -9.539   4.282  67.765  1.00  0.00    -0.158 A  
BRANCH  16  22
HETATM   22  C   UNL     1      -8.594   5.373  71.135  1.00  0.00    -0.128 C  
BRANCH  22  23
HETATM   23  C   UNL     1      -9.687   6.333  71.540  1.00  0.00    -0.179 A  
HETATM   24  C   UNL     1     -10.357   8.459  72.496  1.00  0.00    -0.371 A  
HETATM   25  C   UNL     1      -9.361   7.535  72.173  1.00  0.00    -0.176 A  
HETATM   26  C   UNL     1     -11.696   8.212  72.239  1.00  0.00    -0.379 A  
HETATM   27  N   UNL     1     -12.611   9.136  72.586  1.00  0.00    -0.234 NA 
HETATM   28  C   UNL     1     -13.912   8.852  72.366  1.00  0.00    -0.448 A  
HETATM   29  C   UNL     1     -14.358   7.671  71.805  1.00  0.00    -0.586 A  
HETATM   30  C   UNL     1     -13.407   6.730  71.425  1.00  0.00    -0.150 A  
HETATM   31  C   UNL     1     -12.044   6.985  71.637  1.00  0.00    -0.384 A  
HETATM   32  C   UNL     1     -11.039   6.063  71.279  1.00  0.00    -0.337 A  
ENDBRANCH  22  23
ENDBRANCH  16  22
ENDBRANCH   9  13
ENDBRANCH   3   6
TORSDOF 4
ENDMDL
MODEL      106
REMARK 921   NORMALIZED FREE ENERGY PREDICTED BY IDOCK:   -5.75 KCAL/MOL
REMARK 922        TOTAL FREE ENERGY PREDICTED BY IDOCK:   -7.76 KCAL/MOL
REMARK 923 INTER-LIGAND FREE ENERGY PREDICTED BY IDOCK:   -7.26 KCAL/MOL
REMARK 924 INTRA-LIGAND FREE ENERGY PREDICTED BY IDOCK:   -0.49 KCAL/MOL
REMARK 927      BINDING AFFINITY PREDICTED BY RF-SCORE:    0.00 PKD
ROOT
HETATM    1  C   UNL     1      -5.774   4.741  67.398  1.00  0.00    -0.021 C  
HETATM    2  N   UNL     1      -6.726   5.800  67.180  1.00  0.00    -0.060 N  
HETATM    3  C   UNL     1      -7.258   6.047  65.933  1.00  0.00    -0.075 C  
HETATM    4  H   UNL     1      -7.014   6.381  67.967  1.00  0.00     0.000 HD 
HETATM    5  O   UNL     1      -6.997   5.360  64.950  1.00  0.00    -0.051 OA 
ENDROOT
BRANCH   3   6
HETATM    6  C   UNL     1      -8.165   7.223  65.795  1.00  0.00    -0.135 A  
HETATM    7  C   UNL     1      -7.949   8.129  64.744  1.00  0.00    -0.147 A  
HETATM    8  C   UNL     1      -8.729   9.288  64.625  1.00  0.00    -0.223 A  
HETATM    9  C   UNL     1      -9.732   9.562  65.563  1.00  0.00    -0.344 A  
HETATM   10  C   UNL     1      -9.988   8.634  66.577  1.00  0.00    -0.353 A  
HETATM   11  F   UNL     1      -9.469   6.656  67.710  1.00  0.00    -0.124 F  
HETATM   12  C   UNL     1      -9.203   7.485  66.690  1.00  0.00    -0.162 A  
BRANCH   9  13
HETATM   13  C   UNL     1     -10.456  10.863  65.503  1.00  0.00    -0.219 C  
HETATM   14  N   UNL     1     -10.624  11.588  66.576  1.00  0.00    -0.248 NA 
HETATM   15  N   UNL     1     -11.378  12.711  66.346  1.00  0.00    -0.313 NA 
HETATM   16  C   UNL     1     -11.732  13.670  67.266  1.00  0.00    -0.380 A  
HETATM   17  C   UNL     1     -11.034  11.289  64.161  1.00  0.00    -0.305 C  
HETATM   18  C   UNL     1     -12.545  14.540  66.573  1.00  0.00     0.162 A  
HETATM   19  N   UNL     1     -12.655  14.184  65.259  1.00  0.00    -0.576 NA 
HETATM   20  N   UNL     1     -11.735  12.361  63.995  1.00  0.00    -0.383 NA 
HETATM   21  C   UNL     1     -11.937  13.089  65.122  1.00  0.00    -0.402 A  
BRANCH  16  22
HETATM   22  C   UNL     1     -11.241  13.721  68.666  1.00  0.00    -0.308 C  
BRANCH  22  23
HETATM   23  C   UNL     1     -11.491  12.461  69.460  1.00  0.00    -0.309 A  
HETATM   24  C   UNL     1     -12.896  11.181  70.968  1.00  0.00    -0.424 A  
HETATM   25  C   UNL     1     -12.621  12.364  70.276  1.00  0.00    -0.021 A  
HETATM   26  C   UNL     1     -12.054  10.082  70.903  1.00  0.00    -0.355 A  
HETATM   27  N   UNL     1     -12.367   8.976  71.602  1.00  0.00    -0.326 NA 
HETATM   28  C   UNL     1     -11.508   7.936  71.558  1.00  0.00    -0.265 A  
HETATM   29  C   UNL     1     -10.330   7.941  70.837  1.00  0.00    -0.215 A  
HETATM   30  C   UNL     1     -10.024   9.077  70.095  1.00  0.00    -0.216 A  
HETATM   31  C   UNL     1     -10.889  10.181  70.114  1.00  0.00    -0.368 A  
HETATM   32  C   UNL     1     -10.624  11.361  69.388  1.00  0.00    -0.097 A  
ENDBRANCH  22  23
ENDBRANCH  16  22
ENDBRANCH   9  13
ENDBRANCH   3   6
TORSDOF 4
ENDMDL
MODEL      107
REMARK 921   NORMALIZED FREE ENERGY PREDICTED BY IDOCK:   -5.71 KCAL/MOL
REMARK 922        TOTAL FREE ENERGY PREDICTED BY IDOCK:   -7.71 KCAL/MOL
REMARK 923 INTER-LIGAND FREE ENERGY PREDICTED BY IDOCK:   -6.83 KCAL/MOL
REMARK 924 INTRA-LIGAND FREE ENERGY PREDICTED BY IDOCK:   -0.88 KCAL/MOL
REMARK 927      BINDING AFFINITY PREDICTED BY RF-SCORE:    0.00 PKD
ROOT
HETATM    1  C   UNL     1      -9.190  20.442  66.678  1.00  0.00    -0.243 C  
HETATM    2  N   UNL     1      -8.824  19.067  66.907  1.00  0.00    -0.291 N  
HETATM    3  C   UNL     1      -9.395  18.327  67.918  1.00  0.00    -0.276 C  
HETATM    4  H   UNL     1      -8.124  18.631  66.306  1.00  0.00     0.000 HD 
HETATM    5  O   UNL     1     -10.276  18.767  68.650  1.00  0.00    -0.381 OA 
ENDROOT
BRANCH   3   6
HETATM    6  C   UNL     1      -8.882  16.942  68.129  1.00  0.00    -0.223 A  
HETATM    7  C   UNL     1      -7.626  16.767  68.734  1.00  0.00    -0.240 A  
HETATM    8  C   UNL     1      -7.073  15.487  68.880  1.00  0.00    -0.134 A  
HETATM    9  C   UNL     1      -7.764  14.363  68.411  1.00  0.00    -0.132 A  
HETATM   10  C   UNL     1      -9.038  14.528  67.860  1.00  0.00    -0.191 A  
HETATM   11  F   UNL     1     -10.787  15.903  67.140  1.00  0.00    -0.313 F  
HETATM   12  C   UNL     1      -9.579  15.807  67.716  1.00  0.00    -0.214 A  
BRANCH   9  13
HETATM   13  C   UNL     1      -7.102  13.028  68.446  1.00  0.00    -0.103 C  
HETATM   14  N   UNL     1      -7.535  12.044  67.706  1.00  0.00    -0.111 NA 
HETATM   15  N   UNL     1      -6.855  10.874  67.926  1.00  0.00    -0.067 NA 
HETATM   16  C   UNL     1      -7.072   9.664  67.308  1.00  0.00    -0.086 A  
HETATM   17  C   UNL     1      -5.940  12.841  69.411  1.00  0.00    -0.104 C  
HETATM   18  C   UNL     1      -6.198   8.793  67.921  1.00  0.00    -0.052 A  
HETATM   19  N   UNL     1      -5.420   9.432  68.844  1.00  0.00    -0.037 NA 
HETATM   20  N   UNL     1      -5.327  11.717  69.579  1.00  0.00    -0.056 NA 
HETATM   21  C   UNL     1      -5.809  10.689  68.833  1.00  0.00    -0.040 A  
BRANCH  16  22
HETATM   22  C   UNL     1      -8.015   9.446  66.182  1.00  0.00    -0.110 C  
BRANCH  22  23
HETATM   23  C   UNL     1      -9.219  10.359  66.192  1.00  0.00    -0.199 A  
HETATM   24  C   UNL     1     -11.279  11.094  67.240  1.00  0.00    -0.347 A  
HETATM   25  C   UNL     1     -10.192  10.217  67.183  1.00  0.00    -0.277 A  
HETATM   26  C   UNL     1     -11.453  12.105  66.308  1.00  0.00    -0.374 A  
HETATM   27  N   UNL     1     -12.527  12.910  66.408  1.00  0.00    -0.359 NA 
HETATM   28  C   UNL     1     -12.698  13.857  65.462  1.00  0.00    -0.499 A  
HETATM   29  C   UNL     1     -11.835  14.049  64.401  1.00  0.00    -0.453 A  
HETATM   30  C   UNL     1     -10.713  13.232  64.316  1.00  0.00    -0.408 A  
HETATM   31  C   UNL     1     -10.499  12.234  65.278  1.00  0.00    -0.315 A  
HETATM   32  C   UNL     1      -9.383  11.371  65.235  1.00  0.00    -0.192 A  
ENDBRANCH  22  23
ENDBRANCH  16  22
ENDBRANCH   9  13
ENDBRANCH   3   6
TORSDOF 4
ENDMDL
MODEL      108
REMARK 921   NORMALIZED FREE ENERGY PREDICTED BY IDOCK:   -5.71 KCAL/MOL
REMARK 922        TOTAL FREE ENERGY PREDICTED BY IDOCK:   -7.70 KCAL/MOL
REMARK 923 INTER-LIGAND FREE ENERGY PREDICTED BY IDOCK:   -6.80 KCAL/MOL
REMARK 924 INTRA-LIGAND FREE ENERGY PREDICTED BY IDOCK:   -0.90 KCAL/MOL
REMARK 927      BINDING AFFINITY PREDICTED BY RF-SCORE:    0.00 PKD
ROOT
HETATM    1  C   UNL     1     -10.689   1.601  62.363  1.00  0.00    -0.114 C  
HETATM    2  N   UNL     1     -10.787   2.372  63.577  1.00  0.00    -0.386 N  
HETATM    3  C   UNL     1      -9.690   3.000  64.123  1.00  0.00    -0.154 C  
HETATM    4  H   UNL     1     -11.690   2.454  64.043  1.00  0.00     0.000 HD 
HETATM    5  O   UNL     1      -8.583   2.986  63.595  1.00  0.00    -0.089 OA 
ENDROOT
BRANCH   3   6
HETATM    6  C   UNL     1      -9.878   3.696  65.429  1.00  0.00    -0.085 A  
HETATM    7  C   UNL     1     -10.641   4.875  65.468  1.00  0.00    -0.091 A  
HETATM    8  C   UNL     1     -10.776   5.602  66.659  1.00  0.00    -0.339 A  
HETATM    9  C   UNL     1     -10.141   5.165  67.828  1.00  0.00    -0.197 A  
HETATM   10  C   UNL     1      -9.429   3.963  67.807  1.00  0.00    -0.230 A  
HETATM   11  F   UNL     1      -8.562   2.125  66.650  1.00  0.00    -0.088 F  
HETATM   12  C   UNL     1      -9.295   3.248  66.615  1.00  0.00    -0.138 A  
BRANCH   9  13
HETATM   13  C   UNL     1     -10.180   6.021  69.047  1.00  0.00    -0.193 C  
HETATM   14  N   UNL     1      -9.603   7.192  69.064  1.00  0.00    -0.146 NA 
HETATM   15  N   UNL     1      -9.675   7.803  70.290  1.00  0.00    -0.179 NA 
HETATM   16  C   UNL     1      -9.164   9.034  70.630  1.00  0.00    -0.231 A  
HETATM   17  C   UNL     1     -10.870   5.461  70.283  1.00  0.00    -0.144 C  
HETATM   18  C   UNL     1      -9.422   9.162  71.978  1.00  0.00     0.220 A  
HETATM   19  N   UNL     1     -10.115   8.089  72.459  1.00  0.00    -0.252 NA 
HETATM   20  N   UNL     1     -10.914   6.078  71.416  1.00  0.00    -0.270 NA 
HETATM   21  C   UNL     1     -10.278   7.278  71.436  1.00  0.00    -0.188 A  
BRANCH  16  22
HETATM   22  C   UNL     1      -8.549   9.988  69.673  1.00  0.00    -0.198 C  
BRANCH  22  23
HETATM   23  C   UNL     1      -9.527  10.629  68.716  1.00  0.00    -0.186 A  
HETATM   24  C   UNL     1     -11.518  11.961  68.340  1.00  0.00    -0.357 A  
HETATM   25  C   UNL     1     -10.640  11.312  69.211  1.00  0.00    -0.187 A  
HETATM   26  C   UNL     1     -11.345  11.927  66.965  1.00  0.00    -0.329 A  
HETATM   27  N   UNL     1     -12.232  12.561  66.177  1.00  0.00    -0.608 NA 
HETATM   28  C   UNL     1     -12.065  12.474  64.840  1.00  0.00    -0.440 A  
HETATM   29  C   UNL     1     -11.038  11.775  64.236  1.00  0.00    -0.420 A  
HETATM   30  C   UNL     1     -10.109  11.143  65.055  1.00  0.00    -0.338 A  
HETATM   31  C   UNL     1     -10.246  11.207  66.450  1.00  0.00    -0.279 A  
HETATM   32  C   UNL     1      -9.339  10.577  67.327  1.00  0.00    -0.164 A  
ENDBRANCH  22  23
ENDBRANCH  16  22
ENDBRANCH   9  13
ENDBRANCH   3   6
TORSDOF 4
ENDMDL
MODEL      109
REMARK 921   NORMALIZED FREE ENERGY PREDICTED BY IDOCK:   -5.66 KCAL/MOL
REMARK 922        TOTAL FREE ENERGY PREDICTED BY IDOCK:   -7.65 KCAL/MOL
REMARK 923 INTER-LIGAND FREE ENERGY PREDICTED BY IDOCK:   -6.79 KCAL/MOL
REMARK 924 INTRA-LIGAND FREE ENERGY PREDICTED BY IDOCK:   -0.85 KCAL/MOL
REMARK 927      BINDING AFFINITY PREDICTED BY RF-SCORE:    0.00 PKD
ROOT
HETATM    1  C   UNL     1     -10.785   3.980  62.377  1.00  0.00    -0.153 C  
HETATM    2  N   UNL     1     -10.728   3.947  63.817  1.00  0.00    -0.403 N  
HETATM    3  C   UNL     1      -9.582   4.283  64.502  1.00  0.00    -0.146 C  
HETATM    4  H   UNL     1     -11.557   3.667  64.342  1.00  0.00     0.000 HD 
HETATM    5  O   UNL     1      -8.562   4.674  63.943  1.00  0.00    -0.123 OA 
ENDROOT
BRANCH   3   6
HETATM    6  C   UNL     1      -9.599   4.128  65.986  1.00  0.00    -0.198 A  
HETATM    7  C   UNL     1      -9.948   5.232  66.781  1.00  0.00    -0.224 A  
HETATM    8  C   UNL     1      -9.901   5.151  68.180  1.00  0.00    -0.204 A  
HETATM    9  C   UNL     1      -9.493   3.965  68.804  1.00  0.00    -0.224 A  
HETATM   10  C   UNL     1      -9.200   2.848  68.017  1.00  0.00    -0.248 A  
HETATM   11  F   UNL     1      -8.911   1.845  65.925  1.00  0.00    -0.109 F  
HETATM   12  C   UNL     1      -9.246   2.939  66.625  1.00  0.00    -0.114 A  
BRANCH   9  13
HETATM   13  C   UNL     1      -9.315   3.940  70.283  1.00  0.00    -0.168 C  
HETATM   14  N   UNL     1      -8.919   5.003  70.930  1.00  0.00    -0.131 NA 
HETATM   15  N   UNL     1      -8.736   4.772  72.270  1.00  0.00    -0.119 NA 
HETATM   16  C   UNL     1      -8.325   5.683  73.216  1.00  0.00    -0.117 A  
HETATM   17  C   UNL     1      -9.559   2.621  71.003  1.00  0.00    -0.140 C  
HETATM   18  C   UNL     1      -8.220   4.957  74.382  1.00  0.00    -0.102 A  
HETATM   19  N   UNL     1      -8.604   3.659  74.200  1.00  0.00    -0.088 NA 
HETATM   20  N   UNL     1      -9.376   2.455  72.270  1.00  0.00    -0.087 NA 
HETATM   21  C   UNL     1      -8.929   3.555  72.929  1.00  0.00    -0.095 A  
BRANCH  16  22
HETATM   22  C   UNL     1      -8.128   7.133  72.964  1.00  0.00    -0.121 C  
BRANCH  22  23
HETATM   23  C   UNL     1      -9.360   7.851  72.464  1.00  0.00    -0.258 A  
HETATM   24  C   UNL     1     -11.726   8.341  72.673  1.00  0.00    -0.406 A  
HETATM   25  C   UNL     1     -10.592   7.637  73.086  1.00  0.00    -0.438 A  
HETATM   26  C   UNL     1     -11.685   9.243  71.622  1.00  0.00    -0.392 A  
HETATM   27  N   UNL     1     -12.814   9.881  71.263  1.00  0.00    -0.363 NA 
HETATM   28  C   UNL     1     -12.758  10.721  70.207  1.00  0.00    -0.216 A  
HETATM   29  C   UNL     1     -11.610  10.963  69.478  1.00  0.00    -0.384 A  
HETATM   30  C   UNL     1     -10.440  10.322  69.869  1.00  0.00    -0.304 A  
HETATM   31  C   UNL     1     -10.456   9.440  70.960  1.00  0.00    -0.392 A  
HETATM   32  C   UNL     1      -9.301   8.755  71.394  1.00  0.00    -0.328 A  
ENDBRANCH  22  23
ENDBRANCH  16  22
ENDBRANCH   9  13
ENDBRANCH   3   6
TORSDOF 4
ENDMDL
MODEL      110
REMARK 921   NORMALIZED FREE ENERGY PREDICTED BY IDOCK:   -5.66 KCAL/MOL
REMARK 922        TOTAL FREE ENERGY PREDICTED BY IDOCK:   -7.64 KCAL/MOL
REMARK 923 INTER-LIGAND FREE ENERGY PREDICTED BY IDOCK:   -6.96 KCAL/MOL
REMARK 924 INTRA-LIGAND FREE ENERGY PREDICTED BY IDOCK:   -0.68 KCAL/MOL
REMARK 927      BINDING AFFINITY PREDICTED BY RF-SCORE:    0.00 PKD
ROOT
HETATM    1  C   UNL     1      -6.651   2.091  67.461  1.00  0.00    -0.031 C  
HETATM    2  N   UNL     1      -7.162   3.415  67.714  1.00  0.00    -0.054 N  
HETATM    3  C   UNL     1      -8.451   3.619  68.154  1.00  0.00    -0.093 C  
HETATM    4  H   UNL     1      -6.555   4.220  67.563  1.00  0.00     0.000 HD 
HETATM    5  O   UNL     1      -9.223   2.699  68.404  1.00  0.00    -0.161 OA 
ENDROOT
BRANCH   3   6
HETATM    6  C   UNL     1      -8.911   5.031  68.299  1.00  0.00    -0.110 A  
HETATM    7  C   UNL     1      -8.455   5.787  69.392  1.00  0.00    -0.112 A  
HETATM    8  C   UNL     1      -8.924   7.090  69.607  1.00  0.00    -0.141 A  
HETATM    9  C   UNL     1      -9.865   7.654  68.736  1.00  0.00    -0.165 A  
HETATM   10  C   UNL     1     -10.278   6.926  67.617  1.00  0.00    -0.235 A  
HETATM   11  F   UNL     1     -10.276   4.965  66.344  1.00  0.00    -0.183 F  
HETATM   12  C   UNL     1      -9.809   5.628  67.413  1.00  0.00    -0.143 A  
BRANCH   9  13
HETATM   13  C   UNL     1     -10.456   8.983  69.057  1.00  0.00    -0.218 C  
HETATM   14  N   UNL     1     -10.322   9.993  68.240  1.00  0.00    -0.183 NA 
HETATM   15  N   UNL     1     -10.863  11.152  68.735  1.00  0.00    -0.198 NA 
HETATM   16  C   UNL     1     -10.882  12.383  68.119  1.00  0.00    -0.221 A  
HETATM   17  C   UNL     1     -11.175   9.134  70.391  1.00  0.00    -0.240 C  
HETATM   18  C   UNL     1     -11.459  13.229  69.041  1.00  0.00    -0.302 A  
HETATM   19  N   UNL     1     -11.843  12.557  70.166  1.00  0.00    -0.303 NA 
HETATM   20  N   UNL     1     -11.672  10.249  70.810  1.00  0.00    -0.334 NA 
HETATM   21  C   UNL     1     -11.495  11.303  69.972  1.00  0.00    -0.275 A  
BRANCH  16  22
HETATM   22  C   UNL     1     -10.425  12.641  66.730  1.00  0.00    -0.254 C  
BRANCH  22  23
HETATM   23  C   UNL     1      -9.886  14.033  66.500  1.00  0.00    -0.298 A  
HETATM   24  C   UNL     1     -10.218  16.300  65.703  1.00  0.00    -0.368 A  
HETATM   25  C   UNL     1     -10.681  14.992  65.867  1.00  0.00    -0.337 A  
HETATM   26  C   UNL     1      -8.956  16.688  66.124  1.00  0.00    -0.286 A  
HETATM   27  N   UNL     1      -8.562  17.959  65.927  1.00  0.00    -0.507 NA 
HETATM   28  C   UNL     1      -7.312  18.300  66.305  1.00  0.00    -0.260 A  
HETATM   29  C   UNL     1      -6.416  17.422  66.883  1.00  0.00    -0.219 A  
HETATM   30  C   UNL     1      -6.837  16.115  67.109  1.00  0.00    -0.240 A  
HETATM   31  C   UNL     1      -8.128  15.720  66.729  1.00  0.00    -0.297 A  
HETATM   32  C   UNL     1      -8.603  14.406  66.926  1.00  0.00    -0.191 A  
ENDBRANCH  22  23
ENDBRANCH  16  22
ENDBRANCH   9  13
ENDBRANCH   3   6
TORSDOF 4
ENDMDL
MODEL      111
REMARK 921   NORMALIZED FREE ENERGY PREDICTED BY IDOCK:   -5.62 KCAL/MOL
REMARK 922        TOTAL FREE ENERGY PREDICTED BY IDOCK:   -7.60 KCAL/MOL
REMARK 923 INTER-LIGAND FREE ENERGY PREDICTED BY IDOCK:   -7.37 KCAL/MOL
REMARK 924 INTRA-LIGAND FREE ENERGY PREDICTED BY IDOCK:   -0.23 KCAL/MOL
REMARK 927      BINDING AFFINITY PREDICTED BY RF-SCORE:    0.00 PKD
ROOT
HETATM    1  C   UNL     1     -12.684  15.652  74.446  1.00  0.00    -0.343 C  
HETATM    2  N   UNL     1     -12.321  14.931  73.252  1.00  0.00    -0.381 N  
HETATM    3  C   UNL     1     -11.930  15.585  72.105  1.00  0.00    -0.446 C  
HETATM    4  H   UNL     1     -12.355  13.912  73.256  1.00  0.00     0.000 HD 
HETATM    5  O   UNL     1     -11.819  16.805  72.039  1.00  0.00    -0.272 OA 
ENDROOT
BRANCH   3   6
HETATM    6  C   UNL     1     -11.664  14.752  70.897  1.00  0.00    -0.360 A  
HETATM    7  C   UNL     1     -10.749  15.217  69.937  1.00  0.00    -0.300 A  
HETATM    8  C   UNL     1     -10.529  14.503  68.751  1.00  0.00    -0.246 A  
HETATM    9  C   UNL     1     -11.230  13.316  68.503  1.00  0.00    -0.304 A  
HETATM   10  C   UNL     1     -12.098  12.821  69.480  1.00  0.00    -0.265 A  
HETATM   11  F   UNL     1     -13.192  13.035  71.535  1.00  0.00    -0.435 F  
HETATM   12  C   UNL     1     -12.314  13.541  70.656  1.00  0.00    -0.358 A  
BRANCH   9  13
HETATM   13  C   UNL     1     -11.089  12.645  67.180  1.00  0.00    -0.280 C  
HETATM   14  N   UNL     1     -10.198  11.709  66.993  1.00  0.00    -0.209 NA 
HETATM   15  N   UNL     1     -10.160  11.262  65.697  1.00  0.00    -0.236 NA 
HETATM   16  C   UNL     1      -9.334  10.290  65.182  1.00  0.00    -0.226 A  
HETATM   17  C   UNL     1     -11.984  13.124  66.045  1.00  0.00    -0.433 C  
HETATM   18  C   UNL     1      -9.622  10.259  63.835  1.00  0.00    -0.293 A  
HETATM   19  N   UNL     1     -10.625  11.130  63.517  1.00  0.00    -0.368 NA 
HETATM   20  N   UNL     1     -11.913  12.667  64.840  1.00  0.00    -0.383 NA 
HETATM   21  C   UNL     1     -10.957  11.722  64.645  1.00  0.00    -0.310 A  
BRANCH  16  22
HETATM   22  C   UNL     1      -8.412   9.450  65.988  1.00  0.00    -0.132 C  
BRANCH  22  23
HETATM   23  C   UNL     1      -8.163   8.074  65.417  1.00  0.00    -0.152 A  
HETATM   24  C   UNL     1      -8.719   5.715  65.323  1.00  0.00    -0.120 A  
HETATM   25  C   UNL     1      -8.897   6.982  65.885  1.00  0.00    -0.126 A  
HETATM   26  C   UNL     1      -7.796   5.484  64.316  1.00  0.00    -0.110 A  
HETATM   27  N   UNL     1      -7.661   4.239  63.823  1.00  0.00    -0.073 NA 
HETATM   28  C   UNL     1      -6.724   4.032  62.874  1.00  0.00    -0.034 A  
HETATM   29  C   UNL     1      -5.897   5.022  62.380  1.00  0.00    -0.014 A  
HETATM   30  C   UNL     1      -6.057   6.312  62.874  1.00  0.00    -0.026 A  
HETATM   31  C   UNL     1      -7.020   6.571  63.861  1.00  0.00    -0.047 A  
HETATM   32  C   UNL     1      -7.218   7.858  64.403  1.00  0.00    -0.081 A  
ENDBRANCH  22  23
ENDBRANCH  16  22
ENDBRANCH   9  13
ENDBRANCH   3   6
TORSDOF 4
ENDMDL
MODEL      112
REMARK 921   NORMALIZED FREE ENERGY PREDICTED BY IDOCK:   -5.62 KCAL/MOL
REMARK 922        TOTAL FREE ENERGY PREDICTED BY IDOCK:   -7.59 KCAL/MOL
REMARK 923 INTER-LIGAND FREE ENERGY PREDICTED BY IDOCK:   -6.74 KCAL/MOL
REMARK 924 INTRA-LIGAND FREE ENERGY PREDICTED BY IDOCK:   -0.85 KCAL/MOL
REMARK 927      BINDING AFFINITY PREDICTED BY RF-SCORE:    0.00 PKD
ROOT
HETATM    1  C   UNL     1     -12.424  13.154  63.212  1.00  0.00    -0.162 C  
HETATM    2  N   UNL     1     -12.026  12.380  64.361  1.00  0.00    -0.387 N  
HETATM    3  C   UNL     1     -10.892  12.686  65.080  1.00  0.00    -0.290 C  
HETATM    4  H   UNL     1     -12.598  11.586  64.648  1.00  0.00     0.000 HD 
HETATM    5  O   UNL     1     -10.182  13.653  64.824  1.00  0.00    -0.392 OA 
ENDROOT
BRANCH   3   6
HETATM    6  C   UNL     1     -10.519  11.768  66.195  1.00  0.00    -0.284 A  
HETATM    7  C   UNL     1     -10.533  12.258  67.512  1.00  0.00    -0.230 A  
HETATM    8  C   UNL     1     -10.115  11.452  68.580  1.00  0.00    -0.217 A  
HETATM    9  C   UNL     1      -9.665  10.146  68.345  1.00  0.00    -0.157 A  
HETATM   10  C   UNL     1      -9.703   9.638  67.044  1.00  0.00    -0.232 A  
HETATM   11  F   UNL     1     -10.089   9.916  64.754  1.00  0.00    -0.396 F  
HETATM   12  C   UNL     1     -10.117  10.448  65.986  1.00  0.00    -0.243 A  
BRANCH   9  13
HETATM   13  C   UNL     1      -9.093   9.354  69.470  1.00  0.00    -0.165 C  
HETATM   14  N   UNL     1      -9.657   8.245  69.865  1.00  0.00    -0.170 NA 
HETATM   15  N   UNL     1      -9.039   7.694  70.958  1.00  0.00    -0.147 NA 
HETATM   16  C   UNL     1      -9.391   6.535  71.610  1.00  0.00    -0.146 A  
HETATM   17  C   UNL     1      -7.862   9.910  70.172  1.00  0.00    -0.171 C  
HETATM   18  C   UNL     1      -8.525   6.453  72.678  1.00  0.00    -0.122 A  
HETATM   19  N   UNL     1      -7.624   7.480  72.672  1.00  0.00    -0.080 NA 
HETATM   20  N   UNL     1      -7.313   9.351  71.198  1.00  0.00    -0.320 NA 
HETATM   21  C   UNL     1      -7.928   8.218  71.626  1.00  0.00    -0.128 A  
BRANCH  16  22
HETATM   22  C   UNL     1     -10.446   5.595  71.152  1.00  0.00    -0.306 C  
BRANCH  22  23
HETATM   23  C   UNL     1     -10.062   4.766  69.949  1.00  0.00    -0.299 A  
HETATM   24  C   UNL     1      -9.163   2.712  69.024  1.00  0.00    -0.216 A  
HETATM   25  C   UNL     1      -9.467   3.515  70.126  1.00  0.00    -0.252 A  
HETATM   26  C   UNL     1      -9.403   3.131  67.725  1.00  0.00    -0.203 A  
HETATM   27  N   UNL     1      -9.077   2.318  66.703  1.00  0.00    -0.110 NA 
HETATM   28  C   UNL     1      -9.279   2.767  65.447  1.00  0.00    -0.124 A  
HETATM   29  C   UNL     1      -9.802   4.011  65.150  1.00  0.00    -0.203 A  
HETATM   30  C   UNL     1     -10.162   4.838  66.209  1.00  0.00    -0.315 A  
HETATM   31  C   UNL     1      -9.967   4.409  67.530  1.00  0.00    -0.126 A  
HETATM   32  C   UNL     1     -10.305   5.210  68.641  1.00  0.00    -0.148 A  
ENDBRANCH  22  23
ENDBRANCH  16  22
ENDBRANCH   9  13
ENDBRANCH   3   6
TORSDOF 4
ENDMDL
MODEL      113
REMARK 921   NORMALIZED FREE ENERGY PREDICTED BY IDOCK:   -5.61 KCAL/MOL
REMARK 922        TOTAL FREE ENERGY PREDICTED BY IDOCK:   -7.58 KCAL/MOL
REMARK 923 INTER-LIGAND FREE ENERGY PREDICTED BY IDOCK:   -7.08 KCAL/MOL
REMARK 924 INTRA-LIGAND FREE ENERGY PREDICTED BY IDOCK:   -0.50 KCAL/MOL
REMARK 927      BINDING AFFINITY PREDICTED BY RF-SCORE:    0.00 PKD
ROOT
HETATM    1  C   UNL     1      -5.417  21.205  66.012  1.00  0.00    -0.234 C  
HETATM    2  N   UNL     1      -6.285  20.083  66.270  1.00  0.00    -0.181 N  
HETATM    3  C   UNL     1      -7.469  20.230  66.958  1.00  0.00    -0.292 C  
HETATM    4  H   UNL     1      -6.017  19.158  65.934  1.00  0.00     0.000 HD 
HETATM    5  O   UNL     1      -7.881  21.318  67.349  1.00  0.00    -0.312 OA 
ENDROOT
BRANCH   3   6
HETATM    6  C   UNL     1      -8.251  18.994  67.250  1.00  0.00    -0.294 A  
HETATM    7  C   UNL     1      -7.694  18.022  68.099  1.00  0.00    -0.274 A  
HETATM    8  C   UNL     1      -8.361  16.812  68.337  1.00  0.00    -0.222 A  
HETATM    9  C   UNL     1      -9.591  16.552  67.721  1.00  0.00    -0.232 A  
HETATM   10  C   UNL     1     -10.175  17.539  66.921  1.00  0.00    -0.329 A  
HETATM   11  F   UNL     1     -10.094  19.629  65.875  1.00  0.00    -0.449 F  
HETATM   12  C   UNL     1      -9.502  18.739  66.687  1.00  0.00    -0.330 A  
BRANCH   9  13
HETATM   13  C   UNL     1     -10.217  15.209  67.873  1.00  0.00    -0.232 C  
HETATM   14  N   UNL     1      -9.565  14.124  67.554  1.00  0.00    -0.219 NA 
HETATM   15  N   UNL     1     -10.323  12.989  67.686  1.00  0.00    -0.220 NA 
HETATM   16  C   UNL     1      -9.928  11.696  67.427  1.00  0.00    -0.183 A  
HETATM   17  C   UNL     1     -11.657  15.151  68.363  1.00  0.00    -0.337 C  
HETATM   18  C   UNL     1     -11.057  10.934  67.634  1.00  0.00    -0.313 A  
HETATM   19  N   UNL     1     -12.106  11.698  68.060  1.00  0.00    -0.572 NA 
HETATM   20  N   UNL     1     -12.329  14.054  68.475  1.00  0.00    -0.154 NA 
HETATM   21  C   UNL     1     -11.656  12.934  68.105  1.00  0.00    -0.336 A  
BRANCH  16  22
HETATM   22  C   UNL     1      -8.544  11.290  67.077  1.00  0.00    -0.148 C  
BRANCH  22  23
HETATM   23  C   UNL     1      -8.404   9.842  66.670  1.00  0.00    -0.124 A  
HETATM   24  C   UNL     1      -8.353   7.493  67.275  1.00  0.00    -0.118 A  
HETATM   25  C   UNL     1      -8.420   8.840  67.643  1.00  0.00    -0.125 A  
HETATM   26  C   UNL     1      -8.235   7.101  65.951  1.00  0.00    -0.132 A  
HETATM   27  N   UNL     1      -8.163   5.789  65.660  1.00  0.00    -0.122 NA 
HETATM   28  C   UNL     1      -8.002   5.436  64.367  1.00  0.00    -0.117 A  
HETATM   29  C   UNL     1      -7.910   6.341  63.328  1.00  0.00    -0.099 A  
HETATM   30  C   UNL     1      -8.012   7.694  63.630  1.00  0.00    -0.089 A  
HETATM   31  C   UNL     1      -8.178   8.105  64.961  1.00  0.00    -0.157 A  
HETATM   32  C   UNL     1      -8.277   9.464  65.325  1.00  0.00    -0.133 A  
ENDBRANCH  22  23
ENDBRANCH  16  22
ENDBRANCH   9  13
ENDBRANCH   3   6
TORSDOF 4
ENDMDL
MODEL      114
REMARK 921   NORMALIZED FREE ENERGY PREDICTED BY IDOCK:   -5.55 KCAL/MOL
REMARK 922        TOTAL FREE ENERGY PREDICTED BY IDOCK:   -7.51 KCAL/MOL
REMARK 923 INTER-LIGAND FREE ENERGY PREDICTED BY IDOCK:   -6.89 KCAL/MOL
REMARK 924 INTRA-LIGAND FREE ENERGY PREDICTED BY IDOCK:   -0.61 KCAL/MOL
REMARK 927      BINDING AFFINITY PREDICTED BY RF-SCORE:    0.00 PKD
ROOT
HETATM    1  C   UNL     1     -13.518  14.445  72.727  1.00  0.00    -0.485 C  
HETATM    2  N   UNL     1     -12.885  13.881  71.560  1.00  0.00    -0.346 N  
HETATM    3  C   UNL     1     -12.644  14.637  70.434  1.00  0.00    -0.343 C  
HETATM    4  H   UNL     1     -12.610  12.900  71.569  1.00  0.00     0.000 HD 
HETATM    5  O   UNL     1     -12.902  15.834  70.368  1.00  0.00    -0.401 OA 
ENDROOT
BRANCH   3   6
HETATM    6  C   UNL     1     -12.068  13.937  69.250  1.00  0.00    -0.383 A  
HETATM    7  C   UNL     1     -11.915  12.541  69.292  1.00  0.00    -0.304 A  
HETATM    8  C   UNL     1     -11.307  11.855  68.232  1.00  0.00    -0.335 A  
HETATM    9  C   UNL     1     -10.831  12.557  67.117  1.00  0.00    -0.282 A  
HETATM   10  C   UNL     1     -11.032  13.938  67.047  1.00  0.00    -0.301 A  
HETATM   11  F   UNL     1     -11.759  15.946  68.000  1.00  0.00    -0.329 F  
HETATM   12  C   UNL     1     -11.635  14.614  68.109  1.00  0.00    -0.335 A  
BRANCH   9  13
HETATM   13  C   UNL     1     -10.064  11.831  66.067  1.00  0.00    -0.231 C  
HETATM   14  N   UNL     1      -8.937  11.234  66.349  1.00  0.00    -0.183 NA 
HETATM   15  N   UNL     1      -8.334  10.686  65.246  1.00  0.00    -0.155 NA 
HETATM   16  C   UNL     1      -7.144   9.997  65.212  1.00  0.00    -0.137 A  
HETATM   17  C   UNL     1     -10.613  11.854  64.647  1.00  0.00    -0.306 C  
HETATM   18  C   UNL     1      -6.932   9.724  63.879  1.00  0.00    -0.119 A  
HETATM   19  N   UNL     1      -7.969  10.166  63.106  1.00  0.00    -0.150 NA 
HETATM   20  N   UNL     1     -10.008  11.317  63.640  1.00  0.00    -0.321 NA 
HETATM   21  C   UNL     1      -8.819  10.732  63.936  1.00  0.00    -0.115 A  
BRANCH  16  22
HETATM   22  C   UNL     1      -6.356   9.610  66.410  1.00  0.00    -0.069 C  
BRANCH  22  23
HETATM   23  C   UNL     1      -7.087   8.700  67.369  1.00  0.00    -0.080 A  
HETATM   24  C   UNL     1      -8.032   6.526  67.882  1.00  0.00    -0.109 A  
HETATM   25  C   UNL     1      -7.412   7.398  66.983  1.00  0.00    -0.098 A  
HETATM   26  C   UNL     1      -8.379   6.921  69.164  1.00  0.00    -0.125 A  
HETATM   27  N   UNL     1      -8.987   6.040  69.979  1.00  0.00    -0.144 NA 
HETATM   28  C   UNL     1      -9.355   6.463  71.207  1.00  0.00    -0.156 A  
HETATM   29  C   UNL     1      -9.142   7.746  71.674  1.00  0.00    -0.163 A  
HETATM   30  C   UNL     1      -8.491   8.646  70.838  1.00  0.00    -0.195 A  
HETATM   31  C   UNL     1      -8.093   8.246  69.553  1.00  0.00    -0.114 A  
HETATM   32  C   UNL     1      -7.437   9.121  68.661  1.00  0.00    -0.080 A  
ENDBRANCH  22  23
ENDBRANCH  16  22
ENDBRANCH   9  13
ENDBRANCH   3   6
TORSDOF 4
ENDMDL
MODEL      115
REMARK 921   NORMALIZED FREE ENERGY PREDICTED BY IDOCK:   -5.50 KCAL/MOL
REMARK 922        TOTAL FREE ENERGY PREDICTED BY IDOCK:   -7.45 KCAL/MOL
REMARK 923 INTER-LIGAND FREE ENERGY PREDICTED BY IDOCK:   -7.10 KCAL/MOL
REMARK 924 INTRA-LIGAND FREE ENERGY PREDICTED BY IDOCK:   -0.35 KCAL/MOL
REMARK 927      BINDING AFFINITY PREDICTED BY RF-SCORE:    0.00 PKD
ROOT
HETATM    1  C   UNL     1     -12.248  14.538  64.495  1.00  0.00    -0.465 C  
HETATM    2  N   UNL     1     -12.142  13.532  65.523  1.00  0.00    -0.392 N  
HETATM    3  C   UNL     1     -11.823  13.859  66.822  1.00  0.00    -0.424 C  
HETATM    4  H   UNL     1     -12.308  12.555  65.282  1.00  0.00     0.000 HD 
HETATM    5  O   UNL     1     -11.657  15.016  67.196  1.00  0.00    -0.342 OA 
ENDROOT
BRANCH   3   6
HETATM    6  C   UNL     1     -11.649  12.737  67.789  1.00  0.00    -0.405 A  
HETATM    7  C   UNL     1     -11.070  11.537  67.341  1.00  0.00    -0.339 A  
HETATM    8  C   UNL     1     -10.960  10.432  68.197  1.00  0.00    -0.334 A  
HETATM    9  C   UNL     1     -11.438  10.508  69.511  1.00  0.00    -0.339 A  
HETATM   10  C   UNL     1     -11.963  11.716  69.976  1.00  0.00    -0.429 A  
HETATM   11  F   UNL     1     -12.625  13.929  69.610  1.00  0.00    -0.362 F  
HETATM   12  C   UNL     1     -12.072  12.810  69.116  1.00  0.00    -0.158 A  
BRANCH   9  13
HETATM   13  C   UNL     1     -11.442   9.284  70.361  1.00  0.00    -0.213 C  
HETATM   14  N   UNL     1     -10.447   8.439  70.326  1.00  0.00    -0.213 NA 
HETATM   15  N   UNL     1     -10.657   7.336  71.114  1.00  0.00    -0.222 NA 
HETATM   16  C   UNL     1      -9.804   6.271  71.289  1.00  0.00    -0.175 A  
HETATM   17  C   UNL     1     -12.666   9.029  71.230  1.00  0.00    -0.262 C  
HETATM   18  C   UNL     1     -10.494   5.397  72.101  1.00  0.00    -0.218 A  
HETATM   19  N   UNL     1     -11.704   5.908  72.473  1.00  0.00    -0.287 NA 
HETATM   20  N   UNL     1     -12.815   7.975  71.959  1.00  0.00    -0.307 NA 
HETATM   21  C   UNL     1     -11.793   7.083  71.888  1.00  0.00    -0.305 A  
BRANCH  16  22
HETATM   22  C   UNL     1      -8.425   6.194  70.744  1.00  0.00    -0.131 C  
BRANCH  22  23
HETATM   23  C   UNL     1      -8.224   5.111  69.710  1.00  0.00    -0.089 A  
HETATM   24  C   UNL     1      -8.465   2.795  69.032  1.00  0.00    -0.100 A  
HETATM   25  C   UNL     1      -8.589   3.794  70.001  1.00  0.00    -0.107 A  
HETATM   26  C   UNL     1      -7.950   3.056  67.772  1.00  0.00    -0.074 A  
HETATM   27  N   UNL     1      -7.843   2.048  66.887  1.00  0.00    -0.066 NA 
HETATM   28  C   UNL     1      -7.296   2.319  65.683  1.00  0.00    -0.066 A  
HETATM   29  C   UNL     1      -6.842   3.569  65.308  1.00  0.00    -0.049 A  
HETATM   30  C   UNL     1      -6.978   4.612  66.216  1.00  0.00    -0.070 A  
HETATM   31  C   UNL     1      -7.540   4.373  67.480  1.00  0.00    -0.077 A  
HETATM   32  C   UNL     1      -7.693   5.393  68.443  1.00  0.00    -0.081 A  
ENDBRANCH  22  23
ENDBRANCH  16  22
ENDBRANCH   9  13
ENDBRANCH   3   6
TORSDOF 4
ENDMDL
MODEL      116
REMARK 921   NORMALIZED FREE ENERGY PREDICTED BY IDOCK:   -5.50 KCAL/MOL
REMARK 922        TOTAL FREE ENERGY PREDICTED BY IDOCK:   -7.44 KCAL/MOL
REMARK 923 INTER-LIGAND FREE ENERGY PREDICTED BY IDOCK:   -6.89 KCAL/MOL
REMARK 924 INTRA-LIGAND FREE ENERGY PREDICTED BY IDOCK:   -0.55 KCAL/MOL
REMARK 927      BINDING AFFINITY PREDICTED BY RF-SCORE:    0.00 PKD
ROOT
HETATM    1  C   UNL     1      -6.034   5.504  67.529  1.00  0.00    -0.022 C  
HETATM    2  N   UNL     1      -6.851   6.633  67.897  1.00  0.00    -0.074 N  
HETATM    3  C   UNL     1      -7.512   7.385  66.950  1.00  0.00    -0.097 C  
HETATM    4  H   UNL     1      -6.942   6.883  68.882  1.00  0.00     0.000 HD 
HETATM    5  O   UNL     1      -7.489   7.117  65.753  1.00  0.00    -0.076 OA 
ENDROOT
BRANCH   3   6
HETATM    6  C   UNL     1      -8.257   8.586  67.426  1.00  0.00    -0.109 A  
HETATM    7  C   UNL     1      -9.548   8.828  66.927  1.00  0.00    -0.249 A  
HETATM    8  C   UNL     1     -10.251   9.986  67.289  1.00  0.00    -0.275 A  
HETATM    9  C   UNL     1      -9.667  10.925  68.148  1.00  0.00    -0.174 A  
HETATM   10  C   UNL     1      -8.407  10.661  68.691  1.00  0.00    -0.137 A  
HETATM   11  F   UNL     1      -6.489   9.332  68.843  1.00  0.00    -0.046 F  
HETATM   12  C   UNL     1      -7.713   9.507  68.322  1.00  0.00    -0.086 A  
BRANCH   9  13
HETATM   13  C   UNL     1     -10.368  12.214  68.410  1.00  0.00    -0.229 C  
HETATM   14  N   UNL     1      -9.960  13.325  67.858  1.00  0.00    -0.227 NA 
HETATM   15  N   UNL     1     -10.676  14.418  68.273  1.00  0.00    -0.237 NA 
HETATM   16  C   UNL     1     -10.492  15.724  67.880  1.00  0.00    -0.270 A  
HETATM   17  C   UNL     1     -11.541  12.196  69.379  1.00  0.00    -0.317 C  
HETATM   18  C   UNL     1     -11.395  16.448  68.627  1.00  0.00    -0.289 A  
HETATM   19  N   UNL     1     -12.159  15.635  69.415  1.00  0.00    -0.328 NA 
HETATM   20  N   UNL     1     -12.188  13.255  69.736  1.00  0.00    -0.264 NA 
HETATM   21  C   UNL     1     -11.733  14.411  69.187  1.00  0.00    -0.317 A  
BRANCH  16  22
HETATM   22  C   UNL     1      -9.549  16.162  66.819  1.00  0.00    -0.256 C  
BRANCH  22  23
HETATM   23  C   UNL     1      -8.734  17.383  67.176  1.00  0.00    -0.239 A  
HETATM   24  C   UNL     1      -8.244  19.738  66.860  1.00  0.00    -0.342 A  
HETATM   25  C   UNL     1      -8.948  18.586  66.499  1.00  0.00    -0.300 A  
HETATM   26  C   UNL     1      -7.293  19.728  67.868  1.00  0.00    -0.284 A  
HETATM   27  N   UNL     1      -6.639  20.867  68.162  1.00  0.00    -0.271 NA 
HETATM   28  C   UNL     1      -5.685  20.821  69.117  1.00  0.00    -0.363 A  
HETATM   29  C   UNL     1      -5.345  19.675  69.809  1.00  0.00    -0.226 A  
HETATM   30  C   UNL     1      -6.041  18.506  69.520  1.00  0.00    -0.277 A  
HETATM   31  C   UNL     1      -7.039  18.511  68.533  1.00  0.00    -0.293 A  
HETATM   32  C   UNL     1      -7.770  17.353  68.194  1.00  0.00    -0.221 A  
ENDBRANCH  22  23
ENDBRANCH  16  22
ENDBRANCH   9  13
ENDBRANCH   3   6
TORSDOF 4
ENDMDL
MODEL      117
REMARK 921   NORMALIZED FREE ENERGY PREDICTED BY IDOCK:   -5.50 KCAL/MOL
REMARK 922        TOTAL FREE ENERGY PREDICTED BY IDOCK:   -7.44 KCAL/MOL
REMARK 923 INTER-LIGAND FREE ENERGY PREDICTED BY IDOCK:   -8.17 KCAL/MOL
REMARK 924 INTRA-LIGAND FREE ENERGY PREDICTED BY IDOCK:    0.73 KCAL/MOL
REMARK 927      BINDING AFFINITY PREDICTED BY RF-SCORE:    0.00 PKD
ROOT
HETATM    1  C   UNL     1      -8.135   6.115  65.094  1.00  0.00    -0.133 C  
HETATM    2  N   UNL     1      -8.946   6.890  65.999  1.00  0.00    -0.265 N  
HETATM    3  C   UNL     1      -8.729   8.237  66.189  1.00  0.00    -0.150 C  
HETATM    4  H   UNL     1      -9.699   6.431  66.511  1.00  0.00     0.000 HD 
HETATM    5  O   UNL     1      -7.876   8.867  65.573  1.00  0.00    -0.095 OA 
ENDROOT
BRANCH   3   6
HETATM    6  C   UNL     1      -9.564   8.928  67.213  1.00  0.00    -0.212 A  
HETATM    7  C   UNL     1     -10.622   9.750  66.788  1.00  0.00    -0.208 A  
HETATM    8  C   UNL     1     -11.381  10.478  67.715  1.00  0.00    -0.267 A  
HETATM    9  C   UNL     1     -11.085  10.403  69.082  1.00  0.00    -0.296 A  
HETATM   10  C   UNL     1     -10.071   9.544  69.513  1.00  0.00    -0.218 A  
HETATM   11  F   UNL     1      -8.330   8.051  69.057  1.00  0.00    -0.121 F  
HETATM   12  C   UNL     1      -9.318   8.826  68.583  1.00  0.00    -0.141 A  
BRANCH   9  13
HETATM   13  C   UNL     1     -11.809  11.289  70.037  1.00  0.00    -0.367 C  
HETATM   14  N   UNL     1     -11.443  12.531  70.209  1.00  0.00     0.043 NA 
HETATM   15  N   UNL     1     -12.172  13.170  71.180  1.00  0.00    -0.200 NA 
HETATM   16  C   UNL     1     -12.029  14.474  71.596  1.00  0.00    -0.253 A  
HETATM   17  C   UNL     1     -12.951  10.682  70.838  1.00  0.00    -0.340 C  
HETATM   18  C   UNL     1     -12.926  14.613  72.632  1.00  0.00    -0.443 A  
HETATM   19  N   UNL     1     -13.648  13.470  72.828  1.00  0.00    -0.671 NA 
HETATM   20  N   UNL     1     -13.611  11.328  71.741  1.00  0.00    -0.082 NA 
HETATM   21  C   UNL     1     -13.200  12.607  71.941  1.00  0.00    -0.403 A  
BRANCH  16  22
HETATM   22  C   UNL     1     -11.130  15.470  70.962  1.00  0.00    -0.387 C  
BRANCH  22  23
HETATM   23  C   UNL     1     -11.242  15.542  69.457  1.00  0.00    -0.300 A  
HETATM   24  C   UNL     1     -10.795  16.710  67.379  1.00  0.00    -0.186 A  
HETATM   25  C   UNL     1     -10.753  16.658  68.775  1.00  0.00    -0.342 A  
HETATM   26  C   UNL     1     -11.347  15.687  66.624  1.00  0.00     0.037 A  
HETATM   27  N   UNL     1     -11.370  15.801  65.284  1.00  0.00    -0.160 NA 
HETATM   28  C   UNL     1     -11.954  14.811  64.575  1.00  0.00    -0.440 A  
HETATM   29  C   UNL     1     -12.526  13.691  65.145  1.00  0.00    -0.488 A  
HETATM   30  C   UNL     1     -12.477  13.565  66.529  1.00  0.00    -0.309 A  
HETATM   31  C   UNL     1     -11.881  14.572  67.303  1.00  0.00    -0.419 A  
HETATM   32  C   UNL     1     -11.812  14.500  68.711  1.00  0.00    -0.350 A  
ENDBRANCH  22  23
ENDBRANCH  16  22
ENDBRANCH   9  13
ENDBRANCH   3   6
TORSDOF 4
ENDMDL
MODEL      118
REMARK 921   NORMALIZED FREE ENERGY PREDICTED BY IDOCK:   -5.50 KCAL/MOL
REMARK 922        TOTAL FREE ENERGY PREDICTED BY IDOCK:   -7.44 KCAL/MOL
REMARK 923 INTER-LIGAND FREE ENERGY PREDICTED BY IDOCK:   -7.52 KCAL/MOL
REMARK 924 INTRA-LIGAND FREE ENERGY PREDICTED BY IDOCK:    0.08 KCAL/MOL
REMARK 927      BINDING AFFINITY PREDICTED BY RF-SCORE:    0.00 PKD
ROOT
HETATM    1  C   UNL     1      -9.867  18.876  66.845  1.00  0.00    -0.329 C  
HETATM    2  N   UNL     1     -10.182  17.611  67.461  1.00  0.00    -0.334 N  
HETATM    3  C   UNL     1     -10.393  16.476  66.711  1.00  0.00    -0.296 C  
HETATM    4  H   UNL     1     -10.250  17.555  68.477  1.00  0.00     0.000 HD 
HETATM    5  O   UNL     1     -10.281  16.455  65.489  1.00  0.00    -0.496 OA 
ENDROOT
BRANCH   3   6
HETATM    6  C   UNL     1     -10.802  15.239  67.438  1.00  0.00    -0.304 A  
HETATM    7  C   UNL     1     -11.684  15.350  68.526  1.00  0.00    -0.355 A  
HETATM    8  C   UNL     1     -12.031  14.223  69.284  1.00  0.00    -0.375 A  
HETATM    9  C   UNL     1     -11.492  12.969  68.971  1.00  0.00    -0.353 A  
HETATM   10  C   UNL     1     -10.659  12.845  67.855  1.00  0.00    -0.232 A  
HETATM   11  F   UNL     1      -9.477  13.797  66.076  1.00  0.00    -0.274 F  
HETATM   12  C   UNL     1     -10.315  13.974  67.109  1.00  0.00    -0.265 A  
BRANCH   9  13
HETATM   13  C   UNL     1     -11.760  11.811  69.869  1.00  0.00    -0.323 C  
HETATM   14  N   UNL     1     -11.089  10.697  69.748  1.00  0.00    -0.277 NA 
HETATM   15  N   UNL     1     -11.523   9.719  70.606  1.00  0.00    -0.300 NA 
HETATM   16  C   UNL     1     -11.026   8.441  70.721  1.00  0.00    -0.247 A  
HETATM   17  C   UNL     1     -12.875  11.956  70.896  1.00  0.00    -0.130 C  
HETATM   18  C   UNL     1     -11.837   7.830  71.652  1.00  0.00    -0.287 A  
HETATM   19  N   UNL     1     -12.769   8.695  72.150  1.00  0.00    -0.369 NA 
HETATM   20  N   UNL     1     -13.244  11.004  71.686  1.00  0.00    -0.401 NA 
HETATM   21  C   UNL     1     -12.567   9.837  71.527  1.00  0.00    -0.398 A  
BRANCH  16  22
HETATM   22  C   UNL     1      -9.825   7.934  70.010  1.00  0.00    -0.181 C  
BRANCH  22  23
HETATM   23  C   UNL     1      -9.217   6.694  70.621  1.00  0.00    -0.159 A  
HETATM   24  C   UNL     1      -7.894   4.676  70.380  1.00  0.00    -0.054 A  
HETATM   25  C   UNL     1      -8.514   5.794  69.817  1.00  0.00    -0.123 A  
HETATM   26  C   UNL     1      -7.977   4.397  71.735  1.00  0.00    -0.089 A  
HETATM   27  N   UNL     1      -7.369   3.297  72.216  1.00  0.00    -0.050 NA 
HETATM   28  C   UNL     1      -7.504   3.023  73.531  1.00  0.00    -0.051 A  
HETATM   29  C   UNL     1      -8.226   3.807  74.410  1.00  0.00    -0.085 A  
HETATM   30  C   UNL     1      -8.831   4.956  73.914  1.00  0.00    -0.114 A  
HETATM   31  C   UNL     1      -8.717   5.276  72.552  1.00  0.00    -0.120 A  
HETATM   32  C   UNL     1      -9.318   6.424  71.994  1.00  0.00    -0.151 A  
ENDBRANCH  22  23
ENDBRANCH  16  22
ENDBRANCH   9  13
ENDBRANCH   3   6
TORSDOF 4
ENDMDL
MODEL      119
REMARK 921   NORMALIZED FREE ENERGY PREDICTED BY IDOCK:   -5.49 KCAL/MOL
REMARK 922        TOTAL FREE ENERGY PREDICTED BY IDOCK:   -7.43 KCAL/MOL
REMARK 923 INTER-LIGAND FREE ENERGY PREDICTED BY IDOCK:   -6.62 KCAL/MOL
REMARK 924 INTRA-LIGAND FREE ENERGY PREDICTED BY IDOCK:   -0.81 KCAL/MOL
REMARK 927      BINDING AFFINITY PREDICTED BY RF-SCORE:    0.00 PKD
ROOT
HETATM    1  C   UNL     1      -6.203   3.739  67.301  1.00  0.00    -0.036 C  
HETATM    2  N   UNL     1      -6.949   4.769  67.981  1.00  0.00    -0.059 N  
HETATM    3  C   UNL     1      -8.193   5.167  67.544  1.00  0.00    -0.103 C  
HETATM    4  H   UNL     1      -6.545   5.213  68.806  1.00  0.00     0.000 HD 
HETATM    5  O   UNL     1      -8.762   4.646  66.591  1.00  0.00    -0.112 OA 
ENDROOT
BRANCH   3   6
HETATM    6  C   UNL     1      -8.841   6.302  68.263  1.00  0.00    -0.114 A  
HETATM    7  C   UNL     1     -10.019   6.062  68.990  1.00  0.00    -0.199 A  
HETATM    8  C   UNL     1     -10.702   7.116  69.615  1.00  0.00    -0.256 A  
HETATM    9  C   UNL     1     -10.221   8.427  69.512  1.00  0.00    -0.207 A  
HETATM   10  C   UNL     1      -9.019   8.661  68.838  1.00  0.00    -0.142 A  
HETATM   11  F   UNL     1      -7.223   7.902  67.547  1.00  0.00    -0.078 F  
HETATM   12  C   UNL     1      -8.348   7.606  68.216  1.00  0.00    -0.125 A  
BRANCH   9  13
HETATM   13  C   UNL     1     -11.032   9.550  70.062  1.00  0.00    -0.251 C  
HETATM   14  N   UNL     1     -11.149  10.676  69.410  1.00  0.00    -0.241 NA 
HETATM   15  N   UNL     1     -11.866  11.618  70.101  1.00  0.00    -0.347 NA 
HETATM   16  C   UNL     1     -12.161  12.897  69.690  1.00  0.00    -0.226 A  
HETATM   17  C   UNL     1     -11.674   9.356  71.428  1.00  0.00    -0.378 C  
HETATM   18  C   UNL     1     -12.825  13.466  70.754  1.00  0.00    -0.150 A  
HETATM   19  N   UNL     1     -12.996  12.573  71.773  1.00  0.00    -0.357 NA 
HETATM   20  N   UNL     1     -12.346  10.276  72.037  1.00  0.00    -0.151 NA 
HETATM   21  C   UNL     1     -12.430  11.455  71.370  1.00  0.00    -0.265 A  
BRANCH  16  22
HETATM   22  C   UNL     1     -11.856  13.444  68.343  1.00  0.00    -0.401 C  
BRANCH  22  23
HETATM   23  C   UNL     1     -10.872  14.590  68.343  1.00  0.00    -0.250 A  
HETATM   24  C   UNL     1     -10.389  16.933  67.947  1.00  0.00    -0.332 A  
HETATM   25  C   UNL     1     -11.271  15.850  67.895  1.00  0.00    -0.297 A  
HETATM   26  C   UNL     1      -9.089  16.797  68.408  1.00  0.00    -0.233 A  
HETATM   27  N   UNL     1      -8.283  17.874  68.422  1.00  0.00    -0.293 NA 
HETATM   28  C   UNL     1      -7.008  17.705  68.833  1.00  0.00    -0.251 A  
HETATM   29  C   UNL     1      -6.485  16.493  69.239  1.00  0.00    -0.201 A  
HETATM   30  C   UNL     1      -7.329  15.388  69.247  1.00  0.00    -0.197 A  
HETATM   31  C   UNL     1      -8.661  15.520  68.827  1.00  0.00    -0.188 A  
HETATM   32  C   UNL     1      -9.557  14.431  68.806  1.00  0.00    -0.177 A  
ENDBRANCH  22  23
ENDBRANCH  16  22
ENDBRANCH   9  13
ENDBRANCH   3   6
TORSDOF 4
ENDMDL
MODEL      120
REMARK 921   NORMALIZED FREE ENERGY PREDICTED BY IDOCK:   -5.48 KCAL/MOL
REMARK 922        TOTAL FREE ENERGY PREDICTED BY IDOCK:   -7.42 KCAL/MOL
REMARK 923 INTER-LIGAND FREE ENERGY PREDICTED BY IDOCK:   -6.53 KCAL/MOL
REMARK 924 INTRA-LIGAND FREE ENERGY PREDICTED BY IDOCK:   -0.89 KCAL/MOL
REMARK 927      BINDING AFFINITY PREDICTED BY RF-SCORE:    0.00 PKD
ROOT
HETATM    1  C   UNL     1     -10.362  19.529  66.042  1.00  0.00    -0.511 C  
HETATM    2  N   UNL     1     -10.556  18.152  66.422  1.00  0.00    -0.328 N  
HETATM    3  C   UNL     1     -10.440  17.742  67.732  1.00  0.00    -0.397 C  
HETATM    4  H   UNL     1     -10.784  17.464  65.704  1.00  0.00     0.000 HD 
HETATM    5  O   UNL     1     -10.216  18.519  68.655  1.00  0.00    -0.377 OA 
ENDROOT
BRANCH   3   6
HETATM    6  C   UNL     1     -10.570  16.282  68.008  1.00  0.00    -0.308 A  
HETATM    7  C   UNL     1     -11.600  15.839  68.854  1.00  0.00    -0.400 A  
HETATM    8  C   UNL     1     -11.709  14.485  69.201  1.00  0.00    -0.349 A  
HETATM    9  C   UNL     1     -10.782  13.555  68.714  1.00  0.00    -0.261 A  
HETATM   10  C   UNL     1      -9.790  13.983  67.827  1.00  0.00    -0.232 A  
HETATM   11  F   UNL     1      -8.687  15.689  66.669  1.00  0.00    -0.226 F  
HETATM   12  C   UNL     1      -9.686  15.334  67.490  1.00  0.00    -0.204 A  
BRANCH   9  13
HETATM   13  C   UNL     1     -10.828  12.148  69.203  1.00  0.00    -0.115 C  
HETATM   14  N   UNL     1      -9.799  11.356  69.067  1.00  0.00    -0.104 NA 
HETATM   15  N   UNL     1     -10.050  10.080  69.504  1.00  0.00    -0.214 NA 
HETATM   16  C   UNL     1      -9.177   9.017  69.494  1.00  0.00    -0.152 A  
HETATM   17  C   UNL     1     -12.131  11.656  69.818  1.00  0.00    -0.289 C  
HETATM   18  C   UNL     1      -9.915   7.949  69.956  1.00  0.00    -0.191 A  
HETATM   19  N   UNL     1     -11.182   8.328  70.299  1.00  0.00    -0.222 NA 
HETATM   20  N   UNL     1     -12.316  10.443  70.220  1.00  0.00    -0.276 NA 
HETATM   21  C   UNL     1     -11.255   9.616  70.040  1.00  0.00    -0.231 A  
BRANCH  16  22
HETATM   22  C   UNL     1      -7.742   9.105  69.119  1.00  0.00    -0.081 C  
BRANCH  22  23
HETATM   23  C   UNL     1      -7.497   9.382  67.655  1.00  0.00    -0.087 A  
HETATM   24  C   UNL     1      -6.526  10.775  65.923  1.00  0.00    -0.097 A  
HETATM   25  C   UNL     1      -6.814  10.538  67.270  1.00  0.00    -0.082 A  
HETATM   26  C   UNL     1      -6.930   9.905  64.923  1.00  0.00    -0.131 A  
HETATM   27  N   UNL     1      -6.634  10.195  63.643  1.00  0.00    -0.133 NA 
HETATM   28  C   UNL     1      -7.078   9.355  62.685  1.00  0.00    -0.100 A  
HETATM   29  C   UNL     1      -7.816   8.216  62.942  1.00  0.00    -0.144 A  
HETATM   30  C   UNL     1      -8.098   7.906  64.268  1.00  0.00    -0.093 A  
HETATM   31  C   UNL     1      -7.655   8.754  65.295  1.00  0.00    -0.091 A  
HETATM   32  C   UNL     1      -7.920   8.493  66.656  1.00  0.00    -0.100 A  
ENDBRANCH  22  23
ENDBRANCH  16  22
ENDBRANCH   9  13
ENDBRANCH   3   6
TORSDOF 4
ENDMDL
MODEL      121
REMARK 921   NORMALIZED FREE ENERGY PREDICTED BY IDOCK:   -5.48 KCAL/MOL
REMARK 922        TOTAL FREE ENERGY PREDICTED BY IDOCK:   -7.42 KCAL/MOL
REMARK 923 INTER-LIGAND FREE ENERGY PREDICTED BY IDOCK:   -6.58 KCAL/MOL
REMARK 924 INTRA-LIGAND FREE ENERGY PREDICTED BY IDOCK:   -0.83 KCAL/MOL
REMARK 927      BINDING AFFINITY PREDICTED BY RF-SCORE:    0.00 PKD
ROOT
HETATM    1  C   UNL     1     -10.853  16.801  68.169  1.00  0.00    -0.353 C  
HETATM    2  N   UNL     1     -10.594  15.400  67.954  1.00  0.00    -0.260 N  
HETATM    3  C   UNL     1      -9.877  14.958  66.864  1.00  0.00    -0.240 C  
HETATM    4  H   UNL     1     -10.949  14.719  68.625  1.00  0.00     0.000 HD 
HETATM    5  O   UNL     1      -9.377  15.719  66.043  1.00  0.00    -0.317 OA 
ENDROOT
BRANCH   3   6
HETATM    6  C   UNL     1      -9.741  13.483  66.685  1.00  0.00    -0.281 A  
HETATM    7  C   UNL     1     -10.873  12.736  66.316  1.00  0.00    -0.299 A  
HETATM    8  C   UNL     1     -10.807  11.339  66.214  1.00  0.00    -0.296 A  
HETATM    9  C   UNL     1      -9.609  10.668  66.489  1.00  0.00    -0.218 A  
HETATM   10  C   UNL     1      -8.467  11.412  66.800  1.00  0.00    -0.165 A  
HETATM   11  F   UNL     1      -7.424  13.456  67.249  1.00  0.00    -0.158 F  
HETATM   12  C   UNL     1      -8.543  12.802  66.904  1.00  0.00    -0.137 A  
BRANCH   9  13
HETATM   13  C   UNL     1      -9.593   9.178  66.512  1.00  0.00    -0.227 C  
HETATM   14  N   UNL     1     -10.172   8.515  67.475  1.00  0.00    -0.224 NA 
HETATM   15  N   UNL     1      -9.990   7.160  67.373  1.00  0.00    -0.158 NA 
HETATM   16  C   UNL     1     -10.470   6.194  68.228  1.00  0.00    -0.232 A  
HETATM   17  C   UNL     1      -8.835   8.462  65.402  1.00  0.00    -0.103 C  
HETATM   18  C   UNL     1      -9.957   5.010  67.746  1.00  0.00    -0.147 A  
HETATM   19  N   UNL     1      -9.233   5.205  66.605  1.00  0.00    -0.125 NA 
HETATM   20  N   UNL     1      -8.695   7.180  65.348  1.00  0.00    -0.033 NA 
HETATM   21  C   UNL     1      -9.268   6.500  66.374  1.00  0.00    -0.153 A  
BRANCH  16  22
HETATM   22  C   UNL     1     -11.395   6.452  69.360  1.00  0.00    -0.443 C  
BRANCH  22  23
HETATM   23  C   UNL     1     -10.710   6.832  70.651  1.00  0.00    -0.273 A  
HETATM   24  C   UNL     1     -10.854   7.518  72.973  1.00  0.00    -0.445 A  
HETATM   25  C   UNL     1     -11.471   7.224  71.755  1.00  0.00    -0.300 A  
HETATM   26  C   UNL     1      -9.477   7.470  73.127  1.00  0.00    -0.219 A  
HETATM   27  N   UNL     1      -8.940   7.777  74.322  1.00  0.00    -0.166 NA 
HETATM   28  C   UNL     1      -7.595   7.765  74.433  1.00  0.00    -0.174 A  
HETATM   29  C   UNL     1      -6.740   7.455  73.394  1.00  0.00    -0.066 A  
HETATM   30  C   UNL     1      -7.300   7.113  72.168  1.00  0.00    -0.080 A  
HETATM   31  C   UNL     1      -8.694   7.114  72.009  1.00  0.00    -0.130 A  
HETATM   32  C   UNL     1      -9.315   6.784  70.786  1.00  0.00    -0.161 A  
ENDBRANCH  22  23
ENDBRANCH  16  22
ENDBRANCH   9  13
ENDBRANCH   3   6
TORSDOF 4
ENDMDL
MODEL      122
REMARK 921   NORMALIZED FREE ENERGY PREDICTED BY IDOCK:   -5.44 KCAL/MOL
REMARK 922        TOTAL FREE ENERGY PREDICTED BY IDOCK:   -7.37 KCAL/MOL
REMARK 923 INTER-LIGAND FREE ENERGY PREDICTED BY IDOCK:   -6.71 KCAL/MOL
REMARK 924 INTRA-LIGAND FREE ENERGY PREDICTED BY IDOCK:   -0.66 KCAL/MOL
REMARK 927      BINDING AFFINITY PREDICTED BY RF-SCORE:    0.00 PKD
ROOT
HETATM    1  C   UNL     1      -8.097   5.149  62.335  1.00  0.00    -0.091 C  
HETATM    2  N   UNL     1      -8.435   6.114  63.351  1.00  0.00    -0.328 N  
HETATM    3  C   UNL     1      -8.048   5.947  64.663  1.00  0.00    -0.132 C  
HETATM    4  H   UNL     1      -8.974   6.941  63.094  1.00  0.00     0.000 HD 
HETATM    5  O   UNL     1      -7.358   5.005  65.038  1.00  0.00    -0.065 OA 
ENDROOT
BRANCH   3   6
HETATM    6  C   UNL     1      -8.526   6.955  65.653  1.00  0.00    -0.141 A  
HETATM    7  C   UNL     1      -9.272   6.521  66.761  1.00  0.00    -0.163 A  
HETATM    8  C   UNL     1      -9.805   7.443  67.672  1.00  0.00    -0.194 A  
HETATM    9  C   UNL     1      -9.609   8.817  67.481  1.00  0.00    -0.192 A  
HETATM   10  C   UNL     1      -8.820   9.250  66.412  1.00  0.00    -0.169 A  
HETATM   11  F   UNL     1      -7.584   8.805  64.477  1.00  0.00    -0.096 F  
HETATM   12  C   UNL     1      -8.296   8.324  65.507  1.00  0.00    -0.155 A  
BRANCH   9  13
HETATM   13  C   UNL     1     -10.299   9.787  68.377  1.00  0.00    -0.201 C  
HETATM   14  N   UNL     1     -11.097   9.375  69.325  1.00  0.00    -0.114 NA 
HETATM   15  N   UNL     1     -11.701  10.407  69.997  1.00  0.00    -0.277 NA 
HETATM   16  C   UNL     1     -12.592  10.304  71.040  1.00  0.00    -0.390 A  
HETATM   17  C   UNL     1     -10.081  11.270  68.115  1.00  0.00    -0.182 C  
HETATM   18  C   UNL     1     -12.967  11.601  71.314  1.00  0.00    -0.269 A  
HETATM   19  N   UNL     1     -12.301  12.492  70.521  1.00  0.00    -0.308 NA 
HETATM   20  N   UNL     1     -10.671  12.206  68.780  1.00  0.00    -0.230 NA 
HETATM   21  C   UNL     1     -11.528  11.770  69.739  1.00  0.00    -0.245 A  
BRANCH  16  22
HETATM   22  C   UNL     1     -12.960   9.034  71.716  1.00  0.00    -0.436 C  
BRANCH  22  23
HETATM   23  C   UNL     1     -11.799   8.097  71.956  1.00  0.00    -0.392 A  
HETATM   24  C   UNL     1     -10.653   6.016  71.464  1.00  0.00    -0.295 A  
HETATM   25  C   UNL     1     -11.751   6.865  71.299  1.00  0.00    -0.371 A  
HETATM   26  C   UNL     1      -9.597   6.339  72.302  1.00  0.00    -0.151 A  
HETATM   27  N   UNL     1      -8.574   5.475  72.429  1.00  0.00    -0.119 NA 
HETATM   28  C   UNL     1      -7.580   5.792  73.286  1.00  0.00    -0.095 A  
HETATM   29  C   UNL     1      -7.552   6.952  74.035  1.00  0.00    -0.111 A  
HETATM   30  C   UNL     1      -8.598   7.855  73.881  1.00  0.00    -0.332 A  
HETATM   31  C   UNL     1      -9.652   7.562  73.002  1.00  0.00    -0.268 A  
HETATM   32  C   UNL     1     -10.743   8.438  72.813  1.00  0.00    -0.201 A  
ENDBRANCH  22  23
ENDBRANCH  16  22
ENDBRANCH   9  13
ENDBRANCH   3   6
TORSDOF 4
ENDMDL
MODEL      123
REMARK 921   NORMALIZED FREE ENERGY PREDICTED BY IDOCK:   -5.44 KCAL/MOL
REMARK 922        TOTAL FREE ENERGY PREDICTED BY IDOCK:   -7.37 KCAL/MOL
REMARK 923 INTER-LIGAND FREE ENERGY PREDICTED BY IDOCK:   -6.65 KCAL/MOL
REMARK 924 INTRA-LIGAND FREE ENERGY PREDICTED BY IDOCK:   -0.72 KCAL/MOL
REMARK 927      BINDING AFFINITY PREDICTED BY RF-SCORE:    0.00 PKD
ROOT
HETATM    1  C   UNL     1      -5.417  21.205  66.013  1.00  0.00    -0.234 C  
HETATM    2  N   UNL     1      -6.286  20.085  66.274  1.00  0.00    -0.180 N  
HETATM    3  C   UNL     1      -7.470  20.236  66.963  1.00  0.00    -0.292 C  
HETATM    4  H   UNL     1      -6.019  19.159  65.942  1.00  0.00     0.000 HD 
HETATM    5  O   UNL     1      -7.881  21.325  67.350  1.00  0.00    -0.312 OA 
ENDROOT
BRANCH   3   6
HETATM    6  C   UNL     1      -8.252  19.001  67.260  1.00  0.00    -0.294 A  
HETATM    7  C   UNL     1      -7.697  18.033  68.113  1.00  0.00    -0.274 A  
HETATM    8  C   UNL     1      -8.365  16.825  68.356  1.00  0.00    -0.222 A  
HETATM    9  C   UNL     1      -9.595  16.563  67.740  1.00  0.00    -0.232 A  
HETATM   10  C   UNL     1     -10.177  17.546  66.936  1.00  0.00    -0.329 A  
HETATM   11  F   UNL     1     -10.094  19.631  65.881  1.00  0.00    -0.449 F  
HETATM   12  C   UNL     1      -9.503  18.745  66.697  1.00  0.00    -0.330 A  
BRANCH   9  13
HETATM   13  C   UNL     1     -10.222  15.220  67.898  1.00  0.00    -0.235 C  
HETATM   14  N   UNL     1      -9.570  14.133  67.586  1.00  0.00    -0.212 NA 
HETATM   15  N   UNL     1     -10.329  12.999  67.722  1.00  0.00    -0.222 NA 
HETATM   16  C   UNL     1      -9.934  11.705  67.471  1.00  0.00    -0.187 A  
HETATM   17  C   UNL     1     -11.663  15.166  68.385  1.00  0.00    -0.316 C  
HETATM   18  C   UNL     1     -11.064  10.945  67.679  1.00  0.00    -0.313 A  
HETATM   19  N   UNL     1     -12.113  11.712  68.099  1.00  0.00    -0.558 NA 
HETATM   20  N   UNL     1     -12.336  14.069  68.501  1.00  0.00    -0.154 NA 
HETATM   21  C   UNL     1     -11.662  12.947  68.138  1.00  0.00    -0.352 A  
BRANCH  16  22
HETATM   22  C   UNL     1      -8.549  11.296  67.126  1.00  0.00    -0.147 C  
BRANCH  22  23
HETATM   23  C   UNL     1      -7.862  10.467  68.186  1.00  0.00    -0.109 A  
HETATM   24  C   UNL     1      -6.489  10.342  70.182  1.00  0.00    -0.137 A  
HETATM   25  C   UNL     1      -7.079  11.091  69.160  1.00  0.00    -0.116 A  
HETATM   26  C   UNL     1      -6.624   8.965  70.251  1.00  0.00    -0.042 A  
HETATM   27  N   UNL     1      -6.021   8.297  71.252  1.00  0.00    -0.034 NA 
HETATM   28  C   UNL     1      -6.130   6.952  71.272  1.00  0.00    -0.037 A  
HETATM   29  C   UNL     1      -6.825   6.223  70.327  1.00  0.00    -0.054 A  
HETATM   30  C   UNL     1      -7.468   6.918  69.309  1.00  0.00    -0.094 A  
HETATM   31  C   UNL     1      -7.379   8.318  69.251  1.00  0.00    -0.076 A  
HETATM   32  C   UNL     1      -8.004   9.072  68.236  1.00  0.00    -0.104 A  
ENDBRANCH  22  23
ENDBRANCH  16  22
ENDBRANCH   9  13
ENDBRANCH   3   6
TORSDOF 4
ENDMDL
MODEL      124
REMARK 921   NORMALIZED FREE ENERGY PREDICTED BY IDOCK:   -5.44 KCAL/MOL
REMARK 922        TOTAL FREE ENERGY PREDICTED BY IDOCK:   -7.37 KCAL/MOL
REMARK 923 INTER-LIGAND FREE ENERGY PREDICTED BY IDOCK:   -6.78 KCAL/MOL
REMARK 924 INTRA-LIGAND FREE ENERGY PREDICTED BY IDOCK:   -0.59 KCAL/MOL
REMARK 927      BINDING AFFINITY PREDICTED BY RF-SCORE:    0.00 PKD
ROOT
HETATM    1  C   UNL     1     -13.921  15.741  72.401  1.00  0.00    -0.425 C  
HETATM    2  N   UNL     1     -13.381  14.616  71.679  1.00  0.00    -0.333 N  
HETATM    3  C   UNL     1     -12.213  14.717  70.955  1.00  0.00    -0.318 C  
HETATM    4  H   UNL     1     -13.874  13.724  71.704  1.00  0.00     0.000 HD 
HETATM    5  O   UNL     1     -11.540  15.742  70.916  1.00  0.00    -0.336 OA 
ENDROOT
BRANCH   3   6
HETATM    6  C   UNL     1     -11.788  13.522  70.170  1.00  0.00    -0.348 A  
HETATM    7  C   UNL     1     -12.161  12.245  70.620  1.00  0.00    -0.330 A  
HETATM    8  C   UNL     1     -11.716  11.093  69.955  1.00  0.00    -0.438 A  
HETATM    9  C   UNL     1     -10.882  11.203  68.836  1.00  0.00    -0.261 A  
HETATM   10  C   UNL     1     -10.556  12.472  68.351  1.00  0.00    -0.256 A  
HETATM   11  F   UNL     1     -10.617  14.803  68.533  1.00  0.00    -0.226 F  
HETATM   12  C   UNL     1     -11.000  13.614  69.022  1.00  0.00    -0.234 A  
BRANCH   9  13
HETATM   13  C   UNL     1     -10.306   9.970  68.228  1.00  0.00    -0.193 C  
HETATM   14  N   UNL     1      -9.502   9.198  68.908  1.00  0.00    -0.150 NA 
HETATM   15  N   UNL     1      -9.010   8.156  68.165  1.00  0.00    -0.135 NA 
HETATM   16  C   UNL     1      -8.144   7.175  68.589  1.00  0.00    -0.124 A  
HETATM   17  C   UNL     1     -10.647   9.673  66.774  1.00  0.00    -0.139 C  
HETATM   18  C   UNL     1      -7.892   6.416  67.467  1.00  0.00    -0.105 A  
HETATM   19  N   UNL     1      -8.611   6.858  66.393  1.00  0.00    -0.128 NA 
HETATM   20  N   UNL     1     -10.160   8.673  66.118  1.00  0.00    -0.170 NA 
HETATM   21  C   UNL     1      -9.295   7.897  66.821  1.00  0.00    -0.184 A  
BRANCH  16  22
HETATM   22  C   UNL     1      -7.684   7.001  69.990  1.00  0.00    -0.104 C  
BRANCH  22  23
HETATM   23  C   UNL     1      -8.658   6.262  70.878  1.00  0.00    -0.135 A  
HETATM   24  C   UNL     1     -10.659   6.266  72.248  1.00  0.00    -0.244 A  
HETATM   25  C   UNL     1      -9.717   6.949  71.475  1.00  0.00    -0.164 A  
HETATM   26  C   UNL     1     -10.566   4.903  72.481  1.00  0.00    -0.210 A  
HETATM   27  N   UNL     1     -11.497   4.304  73.245  1.00  0.00    -0.214 NA 
HETATM   28  C   UNL     1     -11.358   2.984  73.494  1.00  0.00    -0.146 A  
HETATM   29  C   UNL     1     -10.318   2.216  73.009  1.00  0.00    -0.223 A  
HETATM   30  C   UNL     1      -9.372   2.834  72.198  1.00  0.00    -0.168 A  
HETATM   31  C   UNL     1      -9.479   4.204  71.916  1.00  0.00    -0.201 A  
HETATM   32  C   UNL     1      -8.543   4.883  71.108  1.00  0.00    -0.131 A  
ENDBRANCH  22  23
ENDBRANCH  16  22
ENDBRANCH   9  13
ENDBRANCH   3   6
TORSDOF 4
ENDMDL
MODEL      125
REMARK 921   NORMALIZED FREE ENERGY PREDICTED BY IDOCK:   -5.43 KCAL/MOL
REMARK 922        TOTAL FREE ENERGY PREDICTED BY IDOCK:   -7.36 KCAL/MOL
REMARK 923 INTER-LIGAND FREE ENERGY PREDICTED BY IDOCK:   -6.61 KCAL/MOL
REMARK 924 INTRA-LIGAND FREE ENERGY PREDICTED BY IDOCK:   -0.75 KCAL/MOL
REMARK 927      BINDING AFFINITY PREDICTED BY RF-SCORE:    0.00 PKD
ROOT
HETATM    1  C   UNL     1     -10.372  20.271  69.799  1.00  0.00     0.408 C  
HETATM    2  N   UNL     1     -10.087  18.989  69.203  1.00  0.00    -0.515 N  
HETATM    3  C   UNL     1     -10.531  18.666  67.940  1.00  0.00    -0.385 C  
HETATM    4  H   UNL     1      -9.544  18.305  69.730  1.00  0.00     0.000 HD 
HETATM    5  O   UNL     1     -11.147  19.453  67.229  1.00  0.00    -0.458 OA 
ENDROOT
BRANCH   3   6
HETATM    6  C   UNL     1     -10.261  17.282  67.452  1.00  0.00    -0.325 A  
HETATM    7  C   UNL     1      -9.328  17.095  66.418  1.00  0.00    -0.286 A  
HETATM    8  C   UNL     1      -9.104  15.821  65.877  1.00  0.00    -0.300 A  
HETATM    9  C   UNL     1      -9.818  14.716  66.357  1.00  0.00    -0.302 A  
HETATM   10  C   UNL     1     -10.705  14.889  67.423  1.00  0.00    -0.292 A  
HETATM   11  F   UNL     1     -11.821  16.269  68.945  1.00  0.00    -0.352 F  
HETATM   12  C   UNL     1     -10.925  16.161  67.952  1.00  0.00    -0.318 A  
BRANCH   9  13
HETATM   13  C   UNL     1      -9.670  13.398  65.678  1.00  0.00    -0.082 C  
HETATM   14  N   UNL     1      -8.902  12.467  66.178  1.00  0.00     0.063 NA 
HETATM   15  N   UNL     1      -8.828  11.354  65.380  1.00  0.00    -0.054 NA 
HETATM   16  C   UNL     1      -8.104  10.210  65.625  1.00  0.00    -0.149 A  
HETATM   17  C   UNL     1     -10.403  13.195  64.360  1.00  0.00    -0.368 C  
HETATM   18  C   UNL     1      -8.291   9.428  64.506  1.00  0.00    -0.164 A  
HETATM   19  N   UNL     1      -9.141  10.022  63.616  1.00  0.00    -0.252 NA 
HETATM   20  N   UNL     1     -10.304  12.123  63.646  1.00  0.00    -0.433 NA 
HETATM   21  C   UNL     1      -9.474  11.176  64.154  1.00  0.00    -0.208 A  
BRANCH  16  22
HETATM   22  C   UNL     1      -7.368   9.928  66.883  1.00  0.00    -0.091 C  
BRANCH  22  23
HETATM   23  C   UNL     1      -8.157   9.143  67.905  1.00  0.00    -0.105 A  
HETATM   24  C   UNL     1      -9.263   9.032  70.060  1.00  0.00    -0.193 A  
HETATM   25  C   UNL     1      -8.482   9.725  69.132  1.00  0.00    -0.143 A  
HETATM   26  C   UNL     1      -9.713   7.743  69.822  1.00  0.00    -0.176 A  
HETATM   27  N   UNL     1     -10.452   7.123  70.760  1.00  0.00    -0.211 NA 
HETATM   28  C   UNL     1     -10.839   5.852  70.523  1.00  0.00    -0.296 A  
HETATM   29  C   UNL     1     -10.524   5.154  69.373  1.00  0.00    -0.203 A  
HETATM   30  C   UNL     1      -9.783   5.807  68.395  1.00  0.00    -0.161 A  
HETATM   31  C   UNL     1      -9.359   7.129  68.603  1.00  0.00    -0.134 A  
HETATM   32  C   UNL     1      -8.597   7.836  67.648  1.00  0.00    -0.123 A  
ENDBRANCH  22  23
ENDBRANCH  16  22
ENDBRANCH   9  13
ENDBRANCH   3   6
TORSDOF 4
ENDMDL
MODEL      126
REMARK 921   NORMALIZED FREE ENERGY PREDICTED BY IDOCK:   -5.42 KCAL/MOL
REMARK 922        TOTAL FREE ENERGY PREDICTED BY IDOCK:   -7.35 KCAL/MOL
REMARK 923 INTER-LIGAND FREE ENERGY PREDICTED BY IDOCK:   -7.20 KCAL/MOL
REMARK 924 INTRA-LIGAND FREE ENERGY PREDICTED BY IDOCK:   -0.15 KCAL/MOL
REMARK 927      BINDING AFFINITY PREDICTED BY RF-SCORE:    0.00 PKD
ROOT
HETATM    1  C   UNL     1      -5.170  14.155  72.867  1.00  0.00    -0.250 C  
HETATM    2  N   UNL     1      -5.889  13.784  71.674  1.00  0.00    -0.310 N  
HETATM    3  C   UNL     1      -5.812  12.512  71.152  1.00  0.00     0.296 C  
HETATM    4  H   UNL     1      -6.469  14.479  71.205  1.00  0.00     0.000 HD 
HETATM    5  O   UNL     1      -5.175  11.610  71.686  1.00  0.00    -0.313 OA 
ENDROOT
BRANCH   3   6
HETATM    6  C   UNL     1      -6.520  12.255  69.864  1.00  0.00     0.009 A  
HETATM    7  C   UNL     1      -6.418  13.201  68.831  1.00  0.00    -0.097 A  
HETATM    8  C   UNL     1      -7.131  13.035  67.635  1.00  0.00    -0.156 A  
HETATM    9  C   UNL     1      -7.966  11.925  67.460  1.00  0.00    -0.155 A  
HETATM   10  C   UNL     1      -8.026  10.953  68.463  1.00  0.00    -0.134 A  
HETATM   11  F   UNL     1      -7.449  10.182  70.594  1.00  0.00    -0.152 F  
HETATM   12  C   UNL     1      -7.316  11.128  69.652  1.00  0.00     0.042 A  
BRANCH   9  13
HETATM   13  C   UNL     1      -8.823  11.836  66.244  1.00  0.00    -0.142 C  
HETATM   14  N   UNL     1      -9.681  12.778  65.957  1.00  0.00    -0.251 NA 
HETATM   15  N   UNL     1     -10.433  12.491  64.847  1.00  0.00    -0.294 NA 
HETATM   16  C   UNL     1     -11.419  13.275  64.292  1.00  0.00    -0.396 A  
HETATM   17  C   UNL     1      -8.697  10.590  65.379  1.00  0.00    -0.183 C  
HETATM   18  C   UNL     1     -11.923  12.524  63.252  1.00  0.00    -0.426 A  
HETATM   19  N   UNL     1     -11.251  11.343  63.115  1.00  0.00    -0.082 NA 
HETATM   20  N   UNL     1      -9.428  10.368  64.338  1.00  0.00    -0.261 NA 
HETATM   21  C   UNL     1     -10.344  11.333  64.069  1.00  0.00    -0.371 A  
BRANCH  16  22
HETATM   22  C   UNL     1     -11.753  14.652  64.734  1.00  0.00    -0.429 C  
BRANCH  22  23
HETATM   23  C   UNL     1     -11.508  14.911  66.202  1.00  0.00    -0.272 A  
HETATM   24  C   UNL     1     -10.480  16.244  67.948  1.00  0.00    -0.295 A  
HETATM   25  C   UNL     1     -10.666  15.954  66.594  1.00  0.00    -0.270 A  
HETATM   26  C   UNL     1     -11.086  15.498  68.947  1.00  0.00    -0.282 A  
HETATM   27  N   UNL     1     -10.858  15.818  70.234  1.00  0.00    -0.335 NA 
HETATM   28  C   UNL     1     -11.424  15.048  71.187  1.00  0.00    -0.309 A  
HETATM   29  C   UNL     1     -12.223  13.954  70.918  1.00  0.00    -0.436 A  
HETATM   30  C   UNL     1     -12.477  13.643  69.587  1.00  0.00    -0.145 A  
HETATM   31  C   UNL     1     -11.907  14.417  68.565  1.00  0.00    -0.369 A  
HETATM   32  C   UNL     1     -12.124  14.140  67.199  1.00  0.00    -0.432 A  
ENDBRANCH  22  23
ENDBRANCH  16  22
ENDBRANCH   9  13
ENDBRANCH   3   6
TORSDOF 4
ENDMDL
MODEL      127
REMARK 921   NORMALIZED FREE ENERGY PREDICTED BY IDOCK:   -5.42 KCAL/MOL
REMARK 922        TOTAL FREE ENERGY PREDICTED BY IDOCK:   -7.34 KCAL/MOL
REMARK 923 INTER-LIGAND FREE ENERGY PREDICTED BY IDOCK:   -6.70 KCAL/MOL
REMARK 924 INTRA-LIGAND FREE ENERGY PREDICTED BY IDOCK:   -0.64 KCAL/MOL
REMARK 927      BINDING AFFINITY PREDICTED BY RF-SCORE:    0.00 PKD
ROOT
HETATM    1  C   UNL     1     -10.728  19.621  66.090  1.00  0.00    -0.416 C  
HETATM    2  N   UNL     1     -10.616  18.234  65.715  1.00  0.00    -0.331 N  
HETATM    3  C   UNL     1     -10.879  17.221  66.610  1.00  0.00     0.049 C  
HETATM    4  H   UNL     1     -10.333  17.996  64.764  1.00  0.00     0.000 HD 
HETATM    5  O   UNL     1     -11.269  17.428  67.754  1.00  0.00    -0.135 OA 
ENDROOT
BRANCH   3   6
HETATM    6  C   UNL     1     -10.645  15.821  66.150  1.00  0.00    -0.318 A  
HETATM    7  C   UNL     1      -9.695  15.034  66.822  1.00  0.00    -0.253 A  
HETATM    8  C   UNL     1      -9.389  13.742  66.373  1.00  0.00    -0.215 A  
HETATM    9  C   UNL     1     -10.023  13.221  65.238  1.00  0.00    -0.192 A  
HETATM   10  C   UNL     1     -11.009  13.979  64.601  1.00  0.00    -0.401 A  
HETATM   11  F   UNL     1     -12.230  15.960  64.372  1.00  0.00    -0.289 F  
HETATM   12  C   UNL     1     -11.304  15.266  65.052  1.00  0.00    -0.358 A  
BRANCH   9  13
HETATM   13  C   UNL     1      -9.585  11.904  64.694  1.00  0.00    -0.025 C  
HETATM   14  N   UNL     1      -8.863  11.087  65.412  1.00  0.00    -0.179 NA 
HETATM   15  N   UNL     1      -8.490   9.962  64.723  1.00  0.00    -0.159 NA 
HETATM   16  C   UNL     1      -7.730   8.917  65.196  1.00  0.00    -0.102 A  
HETATM   17  C   UNL     1      -9.966  11.571  63.258  1.00  0.00    -0.409 C  
HETATM   18  C   UNL     1      -7.569   8.079  64.115  1.00  0.00    -0.122 A  
HETATM   19  N   UNL     1      -8.245   8.539  63.020  1.00  0.00    -0.181 NA 
HETATM   20  N   UNL     1      -9.594  10.492  62.654  1.00  0.00    -0.292 NA 
HETATM   21  C   UNL     1      -8.811   9.666  63.395  1.00  0.00    -0.232 A  
BRANCH  16  22
HETATM   22  C   UNL     1      -7.282   8.768  66.604  1.00  0.00    -0.081 C  
BRANCH  22  23
HETATM   23  C   UNL     1      -8.301   8.130  67.518  1.00  0.00    -0.123 A  
HETATM   24  C   UNL     1     -10.498   7.156  67.847  1.00  0.00    -0.268 A  
HETATM   25  C   UNL     1      -9.567   7.803  67.029  1.00  0.00    -0.238 A  
HETATM   26  C   UNL     1     -10.220   6.847  69.169  1.00  0.00    -0.187 A  
HETATM   27  N   UNL     1     -11.162   6.235  69.910  1.00  0.00    -0.401 NA 
HETATM   28  C   UNL     1     -10.884   5.986  71.207  1.00  0.00    -0.272 A  
HETATM   29  C   UNL     1      -9.690   6.321  71.816  1.00  0.00    -0.168 A  
HETATM   30  C   UNL     1      -8.710   6.930  71.040  1.00  0.00    -0.136 A  
HETATM   31  C   UNL     1      -8.959   7.208  69.687  1.00  0.00    -0.141 A  
HETATM   32  C   UNL     1      -8.004   7.831  68.856  1.00  0.00    -0.124 A  
ENDBRANCH  22  23
ENDBRANCH  16  22
ENDBRANCH   9  13
ENDBRANCH   3   6
TORSDOF 4
ENDMDL
MODEL      128
REMARK 921   NORMALIZED FREE ENERGY PREDICTED BY IDOCK:   -5.35 KCAL/MOL
REMARK 922        TOTAL FREE ENERGY PREDICTED BY IDOCK:   -7.26 KCAL/MOL
REMARK 923 INTER-LIGAND FREE ENERGY PREDICTED BY IDOCK:   -7.64 KCAL/MOL
REMARK 924 INTRA-LIGAND FREE ENERGY PREDICTED BY IDOCK:    0.38 KCAL/MOL
REMARK 927      BINDING AFFINITY PREDICTED BY RF-SCORE:    0.00 PKD
ROOT
HETATM    1  C   UNL     1      -8.271   2.739  70.317  1.00  0.00    -0.041 C  
HETATM    2  N   UNL     1      -8.657   3.971  69.677  1.00  0.00    -0.066 N  
HETATM    3  C   UNL     1      -9.322   3.979  68.470  1.00  0.00    -0.160 C  
HETATM    4  H   UNL     1      -8.433   4.858  70.127  1.00  0.00     0.000 HD 
HETATM    5  O   UNL     1      -9.668   2.953  67.894  1.00  0.00    -0.129 OA 
ENDROOT
BRANCH   3   6
HETATM    6  C   UNL     1      -9.596   5.306  67.848  1.00  0.00    -0.161 A  
HETATM    7  C   UNL     1      -8.879   5.680  66.699  1.00  0.00    -0.119 A  
HETATM    8  C   UNL     1      -9.050   6.950  66.129  1.00  0.00    -0.144 A  
HETATM    9  C   UNL     1      -9.935   7.869  66.707  1.00  0.00    -0.333 A  
HETATM   10  C   UNL     1     -10.692   7.480  67.815  1.00  0.00    -0.233 A  
HETATM   11  F   UNL     1     -11.237   5.918  69.468  1.00  0.00    -0.411 F  
HETATM   12  C   UNL     1     -10.512   6.216  68.379  1.00  0.00    -0.231 A  
BRANCH   9  13
HETATM   13  C   UNL     1     -10.000   9.258  66.173  1.00  0.00    -0.277 C  
HETATM   14  N   UNL     1     -10.591  10.209  66.845  1.00  0.00    -0.225 NA 
HETATM   15  N   UNL     1     -10.621  11.400  66.166  1.00  0.00    -0.259 NA 
HETATM   16  C   UNL     1     -11.171  12.584  66.600  1.00  0.00    -0.307 A  
HETATM   17  C   UNL     1      -9.400   9.516  64.798  1.00  0.00    -0.169 C  
HETATM   18  C   UNL     1     -11.019  13.453  65.541  1.00  0.00    -0.283 A  
HETATM   19  N   UNL     1     -10.351  12.866  64.504  1.00  0.00    -0.363 NA 
HETATM   20  N   UNL     1      -9.450  10.660  64.202  1.00  0.00    -0.255 NA 
HETATM   21  C   UNL     1     -10.100  11.633  64.890  1.00  0.00    -0.260 A  
BRANCH  16  22
HETATM   22  C   UNL     1     -11.724  12.812  67.959  1.00  0.00    -0.405 C  
BRANCH  22  23
HETATM   23  C   UNL     1     -11.434  11.703  68.943  1.00  0.00    -0.349 A  
HETATM   24  C   UNL     1      -9.829  10.329  70.134  1.00  0.00     0.011 A  
HETATM   25  C   UNL     1     -10.116  11.310  69.181  1.00  0.00    -0.093 A  
HETATM   26  C   UNL     1     -10.830   9.688  70.848  1.00  0.00    -0.339 A  
HETATM   27  N   UNL     1     -10.492   8.742  71.744  1.00  0.00    -0.319 NA 
HETATM   28  C   UNL     1     -11.487   8.101  72.393  1.00  0.00    -0.397 A  
HETATM   29  C   UNL     1     -12.829   8.362  72.193  1.00  0.00    -0.385 A  
HETATM   30  C   UNL     1     -13.172   9.359  71.286  1.00  0.00    -0.364 A  
HETATM   31  C   UNL     1     -12.169  10.048  70.589  1.00  0.00    -0.360 A  
HETATM   32  C   UNL     1     -12.461  11.061  69.651  1.00  0.00    -0.208 A  
ENDBRANCH  22  23
ENDBRANCH  16  22
ENDBRANCH   9  13
ENDBRANCH   3   6
TORSDOF 4
ENDMDL
MODEL      129
REMARK 921   NORMALIZED FREE ENERGY PREDICTED BY IDOCK:   -5.34 KCAL/MOL
REMARK 922        TOTAL FREE ENERGY PREDICTED BY IDOCK:   -7.25 KCAL/MOL
REMARK 923 INTER-LIGAND FREE ENERGY PREDICTED BY IDOCK:   -6.73 KCAL/MOL
REMARK 924 INTRA-LIGAND FREE ENERGY PREDICTED BY IDOCK:   -0.52 KCAL/MOL
REMARK 927      BINDING AFFINITY PREDICTED BY RF-SCORE:    0.00 PKD
ROOT
HETATM    1  C   UNL     1      -6.588   2.900  64.191  1.00  0.00    -0.031 C  
HETATM    2  N   UNL     1      -7.116   4.112  64.765  1.00  0.00    -0.057 N  
HETATM    3  C   UNL     1      -8.349   4.142  65.379  1.00  0.00    -0.109 C  
HETATM    4  H   UNL     1      -6.565   4.969  64.716  1.00  0.00     0.000 HD 
HETATM    5  O   UNL     1      -9.047   3.143  65.519  1.00  0.00    -0.143 OA 
ENDROOT
BRANCH   3   6
HETATM    6  C   UNL     1      -8.844   5.464  65.861  1.00  0.00    -0.148 A  
HETATM    7  C   UNL     1      -7.999   6.583  65.765  1.00  0.00    -0.115 A  
HETATM    8  C   UNL     1      -8.395   7.826  66.277  1.00  0.00    -0.131 A  
HETATM    9  C   UNL     1      -9.641   7.966  66.902  1.00  0.00    -0.263 A  
HETATM   10  C   UNL     1     -10.507   6.870  66.948  1.00  0.00    -0.349 A  
HETATM   11  F   UNL     1     -10.961   4.611  66.553  1.00  0.00    -0.214 F  
HETATM   12  C   UNL     1     -10.102   5.635  66.440  1.00  0.00    -0.156 A  
BRANCH   9  13
HETATM   13  C   UNL     1      -9.987   9.256  67.564  1.00  0.00    -0.202 C  
HETATM   14  N   UNL     1     -10.948   9.321  68.446  1.00  0.00    -0.062 NA 
HETATM   15  N   UNL     1     -11.176  10.599  68.890  1.00  0.00    -0.256 NA 
HETATM   16  C   UNL     1     -12.115  10.997  69.813  1.00  0.00    -0.353 A  
HETATM   17  C   UNL     1      -9.219  10.498  67.137  1.00  0.00    -0.143 C  
HETATM   18  C   UNL     1     -12.004  12.369  69.860  1.00  0.00    -0.299 A  
HETATM   19  N   UNL     1     -11.001  12.818  69.049  1.00  0.00    -0.226 NA 
HETATM   20  N   UNL     1      -9.469  11.682  67.589  1.00  0.00    -0.174 NA 
HETATM   21  C   UNL     1     -10.494  11.747  68.477  1.00  0.00    -0.215 A  
BRANCH  16  22
HETATM   22  C   UNL     1     -12.974  10.074  70.598  1.00  0.00    -0.250 C  
BRANCH  22  23
HETATM   23  C   UNL     1     -12.225   8.951  71.276  1.00  0.00    -0.351 A  
HETATM   24  C   UNL     1     -12.011   6.591  71.794  1.00  0.00    -0.394 A  
HETATM   25  C   UNL     1     -12.726   7.649  71.224  1.00  0.00    -0.306 A  
HETATM   26  C   UNL     1     -10.810   6.792  72.456  1.00  0.00    -0.239 A  
HETATM   27  N   UNL     1     -10.175   5.735  72.996  1.00  0.00    -0.180 NA 
HETATM   28  C   UNL     1      -9.031   5.963  73.674  1.00  0.00    -0.127 A  
HETATM   29  C   UNL     1      -8.474   7.216  73.844  1.00  0.00    -0.185 A  
HETATM   30  C   UNL     1      -9.120   8.302  73.262  1.00  0.00    -0.278 A  
HETATM   31  C   UNL     1     -10.313   8.108  72.550  1.00  0.00    -0.401 A  
HETATM   32  C   UNL     1     -11.014   9.175  71.948  1.00  0.00    -0.372 A  
ENDBRANCH  22  23
ENDBRANCH  16  22
ENDBRANCH   9  13
ENDBRANCH   3   6
TORSDOF 4
ENDMDL
MODEL      130
REMARK 921   NORMALIZED FREE ENERGY PREDICTED BY IDOCK:   -5.31 KCAL/MOL
REMARK 922        TOTAL FREE ENERGY PREDICTED BY IDOCK:   -7.21 KCAL/MOL
REMARK 923 INTER-LIGAND FREE ENERGY PREDICTED BY IDOCK:   -6.56 KCAL/MOL
REMARK 924 INTRA-LIGAND FREE ENERGY PREDICTED BY IDOCK:   -0.65 KCAL/MOL
REMARK 927      BINDING AFFINITY PREDICTED BY RF-SCORE:    0.00 PKD
ROOT
HETATM    1  C   UNL     1     -10.875   2.766  63.799  1.00  0.00    -0.073 C  
HETATM    2  N   UNL     1     -10.315   4.055  64.118  1.00  0.00    -0.365 N  
HETATM    3  C   UNL     1      -9.749   4.312  65.347  1.00  0.00    -0.200 C  
HETATM    4  H   UNL     1     -10.338   4.796  63.417  1.00  0.00     0.000 HD 
HETATM    5  O   UNL     1      -9.641   3.459  66.222  1.00  0.00    -0.150 OA 
ENDROOT
BRANCH   3   6
HETATM    6  C   UNL     1      -9.280   5.703  65.609  1.00  0.00    -0.070 A  
HETATM    7  C   UNL     1      -8.095   6.148  64.999  1.00  0.00    -0.133 A  
HETATM    8  C   UNL     1      -7.578   7.421  65.280  1.00  0.00    -0.098 A  
HETATM    9  C   UNL     1      -8.235   8.264  66.185  1.00  0.00    -0.119 A  
HETATM   10  C   UNL     1      -9.443   7.847  66.750  1.00  0.00    -0.257 A  
HETATM   11  F   UNL     1     -11.089   6.218  67.075  1.00  0.00    -0.368 F  
HETATM   12  C   UNL     1      -9.948   6.577  66.468  1.00  0.00    -0.092 A  
BRANCH   9  13
HETATM   13  C   UNL     1      -7.600   9.553  66.578  1.00  0.00    -0.094 C  
HETATM   14  N   UNL     1      -8.326  10.589  66.903  1.00  0.00    -0.124 NA 
HETATM   15  N   UNL     1      -7.574  11.706  67.160  1.00  0.00    -0.145 NA 
HETATM   16  C   UNL     1      -8.040  12.949  67.524  1.00  0.00    -0.181 A  
HETATM   17  C   UNL     1      -6.080   9.634  66.539  1.00  0.00    -0.060 C  
HETATM   18  C   UNL     1      -6.915  13.742  67.589  1.00  0.00    -0.174 A  
HETATM   19  N   UNL     1      -5.781  13.023  67.337  1.00  0.00    -0.332 NA 
HETATM   20  N   UNL     1      -5.417  10.712  66.795  1.00  0.00    -0.046 NA 
HETATM   21  C   UNL     1      -6.181  11.794  67.094  1.00  0.00    -0.147 A  
BRANCH  16  22
HETATM   22  C   UNL     1      -9.458  13.265  67.830  1.00  0.00    -0.214 C  
BRANCH  22  23
HETATM   23  C   UNL     1      -9.755  14.740  67.956  1.00  0.00    -0.213 A  
HETATM   24  C   UNL     1     -10.045  16.706  69.347  1.00  0.00    -0.204 A  
HETATM   25  C   UNL     1      -9.833  15.331  69.219  1.00  0.00    -0.255 A  
HETATM   26  C   UNL     1     -10.221  17.525  68.243  1.00  0.00    -0.365 A  
HETATM   27  N   UNL     1     -10.435  18.840  68.431  1.00  0.00    -0.284 NA 
HETATM   28  C   UNL     1     -10.649  19.609  67.342  1.00  0.00    -0.460 A  
HETATM   29  C   UNL     1     -10.658  19.125  66.049  1.00  0.00    -0.524 A  
HETATM   30  C   UNL     1     -10.410  17.770  65.857  1.00  0.00    -0.257 A  
HETATM   31  C   UNL     1     -10.185  16.935  66.963  1.00  0.00    -0.297 A  
HETATM   32  C   UNL     1      -9.938  15.553  66.827  1.00  0.00    -0.257 A  
ENDBRANCH  22  23
ENDBRANCH  16  22
ENDBRANCH   9  13
ENDBRANCH   3   6
TORSDOF 4
ENDMDL
MODEL      131
REMARK 921   NORMALIZED FREE ENERGY PREDICTED BY IDOCK:   -5.31 KCAL/MOL
REMARK 922        TOTAL FREE ENERGY PREDICTED BY IDOCK:   -7.21 KCAL/MOL
REMARK 923 INTER-LIGAND FREE ENERGY PREDICTED BY IDOCK:   -6.76 KCAL/MOL
REMARK 924 INTRA-LIGAND FREE ENERGY PREDICTED BY IDOCK:   -0.44 KCAL/MOL
REMARK 927      BINDING AFFINITY PREDICTED BY RF-SCORE:    0.00 PKD
ROOT
HETATM    1  C   UNL     1     -10.639  16.721  67.064  1.00  0.00    -0.234 C  
HETATM    2  N   UNL     1     -10.999  15.433  67.601  1.00  0.00    -0.309 N  
HETATM    3  C   UNL     1     -11.699  15.312  68.781  1.00  0.00    -0.353 C  
HETATM    4  H   UNL     1     -10.728  14.590  67.095  1.00  0.00     0.000 HD 
HETATM    5  O   UNL     1     -12.099  16.280  69.419  1.00  0.00    -0.109 OA 
ENDROOT
BRANCH   3   6
HETATM    6  C   UNL     1     -11.942  13.934  69.296  1.00  0.00    -0.402 A  
HETATM    7  C   UNL     1     -12.347  13.768  70.631  1.00  0.00    -0.445 A  
HETATM    8  C   UNL     1     -12.510  12.487  71.176  1.00  0.00    -0.322 A  
HETATM    9  C   UNL     1     -12.261  11.351  70.395  1.00  0.00    -0.450 A  
HETATM   10  C   UNL     1     -11.914  11.512  69.051  1.00  0.00    -0.377 A  
HETATM   11  F   UNL     1     -11.373  12.880  67.233  1.00  0.00    -0.274 F  
HETATM   12  C   UNL     1     -11.750  12.792  68.518  1.00  0.00    -0.333 A  
BRANCH   9  13
HETATM   13  C   UNL     1     -12.304  10.003  71.029  1.00  0.00    -0.360 C  
HETATM   14  N   UNL     1     -11.241   9.490  71.588  1.00  0.00    -0.366 NA 
HETATM   15  N   UNL     1     -11.446   8.215  72.049  1.00  0.00    -0.296 NA 
HETATM   16  C   UNL     1     -10.529   7.407  72.681  1.00  0.00    -0.255 A  
HETATM   17  C   UNL     1     -13.612   9.228  70.954  1.00  0.00     0.078 C  
HETATM   18  C   UNL     1     -11.184   6.211  72.872  1.00  0.00    -0.215 A  
HETATM   19  N   UNL     1     -12.477   6.273  72.436  1.00  0.00    -0.079 NA 
HETATM   20  N   UNL     1     -13.755   8.028  71.408  1.00  0.00    -0.280 NA 
HETATM   21  C   UNL     1     -12.636   7.487  71.954  1.00  0.00    -0.294 A  
BRANCH  16  22
HETATM   22  C   UNL     1      -9.169   7.837  73.096  1.00  0.00    -0.302 C  
BRANCH  22  23
HETATM   23  C   UNL     1      -8.171   7.924  71.966  1.00  0.00    -0.149 A  
HETATM   24  C   UNL     1      -5.980   8.577  71.154  1.00  0.00    -0.037 A  
HETATM   25  C   UNL     1      -6.937   8.544  72.172  1.00  0.00    -0.096 A  
HETATM   26  C   UNL     1      -6.225   8.035  69.902  1.00  0.00    -0.029 A  
HETATM   27  N   UNL     1      -5.269   8.109  68.958  1.00  0.00    -0.026 NA 
HETATM   28  C   UNL     1      -5.549   7.614  67.734  1.00  0.00    -0.035 A  
HETATM   29  C   UNL     1      -6.757   7.035  67.396  1.00  0.00    -0.067 A  
HETATM   30  C   UNL     1      -7.733   6.938  68.382  1.00  0.00    -0.116 A  
HETATM   31  C   UNL     1      -7.483   7.441  69.667  1.00  0.00    -0.093 A  
HETATM   32  C   UNL     1      -8.440   7.376  70.702  1.00  0.00    -0.136 A  
ENDBRANCH  22  23
ENDBRANCH  16  22
ENDBRANCH   9  13
ENDBRANCH   3   6
TORSDOF 4
ENDMDL
MODEL      132
REMARK 921   NORMALIZED FREE ENERGY PREDICTED BY IDOCK:   -5.29 KCAL/MOL
REMARK 922        TOTAL FREE ENERGY PREDICTED BY IDOCK:   -7.19 KCAL/MOL
REMARK 923 INTER-LIGAND FREE ENERGY PREDICTED BY IDOCK:   -6.84 KCAL/MOL
REMARK 924 INTRA-LIGAND FREE ENERGY PREDICTED BY IDOCK:   -0.35 KCAL/MOL
REMARK 927      BINDING AFFINITY PREDICTED BY RF-SCORE:    0.00 PKD
ROOT
HETATM    1  C   UNL     1      -8.525   7.670  69.298  1.00  0.00    -0.138 C  
HETATM    2  N   UNL     1      -8.291   9.092  69.255  1.00  0.00    -0.120 N  
HETATM    3  C   UNL     1      -7.706   9.694  68.163  1.00  0.00    -0.086 C  
HETATM    4  H   UNL     1      -8.564   9.666  70.052  1.00  0.00     0.000 HD 
HETATM    5  O   UNL     1      -7.396   9.077  67.149  1.00  0.00    -0.085 OA 
ENDROOT
BRANCH   3   6
HETATM    6  C   UNL     1      -7.425  11.156  68.254  1.00  0.00    -0.094 A  
HETATM    7  C   UNL     1      -6.604  11.627  69.292  1.00  0.00    -0.111 A  
HETATM    8  C   UNL     1      -6.378  13.000  69.460  1.00  0.00    -0.103 A  
HETATM    9  C   UNL     1      -6.980  13.924  68.597  1.00  0.00    -0.108 A  
HETATM   10  C   UNL     1      -7.752  13.457  67.530  1.00  0.00    -0.182 A  
HETATM   11  F   UNL     1      -8.759  11.704  66.354  1.00  0.00    -0.181 F  
HETATM   12  C   UNL     1      -7.974  12.088  67.373  1.00  0.00    -0.165 A  
BRANCH   9  13
HETATM   13  C   UNL     1      -6.844  15.382  68.874  1.00  0.00    -0.124 C  
HETATM   14  N   UNL     1      -7.786  16.221  68.536  1.00  0.00    -0.179 NA 
HETATM   15  N   UNL     1      -7.455  17.526  68.798  1.00  0.00    -0.260 NA 
HETATM   16  C   UNL     1      -8.227  18.639  68.556  1.00  0.00    -0.341 A  
HETATM   17  C   UNL     1      -5.550  15.862  69.517  1.00  0.00    -0.124 C  
HETATM   18  C   UNL     1      -7.432  19.705  68.914  1.00  0.00    -0.323 A  
HETATM   19  N   UNL     1      -6.232  19.288  69.416  1.00  0.00    -0.279 NA 
HETATM   20  N   UNL     1      -5.287  17.105  69.747  1.00  0.00    -0.176 NA 
HETATM   21  C   UNL     1      -6.255  17.974  69.358  1.00  0.00    -0.250 A  
BRANCH  16  22
HETATM   22  C   UNL     1      -9.633  18.604  68.079  1.00  0.00    -0.348 C  
BRANCH  22  23
HETATM   23  C   UNL     1     -10.358  17.311  68.368  1.00  0.00    -0.366 A  
HETATM   24  C   UNL     1     -11.265  15.201  67.586  1.00  0.00    -0.329 A  
HETATM   25  C   UNL     1     -10.651  16.429  67.325  1.00  0.00    -0.293 A  
HETATM   26  C   UNL     1     -11.637  14.827  68.868  1.00  0.00    -0.313 A  
HETATM   27  N   UNL     1     -12.237  13.637  69.055  1.00  0.00    -0.296 NA 
HETATM   28  C   UNL     1     -12.630  13.316  70.305  1.00  0.00    -0.090 A  
HETATM   29  C   UNL     1     -12.450  14.135  71.403  1.00  0.00    -0.438 A  
HETATM   30  C   UNL     1     -11.806  15.353  71.210  1.00  0.00    -0.437 A  
HETATM   31  C   UNL     1     -11.383  15.726  69.925  1.00  0.00    -0.349 A  
HETATM   32  C   UNL     1     -10.733  16.952  69.671  1.00  0.00    -0.151 A  
ENDBRANCH  22  23
ENDBRANCH  16  22
ENDBRANCH   9  13
ENDBRANCH   3   6
TORSDOF 4
ENDMDL
MODEL      133
REMARK 921   NORMALIZED FREE ENERGY PREDICTED BY IDOCK:   -5.27 KCAL/MOL
REMARK 922        TOTAL FREE ENERGY PREDICTED BY IDOCK:   -7.16 KCAL/MOL
REMARK 923 INTER-LIGAND FREE ENERGY PREDICTED BY IDOCK:   -6.51 KCAL/MOL
REMARK 924 INTRA-LIGAND FREE ENERGY PREDICTED BY IDOCK:   -0.65 KCAL/MOL
REMARK 927      BINDING AFFINITY PREDICTED BY RF-SCORE:    0.00 PKD
ROOT
HETATM    1  C   UNL     1      -6.682  20.174  69.462  1.00  0.00    -0.205 C  
HETATM    2  N   UNL     1      -6.624  18.785  69.081  1.00  0.00    -0.280 N  
HETATM    3  C   UNL     1      -7.766  18.029  68.933  1.00  0.00    -0.204 C  
HETATM    4  H   UNL     1      -5.716  18.351  68.918  1.00  0.00     0.000 HD 
HETATM    5  O   UNL     1      -8.894  18.494  69.066  1.00  0.00    -0.201 OA 
ENDROOT
BRANCH   3   6
HETATM    6  C   UNL     1      -7.594  16.580  68.627  1.00  0.00    -0.213 A  
HETATM    7  C   UNL     1      -6.494  16.174  67.852  1.00  0.00    -0.158 A  
HETATM    8  C   UNL     1      -6.339  14.833  67.476  1.00  0.00    -0.055 A  
HETATM    9  C   UNL     1      -7.289  13.878  67.861  1.00  0.00    -0.157 A  
HETATM   10  C   UNL     1      -8.353  14.267  68.678  1.00  0.00    -0.135 A  
HETATM   11  F   UNL     1      -9.569  15.924  69.793  1.00  0.00    -0.257 F  
HETATM   12  C   UNL     1      -8.502  15.606  69.044  1.00  0.00    -0.231 A  
BRANCH   9  13
HETATM   13  C   UNL     1      -7.184  12.487  67.336  1.00  0.00    -0.146 C  
HETATM   14  N   UNL     1      -8.251  11.760  67.141  1.00  0.00    -0.162 NA 
HETATM   15  N   UNL     1      -7.958  10.485  66.730  1.00  0.00    -0.117 NA 
HETATM   16  C   UNL     1      -8.855   9.482  66.445  1.00  0.00    -0.144 A  
HETATM   17  C   UNL     1      -5.790  11.930  67.084  1.00  0.00    -0.144 C  
HETATM   18  C   UNL     1      -8.077   8.383  66.156  1.00  0.00    -0.106 A  
HETATM   19  N   UNL     1      -6.746   8.688  66.197  1.00  0.00    -0.068 NA 
HETATM   20  N   UNL     1      -5.566  10.720  66.692  1.00  0.00    -0.064 NA 
HETATM   21  C   UNL     1      -6.678   9.959  66.529  1.00  0.00    -0.080 A  
BRANCH  16  22
HETATM   22  C   UNL     1     -10.330   9.653  66.409  1.00  0.00    -0.246 C  
BRANCH  22  23
HETATM   23  C   UNL     1     -10.881  10.541  67.500  1.00  0.00    -0.357 A  
HETATM   24  C   UNL     1     -11.527  10.855  69.816  1.00  0.00    -0.390 A  
HETATM   25  C   UNL     1     -11.077  10.029  68.784  1.00  0.00    -0.219 A  
HETATM   26  C   UNL     1     -11.829  12.192  69.605  1.00  0.00    -0.322 A  
HETATM   27  N   UNL     1     -12.271  12.934  70.637  1.00  0.00    -0.363 NA 
HETATM   28  C   UNL     1     -12.600  14.221  70.395  1.00  0.00    -0.343 A  
HETATM   29  C   UNL     1     -12.508  14.818  69.153  1.00  0.00     0.000 A  
HETATM   30  C   UNL     1     -12.026  14.055  68.096  1.00  0.00    -0.382 A  
HETATM   31  C   UNL     1     -11.673  12.712  68.304  1.00  0.00    -0.389 A  
HETATM   32  C   UNL     1     -11.188  11.890  67.265  1.00  0.00    -0.376 A  
ENDBRANCH  22  23
ENDBRANCH  16  22
ENDBRANCH   9  13
ENDBRANCH   3   6
TORSDOF 4
ENDMDL
MODEL      134
REMARK 921   NORMALIZED FREE ENERGY PREDICTED BY IDOCK:   -5.27 KCAL/MOL
REMARK 922        TOTAL FREE ENERGY PREDICTED BY IDOCK:   -7.16 KCAL/MOL
REMARK 923 INTER-LIGAND FREE ENERGY PREDICTED BY IDOCK:   -6.46 KCAL/MOL
REMARK 924 INTRA-LIGAND FREE ENERGY PREDICTED BY IDOCK:   -0.70 KCAL/MOL
REMARK 927      BINDING AFFINITY PREDICTED BY RF-SCORE:    0.00 PKD
ROOT
HETATM    1  C   UNL     1      -8.471   3.693  62.377  1.00  0.00    -0.077 C  
HETATM    2  N   UNL     1      -8.695   4.656  63.426  1.00  0.00    -0.130 N  
HETATM    3  C   UNL     1      -8.684   4.291  64.754  1.00  0.00    -0.135 C  
HETATM    4  H   UNL     1      -8.866   5.630  63.179  1.00  0.00     0.000 HD 
HETATM    5  O   UNL     1      -8.438   3.149  65.129  1.00  0.00    -0.094 OA 
ENDROOT
BRANCH   3   6
HETATM    6  C   UNL     1      -9.016   5.344  65.757  1.00  0.00    -0.161 A  
HETATM    7  C   UNL     1     -10.191   5.214  66.517  1.00  0.00    -0.300 A  
HETATM    8  C   UNL     1     -10.579   6.219  67.413  1.00  0.00    -0.361 A  
HETATM    9  C   UNL     1      -9.802   7.376  67.555  1.00  0.00    -0.203 A  
HETATM   10  C   UNL     1      -8.604   7.483  66.844  1.00  0.00    -0.124 A  
HETATM   11  F   UNL     1      -7.089   6.661  65.264  1.00  0.00    -0.057 F  
HETATM   12  C   UNL     1      -8.228   6.479  65.950  1.00  0.00    -0.131 A  
BRANCH   9  13
HETATM   13  C   UNL     1     -10.301   8.493  68.405  1.00  0.00    -0.202 C  
HETATM   14  N   UNL     1     -11.073   8.263  69.433  1.00  0.00     0.007 NA 
HETATM   15  N   UNL     1     -11.496   9.413  70.049  1.00  0.00    -0.143 NA 
HETATM   16  C   UNL     1     -12.315   9.507  71.150  1.00  0.00    -0.326 A  
HETATM   17  C   UNL     1      -9.920   9.912  68.004  1.00  0.00    -0.152 C  
HETATM   18  C   UNL     1     -12.507  10.859  71.333  1.00  0.00    -0.355 A  
HETATM   19  N   UNL     1     -11.795  11.593  70.427  1.00  0.00    -0.334 NA 
HETATM   20  N   UNL     1     -10.342  10.964  68.621  1.00  0.00    -0.182 NA 
HETATM   21  C   UNL     1     -11.175  10.718  69.664  1.00  0.00    -0.291 A  
BRANCH  16  22
HETATM   22  C   UNL     1     -12.788   8.351  71.953  1.00  0.00    -0.384 C  
BRANCH  22  23
HETATM   23  C   UNL     1     -11.683   7.472  72.490  1.00  0.00    -0.310 A  
HETATM   24  C   UNL     1      -9.491   7.250  73.504  1.00  0.00    -0.268 A  
HETATM   25  C   UNL     1     -10.496   8.046  72.948  1.00  0.00    -0.402 A  
HETATM   26  C   UNL     1      -9.613   5.872  73.590  1.00  0.00    -0.143 A  
HETATM   27  N   UNL     1      -8.605   5.157  74.123  1.00  0.00    -0.114 NA 
HETATM   28  C   UNL     1      -8.729   3.813  74.154  1.00  0.00    -0.088 A  
HETATM   29  C   UNL     1      -9.829   3.131  73.672  1.00  0.00    -0.154 A  
HETATM   30  C   UNL     1     -10.880   3.875  73.146  1.00  0.00    -0.267 A  
HETATM   31  C   UNL     1     -10.790   5.275  73.094  1.00  0.00    -0.339 A  
HETATM   32  C   UNL     1     -11.821   6.078  72.562  1.00  0.00    -0.236 A  
ENDBRANCH  22  23
ENDBRANCH  16  22
ENDBRANCH   9  13
ENDBRANCH   3   6
TORSDOF 4
ENDMDL
MODEL      135
REMARK 921   NORMALIZED FREE ENERGY PREDICTED BY IDOCK:   -5.26 KCAL/MOL
REMARK 922        TOTAL FREE ENERGY PREDICTED BY IDOCK:   -7.15 KCAL/MOL
REMARK 923 INTER-LIGAND FREE ENERGY PREDICTED BY IDOCK:   -7.05 KCAL/MOL
REMARK 924 INTRA-LIGAND FREE ENERGY PREDICTED BY IDOCK:   -0.10 KCAL/MOL
REMARK 927      BINDING AFFINITY PREDICTED BY RF-SCORE:    0.00 PKD
ROOT
HETATM    1  C   UNL     1      -5.209  14.033  72.670  1.00  0.00    -0.216 C  
HETATM    2  N   UNL     1      -5.979  13.674  71.506  1.00  0.00    -0.298 N  
HETATM    3  C   UNL     1      -5.877  12.427  70.931  1.00  0.00     0.089 C  
HETATM    4  H   UNL     1      -6.615  14.359  71.099  1.00  0.00     0.000 HD 
HETATM    5  O   UNL     1      -5.172  11.536  71.392  1.00  0.00    -0.245 OA 
ENDROOT
BRANCH   3   6
HETATM    6  C   UNL     1      -6.648  12.185  69.676  1.00  0.00    -0.029 A  
HETATM    7  C   UNL     1      -6.556  13.119  68.631  1.00  0.00    -0.092 A  
HETATM    8  C   UNL     1      -7.324  12.970  67.467  1.00  0.00    -0.154 A  
HETATM    9  C   UNL     1      -8.204  11.889  67.337  1.00  0.00    -0.164 A  
HETATM   10  C   UNL     1      -8.256  10.928  68.351  1.00  0.00    -0.133 A  
HETATM   11  F   UNL     1      -7.618  10.153  70.463  1.00  0.00    -0.180 F  
HETATM   12  C   UNL     1      -7.491  11.086  69.507  1.00  0.00    -0.026 A  
BRANCH   9  13
HETATM   13  C   UNL     1      -9.113  11.822  66.159  1.00  0.00    -0.185 C  
HETATM   14  N   UNL     1     -10.176  12.578  66.086  1.00  0.00    -0.247 NA 
HETATM   15  N   UNL     1     -10.932  12.326  64.971  1.00  0.00    -0.293 NA 
HETATM   16  C   UNL     1     -12.105  12.949  64.610  1.00  0.00    -0.418 A  
HETATM   17  C   UNL     1      -8.788  10.808  65.071  1.00  0.00    -0.177 C  
HETATM   18  C   UNL     1     -12.514  12.297  63.467  1.00  0.00    -0.534 A  
HETATM   19  N   UNL     1     -11.613  11.344  63.085  1.00  0.00     0.020 NA 
HETATM   20  N   UNL     1      -9.532  10.611  64.034  1.00  0.00    -0.259 NA 
HETATM   21  C   UNL     1     -10.654  11.374  63.986  1.00  0.00    -0.383 A  
BRANCH  16  22
HETATM   22  C   UNL     1     -12.695  14.114  65.316  1.00  0.00    -0.425 C  
BRANCH  22  23
HETATM   23  C   UNL     1     -11.759  14.794  66.287  1.00  0.00    -0.260 A  
HETATM   24  C   UNL     1     -10.905  15.045  68.543  1.00  0.00    -0.250 A  
HETATM   25  C   UNL     1     -11.807  14.470  67.644  1.00  0.00    -0.395 A  
HETATM   26  C   UNL     1      -9.961  15.976  68.139  1.00  0.00    -0.228 A  
HETATM   27  N   UNL     1      -9.129  16.505  69.054  1.00  0.00    -0.252 NA 
HETATM   28  C   UNL     1      -8.249  17.442  68.642  1.00  0.00    -0.264 A  
HETATM   29  C   UNL     1      -8.153  17.887  67.338  1.00  0.00    -0.217 A  
HETATM   30  C   UNL     1      -8.998  17.319  66.390  1.00  0.00    -0.282 A  
HETATM   31  C   UNL     1      -9.928  16.342  66.777  1.00  0.00    -0.277 A  
HETATM   32  C   UNL     1     -10.815  15.740  65.860  1.00  0.00    -0.272 A  
ENDBRANCH  22  23
ENDBRANCH  16  22
ENDBRANCH   9  13
ENDBRANCH   3   6
TORSDOF 4
ENDMDL
MODEL      136
REMARK 921   NORMALIZED FREE ENERGY PREDICTED BY IDOCK:   -5.25 KCAL/MOL
REMARK 922        TOTAL FREE ENERGY PREDICTED BY IDOCK:   -7.14 KCAL/MOL
REMARK 923 INTER-LIGAND FREE ENERGY PREDICTED BY IDOCK:   -6.33 KCAL/MOL
REMARK 924 INTRA-LIGAND FREE ENERGY PREDICTED BY IDOCK:   -0.82 KCAL/MOL
REMARK 927      BINDING AFFINITY PREDICTED BY RF-SCORE:    0.00 PKD
ROOT
HETATM    1  C   UNL     1     -12.066  15.184  64.602  1.00  0.00    -0.257 C  
HETATM    2  N   UNL     1     -11.308  13.983  64.845  1.00  0.00    -0.339 N  
HETATM    3  C   UNL     1     -11.546  12.824  64.139  1.00  0.00    -0.396 C  
HETATM    4  H   UNL     1     -10.578  13.990  65.557  1.00  0.00     0.000 HD 
HETATM    5  O   UNL     1     -12.373  12.752  63.237  1.00  0.00    -0.630 OA 
ENDROOT
BRANCH   3   6
HETATM    6  C   UNL     1     -10.769  11.612  64.530  1.00  0.00    -0.378 A  
HETATM    7  C   UNL     1     -10.910  11.103  65.832  1.00  0.00    -0.223 A  
HETATM    8  C   UNL     1     -10.140  10.014  66.263  1.00  0.00    -0.310 A  
HETATM    9  C   UNL     1      -9.210   9.423  65.399  1.00  0.00    -0.305 A  
HETATM   10  C   UNL     1      -9.108   9.889  64.086  1.00  0.00    -0.294 A  
HETATM   11  F   UNL     1      -9.700  11.406  62.407  1.00  0.00    -0.269 F  
HETATM   12  C   UNL     1      -9.875  10.977  63.667  1.00  0.00    -0.351 A  
BRANCH   9  13
HETATM   13  C   UNL     1      -8.303   8.359  65.916  1.00  0.00    -0.134 C  
HETATM   14  N   UNL     1      -7.756   8.459  67.098  1.00  0.00    -0.096 NA 
HETATM   15  N   UNL     1      -6.893   7.429  67.373  1.00  0.00    -0.075 NA 
HETATM   16  C   UNL     1      -6.164   7.249  68.526  1.00  0.00    -0.035 A  
HETATM   17  C   UNL     1      -7.998   7.183  65.000  1.00  0.00    -0.129 C  
HETATM   18  C   UNL     1      -5.400   6.127  68.288  1.00  0.00    -0.007 A  
HETATM   19  N   UNL     1      -5.675   5.584  67.065  1.00  0.00    -0.016 NA 
HETATM   20  N   UNL     1      -7.180   6.233  65.308  1.00  0.00    -0.068 NA 
HETATM   21  C   UNL     1      -6.586   6.364  66.522  1.00  0.00    -0.048 A  
BRANCH  16  22
HETATM   22  C   UNL     1      -6.287   8.088  69.744  1.00  0.00    -0.036 C  
BRANCH  22  23
HETATM   23  C   UNL     1      -7.441   7.715  70.644  1.00  0.00    -0.072 A  
HETATM   24  C   UNL     1      -9.142   8.367  72.246  1.00  0.00    -0.313 A  
HETATM   25  C   UNL     1      -8.034   8.685  71.455  1.00  0.00    -0.178 A  
HETATM   26  C   UNL     1      -9.670   7.086  72.285  1.00  0.00    -0.153 A  
HETATM   27  N   UNL     1     -10.730   6.839  73.076  1.00  0.00    -0.266 NA 
HETATM   28  C   UNL     1     -11.198   5.574  73.131  1.00  0.00    -0.267 A  
HETATM   29  C   UNL     1     -10.652   4.521  72.422  1.00  0.00    -0.205 A  
HETATM   30  C   UNL     1      -9.573   4.786  71.586  1.00  0.00    -0.216 A  
HETATM   31  C   UNL     1      -9.056   6.088  71.501  1.00  0.00    -0.148 A  
HETATM   32  C   UNL     1      -7.958   6.411  70.677  1.00  0.00    -0.112 A  
ENDBRANCH  22  23
ENDBRANCH  16  22
ENDBRANCH   9  13
ENDBRANCH   3   6
TORSDOF 4
ENDMDL
MODEL      137
REMARK 921   NORMALIZED FREE ENERGY PREDICTED BY IDOCK:   -5.19 KCAL/MOL
REMARK 922        TOTAL FREE ENERGY PREDICTED BY IDOCK:   -7.07 KCAL/MOL
REMARK 923 INTER-LIGAND FREE ENERGY PREDICTED BY IDOCK:   -6.49 KCAL/MOL
REMARK 924 INTRA-LIGAND FREE ENERGY PREDICTED BY IDOCK:   -0.58 KCAL/MOL
REMARK 927      BINDING AFFINITY PREDICTED BY RF-SCORE:    0.00 PKD
ROOT
HETATM    1  C   UNL     1     -13.591  16.118  73.453  1.00  0.00    -0.203 C  
HETATM    2  N   UNL     1     -13.024  14.924  72.876  1.00  0.00    -0.438 N  
HETATM    3  C   UNL     1     -13.087  14.677  71.522  1.00  0.00    -0.348 C  
HETATM    4  H   UNL     1     -12.565  14.247  73.484  1.00  0.00     0.000 HD 
HETATM    5  O   UNL     1     -13.580  15.468  70.724  1.00  0.00    -0.487 OA 
ENDROOT
BRANCH   3   6
HETATM    6  C   UNL     1     -12.552  13.372  71.038  1.00  0.00    -0.425 A  
HETATM    7  C   UNL     1     -12.842  12.206  71.765  1.00  0.00    -0.367 A  
HETATM    8  C   UNL     1     -12.294  10.972  71.387  1.00  0.00    -0.368 A  
HETATM    9  C   UNL     1     -11.437  10.889  70.282  1.00  0.00    -0.391 A  
HETATM   10  C   UNL     1     -11.191  12.037  69.524  1.00  0.00    -0.220 A  
HETATM   11  F   UNL     1     -11.430  14.335  69.166  1.00  0.00    -0.251 F  
HETATM   12  C   UNL     1     -11.738  13.262  69.909  1.00  0.00    -0.259 A  
BRANCH   9  13
HETATM   13  C   UNL     1     -10.754   9.600  69.980  1.00  0.00    -0.259 C  
HETATM   14  N   UNL     1      -9.550   9.580  69.476  1.00  0.00    -0.177 NA 
HETATM   15  N   UNL     1      -9.113   8.311  69.192  1.00  0.00    -0.147 NA 
HETATM   16  C   UNL     1      -7.897   7.958  68.654  1.00  0.00    -0.119 A  
HETATM   17  C   UNL     1     -11.527   8.313  70.233  1.00  0.00    -0.065 C  
HETATM   18  C   UNL     1      -7.968   6.592  68.489  1.00  0.00    -0.110 A  
HETATM   19  N   UNL     1      -9.150   6.092  68.956  1.00  0.00    -0.123 NA 
HETATM   20  N   UNL     1     -11.069   7.139  69.952  1.00  0.00    -0.255 NA 
HETATM   21  C   UNL     1      -9.832   7.130  69.392  1.00  0.00    -0.161 A  
BRANCH  16  22
HETATM   22  C   UNL     1      -6.777   8.900  68.402  1.00  0.00    -0.060 C  
BRANCH  22  23
HETATM   23  C   UNL     1      -7.211  10.290  68.002  1.00  0.00    -0.085 A  
HETATM   24  C   UNL     1      -8.448  11.748  66.509  1.00  0.00    -0.125 A  
HETATM   25  C   UNL     1      -7.989  10.475  66.857  1.00  0.00    -0.121 A  
HETATM   26  C   UNL     1      -8.127  12.871  67.255  1.00  0.00    -0.163 A  
HETATM   27  N   UNL     1      -8.589  14.072  66.862  1.00  0.00    -0.174 NA 
HETATM   28  C   UNL     1      -8.225  15.156  67.580  1.00  0.00    -0.178 A  
HETATM   29  C   UNL     1      -7.408  15.102  68.693  1.00  0.00    -0.121 A  
HETATM   30  C   UNL     1      -6.955  13.856  69.111  1.00  0.00    -0.093 A  
HETATM   31  C   UNL     1      -7.309  12.704  68.392  1.00  0.00    -0.118 A  
HETATM   32  C   UNL     1      -6.869  11.416  68.765  1.00  0.00    -0.082 A  
ENDBRANCH  22  23
ENDBRANCH  16  22
ENDBRANCH   9  13
ENDBRANCH   3   6
TORSDOF 4
ENDMDL
MODEL      138
REMARK 921   NORMALIZED FREE ENERGY PREDICTED BY IDOCK:   -5.18 KCAL/MOL
REMARK 922        TOTAL FREE ENERGY PREDICTED BY IDOCK:   -7.05 KCAL/MOL
REMARK 923 INTER-LIGAND FREE ENERGY PREDICTED BY IDOCK:   -7.73 KCAL/MOL
REMARK 924 INTRA-LIGAND FREE ENERGY PREDICTED BY IDOCK:    0.68 KCAL/MOL
REMARK 927      BINDING AFFINITY PREDICTED BY RF-SCORE:    0.00 PKD
ROOT
HETATM    1  C   UNL     1     -12.129  11.877  63.554  1.00  0.00    -0.470 C  
HETATM    2  N   UNL     1     -11.445  12.863  64.353  1.00  0.00    -0.337 N  
HETATM    3  C   UNL     1     -11.797  14.194  64.313  1.00  0.00    -0.397 C  
HETATM    4  H   UNL     1     -10.682  12.569  64.962  1.00  0.00     0.000 HD 
HETATM    5  O   UNL     1     -12.734  14.615  63.642  1.00  0.00    -0.735 OA 
ENDROOT
BRANCH   3   6
HETATM    6  C   UNL     1     -10.969  15.146  65.108  1.00  0.00    -0.428 A  
HETATM    7  C   UNL     1     -11.272  16.517  65.058  1.00  0.00    -0.091 A  
HETATM    8  C   UNL     1     -10.471  17.453  65.727  1.00  0.00    -0.221 A  
HETATM    9  C   UNL     1      -9.347  17.031  66.449  1.00  0.00    -0.295 A  
HETATM   10  C   UNL     1      -9.075  15.664  66.547  1.00  0.00    -0.337 A  
HETATM   11  F   UNL     1      -9.538  13.445  65.972  1.00  0.00    -0.272 F  
HETATM   12  C   UNL     1      -9.876  14.740  65.874  1.00  0.00    -0.334 A  
BRANCH   9  13
HETATM   13  C   UNL     1      -8.429  18.048  67.036  1.00  0.00    -0.237 C  
HETATM   14  N   UNL     1      -7.704  17.771  68.085  1.00  0.00    -0.244 NA 
HETATM   15  N   UNL     1      -6.980  18.848  68.530  1.00  0.00    -0.262 NA 
HETATM   16  C   UNL     1      -6.127  18.880  69.609  1.00  0.00    -0.264 A  
HETATM   17  C   UNL     1      -8.407  19.431  66.400  1.00  0.00    -0.331 C  
HETATM   18  C   UNL     1      -5.710  20.191  69.690  1.00  0.00    -0.301 A  
HETATM   19  N   UNL     1      -6.228  20.944  68.675  1.00  0.00    -0.283 NA 
HETATM   20  N   UNL     1      -7.703  20.413  66.855  1.00  0.00    -0.312 NA 
HETATM   21  C   UNL     1      -6.981  20.128  67.970  1.00  0.00    -0.290 A  
BRANCH  16  22
HETATM   22  C   UNL     1      -5.736  17.696  70.415  1.00  0.00    -0.145 C  
BRANCH  22  23
HETATM   23  C   UNL     1      -5.678  16.403  69.635  1.00  0.00    -0.171 A  
HETATM   24  C   UNL     1      -5.155  15.219  67.584  1.00  0.00     0.000 A  
HETATM   25  C   UNL     1      -5.272  16.414  68.298  1.00  0.00    -0.107 A  
HETATM   26  C   UNL     1      -5.466  13.993  68.151  1.00  0.00    -0.121 A  
HETATM   27  N   UNL     1      -5.345  12.878  67.408  1.00  0.00    -0.321 NA 
HETATM   28  C   UNL     1      -5.697  11.702  67.969  1.00  0.00    -0.044 A  
HETATM   29  C   UNL     1      -6.171  11.577  69.261  1.00  0.00    -0.079 A  
HETATM   30  C   UNL     1      -6.269  12.729  70.034  1.00  0.00    -0.060 A  
HETATM   31  C   UNL     1      -5.915  13.972  69.488  1.00  0.00    -0.102 A  
HETATM   32  C   UNL     1      -6.004  15.173  70.224  1.00  0.00    -0.139 A  
ENDBRANCH  22  23
ENDBRANCH  16  22
ENDBRANCH   9  13
ENDBRANCH   3   6
TORSDOF 4
ENDMDL
MODEL      139
REMARK 921   NORMALIZED FREE ENERGY PREDICTED BY IDOCK:   -5.17 KCAL/MOL
REMARK 922        TOTAL FREE ENERGY PREDICTED BY IDOCK:   -7.04 KCAL/MOL
REMARK 923 INTER-LIGAND FREE ENERGY PREDICTED BY IDOCK:   -6.60 KCAL/MOL
REMARK 924 INTRA-LIGAND FREE ENERGY PREDICTED BY IDOCK:   -0.44 KCAL/MOL
REMARK 927      BINDING AFFINITY PREDICTED BY RF-SCORE:    0.00 PKD
ROOT
HETATM    1  C   UNL     1     -12.174  17.410  74.321  1.00  0.00     0.485 C  
HETATM    2  N   UNL     1     -11.945  16.379  73.339  1.00  0.00    -0.441 N  
HETATM    3  C   UNL     1     -12.982  15.644  72.809  1.00  0.00    -0.480 C  
HETATM    4  H   UNL     1     -10.992  16.190  73.030  1.00  0.00     0.000 HD 
HETATM    5  O   UNL     1     -14.157  15.846  73.097  1.00  0.00    -0.422 OA 
ENDROOT
BRANCH   3   6
HETATM    6  C   UNL     1     -12.629  14.541  71.869  1.00  0.00    -0.413 A  
HETATM    7  C   UNL     1     -13.030  13.230  72.177  1.00  0.00    -0.395 A  
HETATM    8  C   UNL     1     -12.653  12.155  71.360  1.00  0.00    -0.314 A  
HETATM    9  C   UNL     1     -11.858  12.375  70.228  1.00  0.00    -0.315 A  
HETATM   10  C   UNL     1     -11.505  13.683  69.887  1.00  0.00    -0.206 A  
HETATM   11  F   UNL     1     -11.475  15.975  70.352  1.00  0.00    -0.298 F  
HETATM   12  C   UNL     1     -11.882  14.747  70.709  1.00  0.00    -0.312 A  
BRANCH   9  13
HETATM   13  C   UNL     1     -11.350  11.209  69.452  1.00  0.00    -0.283 C  
HETATM   14  N   UNL     1     -10.538  11.375  68.442  1.00  0.00    -0.193 NA 
HETATM   15  N   UNL     1     -10.238  10.201  67.802  1.00  0.00    -0.180 NA 
HETATM   16  C   UNL     1      -9.418  10.042  66.708  1.00  0.00    -0.168 A  
HETATM   17  C   UNL     1     -11.850   9.826  69.845  1.00  0.00     0.056 C  
HETATM   18  C   UNL     1      -9.501   8.703  66.396  1.00  0.00    -0.230 A  
HETATM   19  N   UNL     1     -10.289   8.030  67.285  1.00  0.00    -0.273 NA 
HETATM   20  N   UNL     1     -11.533   8.746  69.211  1.00  0.00     0.398 NA 
HETATM   21  C   UNL     1     -10.720   8.933  68.140  1.00  0.00    -0.092 A  
BRANCH  16  22
HETATM   22  C   UNL     1      -8.600  11.123  66.102  1.00  0.00    -0.172 C  
BRANCH  22  23
HETATM   23  C   UNL     1      -9.185  12.507  66.252  1.00  0.00    -0.133 A  
HETATM   24  C   UNL     1     -10.807  14.178  65.573  1.00  0.00    -0.312 A  
HETATM   25  C   UNL     1     -10.214  12.924  65.405  1.00  0.00    -0.301 A  
HETATM   26  C   UNL     1     -10.381  15.064  66.550  1.00  0.00    -0.284 A  
HETATM   27  N   UNL     1     -10.982  16.263  66.655  1.00  0.00    -0.107 NA 
HETATM   28  C   UNL     1     -10.520  17.125  67.585  1.00  0.00    -0.355 A  
HETATM   29  C   UNL     1      -9.467  16.846  68.436  1.00  0.00    -0.258 A  
HETATM   30  C   UNL     1      -8.866  15.595  68.342  1.00  0.00    -0.184 A  
HETATM   31  C   UNL     1      -9.316  14.671  67.387  1.00  0.00    -0.196 A  
HETATM   32  C   UNL     1      -8.736  13.393  67.243  1.00  0.00    -0.219 A  
ENDBRANCH  22  23
ENDBRANCH  16  22
ENDBRANCH   9  13
ENDBRANCH   3   6
TORSDOF 4
ENDMDL
MODEL      140
REMARK 921   NORMALIZED FREE ENERGY PREDICTED BY IDOCK:   -5.17 KCAL/MOL
REMARK 922        TOTAL FREE ENERGY PREDICTED BY IDOCK:   -7.04 KCAL/MOL
REMARK 923 INTER-LIGAND FREE ENERGY PREDICTED BY IDOCK:   -6.39 KCAL/MOL
REMARK 924 INTRA-LIGAND FREE ENERGY PREDICTED BY IDOCK:   -0.65 KCAL/MOL
REMARK 927      BINDING AFFINITY PREDICTED BY RF-SCORE:    0.00 PKD
ROOT
HETATM    1  C   UNL     1     -10.630  17.379  68.588  1.00  0.00    -0.318 C  
HETATM    2  N   UNL     1     -10.726  15.947  68.728  1.00  0.00    -0.250 N  
HETATM    3  C   UNL     1     -11.815  15.353  69.328  1.00  0.00    -0.343 C  
HETATM    4  H   UNL     1      -9.971  15.360  68.376  1.00  0.00     0.000 HD 
HETATM    5  O   UNL     1     -12.783  15.989  69.732  1.00  0.00    -0.101 OA 
ENDROOT
BRANCH   3   6
HETATM    6  C   UNL     1     -11.776  13.872  69.505  1.00  0.00    -0.369 A  
HETATM    7  C   UNL     1     -12.216  13.321  70.720  1.00  0.00    -0.390 A  
HETATM    8  C   UNL     1     -12.122  11.942  70.957  1.00  0.00    -0.119 A  
HETATM    9  C   UNL     1     -11.577  11.095  69.984  1.00  0.00    -0.421 A  
HETATM   10  C   UNL     1     -11.191  11.632  68.753  1.00  0.00    -0.304 A  
HETATM   11  F   UNL     1     -10.857  13.466  67.342  1.00  0.00    -0.256 F  
HETATM   12  C   UNL     1     -11.284  13.006  68.527  1.00  0.00    -0.274 A  
BRANCH   9  13
HETATM   13  C   UNL     1     -11.357   9.657  70.305  1.00  0.00    -0.257 C  
HETATM   14  N   UNL     1     -11.137   8.783  69.360  1.00  0.00    -0.023 NA 
HETATM   15  N   UNL     1     -11.034   7.501  69.834  1.00  0.00    -0.240 NA 
HETATM   16  C   UNL     1     -10.808   6.362  69.095  1.00  0.00    -0.322 A  
HETATM   17  C   UNL     1     -11.447   9.236  71.765  1.00  0.00    -0.378 C  
HETATM   18  C   UNL     1     -10.867   5.332  70.007  1.00  0.00    -0.004 A  
HETATM   19  N   UNL     1     -11.063   5.797  71.276  1.00  0.00    -0.238 NA 
HETATM   20  N   UNL     1     -11.339   8.013  72.163  1.00  0.00    -0.302 NA 
HETATM   21  C   UNL     1     -11.149   7.106  71.170  1.00  0.00    -0.254 A  
BRANCH  16  22
HETATM   22  C   UNL     1     -10.501   6.345  67.642  1.00  0.00    -0.284 C  
BRANCH  22  23
HETATM   23  C   UNL     1      -9.191   7.000  67.273  1.00  0.00    -0.141 A  
HETATM   24  C   UNL     1      -6.888   7.527  67.820  1.00  0.00    -0.071 A  
HETATM   25  C   UNL     1      -8.124   6.979  68.173  1.00  0.00    -0.119 A  
HETATM   26  C   UNL     1      -6.682   8.138  66.594  1.00  0.00    -0.063 A  
HETATM   27  N   UNL     1      -5.473   8.660  66.317  1.00  0.00    -0.034 NA 
HETATM   28  C   UNL     1      -5.311   9.289  65.133  1.00  0.00    -0.041 A  
HETATM   29  C   UNL     1      -6.312   9.427  64.192  1.00  0.00    -0.093 A  
HETATM   30  C   UNL     1      -7.553   8.864  64.471  1.00  0.00    -0.109 A  
HETATM   31  C   UNL     1      -7.763   8.202  65.691  1.00  0.00    -0.090 A  
HETATM   32  C   UNL     1      -9.004   7.621  66.030  1.00  0.00    -0.178 A  
ENDBRANCH  22  23
ENDBRANCH  16  22
ENDBRANCH   9  13
ENDBRANCH   3   6
TORSDOF 4
ENDMDL
MODEL      141
REMARK 921   NORMALIZED FREE ENERGY PREDICTED BY IDOCK:   -5.17 KCAL/MOL
REMARK 922        TOTAL FREE ENERGY PREDICTED BY IDOCK:   -7.04 KCAL/MOL
REMARK 923 INTER-LIGAND FREE ENERGY PREDICTED BY IDOCK:   -6.65 KCAL/MOL
REMARK 924 INTRA-LIGAND FREE ENERGY PREDICTED BY IDOCK:   -0.39 KCAL/MOL
REMARK 927      BINDING AFFINITY PREDICTED BY RF-SCORE:    0.00 PKD
ROOT
HETATM    1  C   UNL     1     -10.585  19.379  66.714  1.00  0.00    -0.472 C  
HETATM    2  N   UNL     1     -10.534  17.963  66.451  1.00  0.00    -0.349 N  
HETATM    3  C   UNL     1     -10.757  17.036  67.446  1.00  0.00    -0.240 C  
HETATM    4  H   UNL     1     -10.328  17.638  65.507  1.00  0.00     0.000 HD 
HETATM    5  O   UNL     1     -11.058  17.350  68.593  1.00  0.00    -0.133 OA 
ENDROOT
BRANCH   3   6
HETATM    6  C   UNL     1     -10.592  15.597  67.091  1.00  0.00    -0.308 A  
HETATM    7  C   UNL     1     -11.630  14.698  67.392  1.00  0.00    -0.408 A  
HETATM    8  C   UNL     1     -11.483  13.326  67.147  1.00  0.00    -0.380 A  
HETATM    9  C   UNL     1     -10.290  12.830  66.606  1.00  0.00    -0.252 A  
HETATM   10  C   UNL     1      -9.278  13.727  66.252  1.00  0.00    -0.095 A  
HETATM   11  F   UNL     1      -8.407  15.896  66.183  1.00  0.00    -0.319 F  
HETATM   12  C   UNL     1      -9.431  15.091  66.504  1.00  0.00    -0.282 A  
BRANCH   9  13
HETATM   13  C   UNL     1     -10.097  11.357  66.482  1.00  0.00    -0.215 C  
HETATM   14  N   UNL     1     -10.148  10.583  67.533  1.00  0.00    -0.182 NA 
HETATM   15  N   UNL     1      -9.872   9.272  67.240  1.00  0.00    -0.170 NA 
HETATM   16  C   UNL     1      -9.843   8.217  68.124  1.00  0.00    -0.172 A  
HETATM   17  C   UNL     1      -9.791  10.798  65.101  1.00  0.00    -0.277 C  
HETATM   18  C   UNL     1      -9.445   7.136  67.368  1.00  0.00    -0.131 A  
HETATM   19  N   UNL     1      -9.286   7.474  66.055  1.00  0.00    -0.104 NA 
HETATM   20  N   UNL     1      -9.542   9.551  64.876  1.00  0.00    -0.185 NA 
HETATM   21  C   UNL     1      -9.558   8.759  65.979  1.00  0.00    -0.226 A  
BRANCH  16  22
HETATM   22  C   UNL     1     -10.240   8.299  69.552  1.00  0.00    -0.210 C  
BRANCH  22  23
HETATM   23  C   UNL     1      -9.595   7.261  70.439  1.00  0.00    -0.165 A  
HETATM   24  C   UNL     1      -7.593   6.251  71.363  1.00  0.00    -0.098 A  
HETATM   25  C   UNL     1      -8.203   7.165  70.500  1.00  0.00    -0.125 A  
HETATM   26  C   UNL     1      -8.332   5.388  72.157  1.00  0.00    -0.126 A  
HETATM   27  N   UNL     1      -7.687   4.521  72.959  1.00  0.00    -0.086 NA 
HETATM   28  C   UNL     1      -8.429   3.661  73.688  1.00  0.00    -0.083 A  
HETATM   29  C   UNL     1      -9.809   3.622  73.661  1.00  0.00    -0.155 A  
HETATM   30  C   UNL     1     -10.473   4.538  72.852  1.00  0.00    -0.254 A  
HETATM   31  C   UNL     1      -9.739   5.448  72.076  1.00  0.00    -0.198 A  
HETATM   32  C   UNL     1     -10.360   6.391  71.230  1.00  0.00    -0.244 A  
ENDBRANCH  22  23
ENDBRANCH  16  22
ENDBRANCH   9  13
ENDBRANCH   3   6
TORSDOF 4
ENDMDL
MODEL      142
REMARK 921   NORMALIZED FREE ENERGY PREDICTED BY IDOCK:   -5.15 KCAL/MOL
REMARK 922        TOTAL FREE ENERGY PREDICTED BY IDOCK:   -7.01 KCAL/MOL
REMARK 923 INTER-LIGAND FREE ENERGY PREDICTED BY IDOCK:   -6.63 KCAL/MOL
REMARK 924 INTRA-LIGAND FREE ENERGY PREDICTED BY IDOCK:   -0.38 KCAL/MOL
REMARK 927      BINDING AFFINITY PREDICTED BY RF-SCORE:    0.00 PKD
ROOT
HETATM    1  C   UNL     1      -5.882   7.159  70.849  1.00  0.00    -0.031 C  
HETATM    2  N   UNL     1      -6.090   8.558  70.569  1.00  0.00    -0.031 N  
HETATM    3  C   UNL     1      -6.910   8.974  69.544  1.00  0.00    -0.048 C  
HETATM    4  H   UNL     1      -5.619   9.256  71.144  1.00  0.00     0.000 HD 
HETATM    5  O   UNL     1      -7.547   8.195  68.842  1.00  0.00    -0.094 OA 
ENDROOT
BRANCH   3   6
HETATM    6  C   UNL     1      -6.987  10.440  69.279  1.00  0.00    -0.080 A  
HETATM    7  C   UNL     1      -6.113  11.301  69.963  1.00  0.00    -0.142 A  
HETATM    8  C   UNL     1      -6.205  12.691  69.802  1.00  0.00    -0.111 A  
HETATM    9  C   UNL     1      -7.181  13.240  68.962  1.00  0.00    -0.007 A  
HETATM   10  C   UNL     1      -8.015  12.384  68.236  1.00  0.00    -0.160 A  
HETATM   11  F   UNL     1      -8.776  10.236  67.715  1.00  0.00    -0.120 F  
HETATM   12  C   UNL     1      -7.919  11.002  68.406  1.00  0.00    -0.131 A  
BRANCH   9  13
HETATM   13  C   UNL     1      -7.356  14.719  68.910  1.00  0.00    -0.130 C  
HETATM   14  N   UNL     1      -8.501  15.249  68.572  1.00  0.00    -0.154 NA 
HETATM   15  N   UNL     1      -8.454  16.618  68.505  1.00  0.00    -0.223 NA 
HETATM   16  C   UNL     1      -9.488  17.464  68.176  1.00  0.00    -0.288 A  
HETATM   17  C   UNL     1      -6.143  15.586  69.217  1.00  0.00    -0.116 C  
HETATM   18  C   UNL     1      -8.926  18.722  68.172  1.00  0.00    -0.308 A  
HETATM   19  N   UNL     1      -7.611  18.684  68.540  1.00  0.00    -0.302 NA 
HETATM   20  N   UNL     1      -6.151  16.875  69.144  1.00  0.00    -0.172 NA 
HETATM   21  C   UNL     1      -7.334  17.416  68.754  1.00  0.00    -0.257 A  
BRANCH  16  22
HETATM   22  C   UNL     1     -10.893  17.038  67.958  1.00  0.00    -0.330 C  
BRANCH  22  23
HETATM   23  C   UNL     1     -11.290  15.789  68.710  1.00  0.00    -0.362 A  
HETATM   24  C   UNL     1     -12.099  14.739  70.741  1.00  0.00    -0.374 A  
HETATM   25  C   UNL     1     -11.671  15.876  70.051  1.00  0.00    -0.340 A  
HETATM   26  C   UNL     1     -12.129  13.488  70.144  1.00  0.00    -0.354 A  
HETATM   27  N   UNL     1     -12.539  12.428  70.865  1.00  0.00    -0.310 NA 
HETATM   28  C   UNL     1     -12.517  11.215  70.274  1.00  0.00    -0.274 A  
HETATM   29  C   UNL     1     -12.100  10.999  68.975  1.00  0.00    -0.285 A  
HETATM   30  C   UNL     1     -11.702  12.101  68.226  1.00  0.00    -0.401 A  
HETATM   31  C   UNL     1     -11.709  13.380  68.802  1.00  0.00    -0.377 A  
HETATM   32  C   UNL     1     -11.307  14.531  68.092  1.00  0.00    -0.319 A  
ENDBRANCH  22  23
ENDBRANCH  16  22
ENDBRANCH   9  13
ENDBRANCH   3   6
TORSDOF 4
ENDMDL
MODEL      143
REMARK 921   NORMALIZED FREE ENERGY PREDICTED BY IDOCK:   -5.14 KCAL/MOL
REMARK 922        TOTAL FREE ENERGY PREDICTED BY IDOCK:   -7.00 KCAL/MOL
REMARK 923 INTER-LIGAND FREE ENERGY PREDICTED BY IDOCK:   -7.02 KCAL/MOL
REMARK 924 INTRA-LIGAND FREE ENERGY PREDICTED BY IDOCK:    0.01 KCAL/MOL
REMARK 927      BINDING AFFINITY PREDICTED BY RF-SCORE:    0.00 PKD
ROOT
HETATM    1  C   UNL     1     -10.437  19.771  66.180  1.00  0.00    -0.509 C  
HETATM    2  N   UNL     1      -9.953  18.467  66.560  1.00  0.00    -0.359 N  
HETATM    3  C   UNL     1      -8.633  18.110  66.390  1.00  0.00    -0.229 C  
HETATM    4  H   UNL     1     -10.602  17.793  66.964  1.00  0.00     0.000 HD 
HETATM    5  O   UNL     1      -7.785  18.882  65.956  1.00  0.00    -0.355 OA 
ENDROOT
BRANCH   3   6
HETATM    6  C   UNL     1      -8.254  16.708  66.730  1.00  0.00    -0.274 A  
HETATM    7  C   UNL     1      -9.231  15.702  66.659  1.00  0.00    -0.294 A  
HETATM    8  C   UNL     1      -8.935  14.387  67.045  1.00  0.00    -0.257 A  
HETATM    9  C   UNL     1      -7.658  14.061  67.519  1.00  0.00    -0.195 A  
HETATM   10  C   UNL     1      -6.668  15.047  67.538  1.00  0.00    -0.178 A  
HETATM   11  F   UNL     1      -5.990  17.265  67.237  1.00  0.00    -0.122 F  
HETATM   12  C   UNL     1      -6.972  16.354  67.155  1.00  0.00    -0.204 A  
BRANCH   9  13
HETATM   13  C   UNL     1      -7.402  12.695  68.056  1.00  0.00    -0.114 C  
HETATM   14  N   UNL     1      -8.035  11.657  67.580  1.00  0.00    -0.133 NA 
HETATM   15  N   UNL     1      -7.730  10.497  68.245  1.00  0.00    -0.098 NA 
HETATM   16  C   UNL     1      -8.229   9.241  67.987  1.00  0.00    -0.115 A  
HETATM   17  C   UNL     1      -6.418  12.562  69.209  1.00  0.00    -0.104 C  
HETATM   18  C   UNL     1      -7.684   8.438  68.965  1.00  0.00    -0.097 A  
HETATM   19  N   UNL     1      -6.833   9.138  69.772  1.00  0.00    -0.049 NA 
HETATM   20  N   UNL     1      -6.161  11.443  69.801  1.00  0.00    -0.108 NA 
HETATM   21  C   UNL     1      -6.851  10.375  69.325  1.00  0.00    -0.073 A  
BRANCH  16  22
HETATM   22  C   UNL     1      -9.103   8.898  66.837  1.00  0.00    -0.163 C  
BRANCH  22  23
HETATM   23  C   UNL     1      -9.568  10.089  66.031  1.00  0.00    -0.279 A  
HETATM   24  C   UNL     1      -9.460  11.412  64.001  1.00  0.00    -0.159 A  
HETATM   25  C   UNL     1      -8.997  10.351  64.784  1.00  0.00    -0.228 A  
HETATM   26  C   UNL     1     -10.467  12.258  64.438  1.00  0.00    -0.325 A  
HETATM   27  N   UNL     1     -10.861  13.271  63.644  1.00  0.00    -0.024 NA 
HETATM   28  C   UNL     1     -11.811  14.108  64.110  1.00  0.00    -0.337 A  
HETATM   29  C   UNL     1     -12.403  13.984  65.353  1.00  0.00    -0.495 A  
HETATM   30  C   UNL     1     -12.011  12.921  66.159  1.00  0.00    -0.491 A  
HETATM   31  C   UNL     1     -11.024  12.029  65.712  1.00  0.00    -0.351 A  
HETATM   32  C   UNL     1     -10.583  10.939  66.493  1.00  0.00    -0.295 A  
ENDBRANCH  22  23
ENDBRANCH  16  22
ENDBRANCH   9  13
ENDBRANCH   3   6
TORSDOF 4
ENDMDL
MODEL      144
REMARK 921   NORMALIZED FREE ENERGY PREDICTED BY IDOCK:   -5.13 KCAL/MOL
REMARK 922        TOTAL FREE ENERGY PREDICTED BY IDOCK:   -6.98 KCAL/MOL
REMARK 923 INTER-LIGAND FREE ENERGY PREDICTED BY IDOCK:   -6.59 KCAL/MOL
REMARK 924 INTRA-LIGAND FREE ENERGY PREDICTED BY IDOCK:   -0.39 KCAL/MOL
REMARK 927      BINDING AFFINITY PREDICTED BY RF-SCORE:    0.00 PKD
ROOT
HETATM    1  C   UNL     1      -9.549   1.894  68.174  1.00  0.00    -0.074 C  
HETATM    2  N   UNL     1      -9.310   3.313  68.269  1.00  0.00    -0.187 N  
HETATM    3  C   UNL     1      -9.435   4.140  67.175  1.00  0.00    -0.189 C  
HETATM    4  H   UNL     1      -9.041   3.713  69.167  1.00  0.00     0.000 HD 
HETATM    5  O   UNL     1      -9.800   3.739  66.075  1.00  0.00    -0.164 OA 
ENDROOT
BRANCH   3   6
HETATM    6  C   UNL     1      -9.077   5.577  67.358  1.00  0.00    -0.110 A  
HETATM    7  C   UNL     1      -7.750   5.912  67.676  1.00  0.00    -0.097 A  
HETATM    8  C   UNL     1      -7.390   7.243  67.932  1.00  0.00    -0.097 A  
HETATM    9  C   UNL     1      -8.355   8.257  67.884  1.00  0.00    -0.128 A  
HETATM   10  C   UNL     1      -9.663   7.934  67.512  1.00  0.00    -0.204 A  
HETATM   11  F   UNL     1     -11.295   6.356  66.954  1.00  0.00    -0.430 F  
HETATM   12  C   UNL     1     -10.014   6.607  67.263  1.00  0.00    -0.154 A  
BRANCH   9  13
HETATM   13  C   UNL     1      -7.984   9.640  68.295  1.00  0.00    -0.096 C  
HETATM   14  N   UNL     1      -8.726  10.661  67.960  1.00  0.00    -0.124 NA 
HETATM   15  N   UNL     1      -8.191  11.860  68.358  1.00  0.00    -0.162 NA 
HETATM   16  C   UNL     1      -8.726  13.111  68.155  1.00  0.00    -0.193 A  
HETATM   17  C   UNL     1      -6.690   9.824  69.074  1.00  0.00    -0.049 C  
HETATM   18  C   UNL     1      -7.788  13.983  68.664  1.00  0.00    -0.130 A  
HETATM   19  N   UNL     1      -6.733  13.315  69.218  1.00  0.00    -0.095 NA 
HETATM   20  N   UNL     1      -6.230  10.976  69.431  1.00  0.00    -0.061 NA 
HETATM   21  C   UNL     1      -6.987  12.036  69.045  1.00  0.00    -0.094 A  
BRANCH  16  22
HETATM   22  C   UNL     1     -10.065  13.373  67.570  1.00  0.00    -0.227 C  
BRANCH  22  23
HETATM   23  C   UNL     1     -10.237  14.763  67.004  1.00  0.00    -0.253 A  
HETATM   24  C   UNL     1     -10.635  16.212  65.099  1.00  0.00    -0.366 A  
HETATM   25  C   UNL     1     -10.414  14.938  65.629  1.00  0.00    -0.366 A  
HETATM   26  C   UNL     1     -10.654  17.344  65.899  1.00  0.00    -0.200 A  
HETATM   27  N   UNL     1     -10.859  18.545  65.328  1.00  0.00    -0.466 NA 
HETATM   28  C   UNL     1     -10.828  19.637  66.122  1.00  0.00    -0.315 A  
HETATM   29  C   UNL     1     -10.599  19.591  67.484  1.00  0.00    -0.599 A  
HETATM   30  C   UNL     1     -10.414  18.345  68.073  1.00  0.00    -0.390 A  
HETATM   31  C   UNL     1     -10.437  17.186  67.283  1.00  0.00    -0.313 A  
HETATM   32  C   UNL     1     -10.245  15.898  67.827  1.00  0.00    -0.260 A  
ENDBRANCH  22  23
ENDBRANCH  16  22
ENDBRANCH   9  13
ENDBRANCH   3   6
TORSDOF 4
ENDMDL
MODEL      145
REMARK 921   NORMALIZED FREE ENERGY PREDICTED BY IDOCK:   -5.09 KCAL/MOL
REMARK 922        TOTAL FREE ENERGY PREDICTED BY IDOCK:   -6.93 KCAL/MOL
REMARK 923 INTER-LIGAND FREE ENERGY PREDICTED BY IDOCK:   -6.35 KCAL/MOL
REMARK 924 INTRA-LIGAND FREE ENERGY PREDICTED BY IDOCK:   -0.58 KCAL/MOL
REMARK 927      BINDING AFFINITY PREDICTED BY RF-SCORE:    0.00 PKD
ROOT
HETATM    1  C   UNL     1     -12.601  15.579  71.786  1.00  0.00    -0.410 C  
HETATM    2  N   UNL     1     -12.133  14.389  71.120  1.00  0.00    -0.336 N  
HETATM    3  C   UNL     1     -12.680  13.153  71.384  1.00  0.00    -0.297 C  
HETATM    4  H   UNL     1     -11.378  14.464  70.439  1.00  0.00     0.000 HD 
HETATM    5  O   UNL     1     -13.621  12.992  72.154  1.00  0.00    -0.523 OA 
ENDROOT
BRANCH   3   6
HETATM    6  C   UNL     1     -12.065  11.973  70.711  1.00  0.00    -0.297 A  
HETATM    7  C   UNL     1     -11.430  12.152  69.470  1.00  0.00    -0.334 A  
HETATM    8  C   UNL     1     -10.908  11.056  68.768  1.00  0.00    -0.253 A  
HETATM    9  C   UNL     1     -11.023   9.763  69.293  1.00  0.00    -0.222 A  
HETATM   10  C   UNL     1     -11.603   9.588  70.552  1.00  0.00    -0.316 A  
HETATM   11  F   UNL     1     -12.707  10.445  72.427  1.00  0.00    -0.411 F  
HETATM   12  C   UNL     1     -12.124  10.684  71.242  1.00  0.00    -0.299 A  
BRANCH   9  13
HETATM   13  C   UNL     1     -10.589   8.598  68.472  1.00  0.00    -0.119 C  
HETATM   14  N   UNL     1     -10.201   7.486  69.035  1.00  0.00    -0.200 NA 
HETATM   15  N   UNL     1      -9.766   6.553  68.128  1.00  0.00    -0.125 NA 
HETATM   16  C   UNL     1      -9.293   5.291  68.404  1.00  0.00    -0.118 A  
HETATM   17  C   UNL     1     -10.567   8.768  66.959  1.00  0.00    -0.213 C  
HETATM   18  C   UNL     1      -8.914   4.782  67.181  1.00  0.00    -0.112 A  
HETATM   19  N   UNL     1      -9.187   5.656  66.168  1.00  0.00    -0.158 NA 
HETATM   20  N   UNL     1     -10.152   7.856  66.145  1.00  0.00     0.073 NA 
HETATM   21  C   UNL     1      -9.714   6.717  66.741  1.00  0.00    -0.171 A  
BRANCH  16  22
HETATM   22  C   UNL     1      -9.295   4.662  69.749  1.00  0.00    -0.215 C  
BRANCH  22  23
HETATM   23  C   UNL     1      -8.451   5.382  70.774  1.00  0.00    -0.121 A  
HETATM   24  C   UNL     1      -6.269   5.892  71.702  1.00  0.00    -0.043 A  
HETATM   25  C   UNL     1      -7.069   5.186  70.800  1.00  0.00    -0.060 A  
HETATM   26  C   UNL     1      -6.810   6.778  72.621  1.00  0.00    -0.063 A  
HETATM   27  N   UNL     1      -5.989   7.419  73.474  1.00  0.00    -0.056 NA 
HETATM   28  C   UNL     1      -6.544   8.242  74.388  1.00  0.00    -0.128 A  
HETATM   29  C   UNL     1      -7.903   8.465  74.498  1.00  0.00    -0.259 A  
HETATM   30  C   UNL     1      -8.745   7.820  73.598  1.00  0.00    -0.308 A  
HETATM   31  C   UNL     1      -8.209   6.955  72.633  1.00  0.00    -0.115 A  
HETATM   32  C   UNL     1      -9.017   6.269  71.702  1.00  0.00    -0.144 A  
ENDBRANCH  22  23
ENDBRANCH  16  22
ENDBRANCH   9  13
ENDBRANCH   3   6
TORSDOF 4
ENDMDL
MODEL      146
REMARK 921   NORMALIZED FREE ENERGY PREDICTED BY IDOCK:   -5.07 KCAL/MOL
REMARK 922        TOTAL FREE ENERGY PREDICTED BY IDOCK:   -6.91 KCAL/MOL
REMARK 923 INTER-LIGAND FREE ENERGY PREDICTED BY IDOCK:   -6.11 KCAL/MOL
REMARK 924 INTRA-LIGAND FREE ENERGY PREDICTED BY IDOCK:   -0.80 KCAL/MOL
REMARK 927      BINDING AFFINITY PREDICTED BY RF-SCORE:    0.00 PKD
ROOT
HETATM    1  C   UNL     1     -11.952  17.866  73.986  1.00  0.00     1.097 C  
HETATM    2  N   UNL     1     -11.853  16.624  73.261  1.00  0.00    -0.359 N  
HETATM    3  C   UNL     1     -12.967  15.869  72.968  1.00  0.00    -0.530 C  
HETATM    4  H   UNL     1     -10.936  16.296  72.957  1.00  0.00     0.000 HD 
HETATM    5  O   UNL     1     -14.106  16.222  73.259  1.00  0.00    -0.434 OA 
ENDROOT
BRANCH   3   6
HETATM    6  C   UNL     1     -12.749  14.557  72.294  1.00  0.00    -0.406 A  
HETATM    7  C   UNL     1     -13.360  13.409  72.825  1.00  0.00    -0.323 A  
HETATM    8  C   UNL     1     -13.117  12.145  72.268  1.00  0.00    -0.212 A  
HETATM    9  C   UNL     1     -12.250  12.010  71.177  1.00  0.00    -0.144 A  
HETATM   10  C   UNL     1     -11.685  13.156  70.611  1.00  0.00     0.093 A  
HETATM   11  F   UNL     1     -11.322  15.466  70.612  1.00  0.00    -0.253 F  
HETATM   12  C   UNL     1     -11.929  14.410  71.174  1.00  0.00    -0.316 A  
BRANCH   9  13
HETATM   13  C   UNL     1     -11.894  10.649  70.687  1.00  0.00    -0.363 C  
HETATM   14  N   UNL     1     -10.966  10.480  69.784  1.00  0.00    -0.276 NA 
HETATM   15  N   UNL     1     -10.829   9.171  69.400  1.00  0.00    -0.194 NA 
HETATM   16  C   UNL     1      -9.945   8.671  68.472  1.00  0.00    -0.183 A  
HETATM   17  C   UNL     1     -12.684   9.470  71.239  1.00  0.00    -0.332 C  
HETATM   18  C   UNL     1     -10.247   7.330  68.384  1.00  0.00    -0.180 A  
HETATM   19  N   UNL     1     -11.236   6.981  69.259  1.00  0.00    -0.125 NA 
HETATM   20  N   UNL     1     -12.514   8.252  70.847  1.00  0.00    -0.082 NA 
HETATM   21  C   UNL     1     -11.574   8.091  69.880  1.00  0.00     0.270 A  
BRANCH  16  22
HETATM   22  C   UNL     1      -8.879   9.463  67.807  1.00  0.00    -0.124 C  
BRANCH  22  23
HETATM   23  C   UNL     1      -9.385  10.638  67.004  1.00  0.00    -0.175 A  
HETATM   24  C   UNL     1      -9.256  12.992  66.432  1.00  0.00    -0.141 A  
HETATM   25  C   UNL     1      -8.841  11.908  67.211  1.00  0.00    -0.179 A  
HETATM   26  C   UNL     1     -10.235  12.862  65.459  1.00  0.00    -0.287 A  
HETATM   27  N   UNL     1     -10.601  13.946  64.750  1.00  0.00    -0.413 NA 
HETATM   28  C   UNL     1     -11.588  13.803  63.841  1.00  0.00    -0.195 A  
HETATM   29  C   UNL     1     -12.241  12.610  63.595  1.00  0.00    -0.624 A  
HETATM   30  C   UNL     1     -11.842  11.488  64.312  1.00  0.00    -0.099 A  
HETATM   31  C   UNL     1     -10.820  11.593  65.268  1.00  0.00    -0.340 A  
HETATM   32  C   UNL     1     -10.382  10.489  66.029  1.00  0.00    -0.279 A  
ENDBRANCH  22  23
ENDBRANCH  16  22
ENDBRANCH   9  13
ENDBRANCH   3   6
TORSDOF 4
ENDMDL
MODEL      147
REMARK 921   NORMALIZED FREE ENERGY PREDICTED BY IDOCK:   -5.06 KCAL/MOL
REMARK 922        TOTAL FREE ENERGY PREDICTED BY IDOCK:   -6.90 KCAL/MOL
REMARK 923 INTER-LIGAND FREE ENERGY PREDICTED BY IDOCK:   -6.59 KCAL/MOL
REMARK 924 INTRA-LIGAND FREE ENERGY PREDICTED BY IDOCK:   -0.31 KCAL/MOL
REMARK 927      BINDING AFFINITY PREDICTED BY RF-SCORE:    0.00 PKD
ROOT
HETATM    1  C   UNL     1     -13.333  15.647  72.279  1.00  0.00    -0.478 C  
HETATM    2  N   UNL     1     -12.806  14.452  71.667  1.00  0.00    -0.326 N  
HETATM    3  C   UNL     1     -13.365  13.215  71.901  1.00  0.00    -0.455 C  
HETATM    4  H   UNL     1     -12.000  14.524  71.047  1.00  0.00     0.000 HD 
HETATM    5  O   UNL     1     -14.364  13.056  72.595  1.00  0.00    -0.565 OA 
ENDROOT
BRANCH   3   6
HETATM    6  C   UNL     1     -12.691  12.032  71.293  1.00  0.00    -0.382 A  
HETATM    7  C   UNL     1     -11.810  12.230  70.216  1.00  0.00    -0.324 A  
HETATM    8  C   UNL     1     -11.217  11.138  69.566  1.00  0.00    -0.341 A  
HETATM    9  C   UNL     1     -11.504   9.831  69.979  1.00  0.00    -0.232 A  
HETATM   10  C   UNL     1     -12.334   9.633  71.085  1.00  0.00    -0.427 A  
HETATM   11  F   UNL     1     -13.746  10.468  72.752  1.00  0.00    -0.136 F  
HETATM   12  C   UNL     1     -12.924  10.725  71.723  1.00  0.00    -0.463 A  
BRANCH   9  13
HETATM   13  C   UNL     1     -10.976   8.682  69.190  1.00  0.00     0.063 C  
HETATM   14  N   UNL     1     -10.206   8.875  68.154  1.00  0.00    -0.193 NA 
HETATM   15  N   UNL     1      -9.881   7.710  67.508  1.00  0.00    -0.154 NA 
HETATM   16  C   UNL     1      -9.092   7.578  66.389  1.00  0.00    -0.173 A  
HETATM   17  C   UNL     1     -11.408   7.282  69.605  1.00  0.00    -0.011 C  
HETATM   18  C   UNL     1      -9.132   6.235  66.085  1.00  0.00    -0.138 A  
HETATM   19  N   UNL     1      -9.864   5.536  67.002  1.00  0.00    -0.143 NA 
HETATM   20  N   UNL     1     -11.071   6.213  68.965  1.00  0.00    -0.379 NA 
HETATM   21  C   UNL     1     -10.301   6.426  67.867  1.00  0.00    -0.190 A  
BRANCH  16  22
HETATM   22  C   UNL     1      -8.337   8.687  65.752  1.00  0.00    -0.148 C  
BRANCH  22  23
HETATM   23  C   UNL     1      -7.852   9.744  66.715  1.00  0.00    -0.102 A  
HETATM   24  C   UNL     1      -7.924  12.030  67.522  1.00  0.00    -0.159 A  
HETATM   25  C   UNL     1      -8.317  11.056  66.601  1.00  0.00    -0.155 A  
HETATM   26  C   UNL     1      -7.041  11.749  68.553  1.00  0.00    -0.091 A  
HETATM   27  N   UNL     1      -6.690  12.733  69.401  1.00  0.00    -0.065 NA 
HETATM   28  C   UNL     1      -5.794  12.444  70.369  1.00  0.00    -0.149 A  
HETATM   29  C   UNL     1      -5.219  11.200  70.539  1.00  0.00    -0.102 A  
HETATM   30  C   UNL     1      -5.604  10.180  69.676  1.00  0.00    -0.038 A  
HETATM   31  C   UNL     1      -6.532  10.438  68.655  1.00  0.00    -0.051 A  
HETATM   32  C   UNL     1      -6.951   9.443  67.747  1.00  0.00    -0.080 A  
ENDBRANCH  22  23
ENDBRANCH  16  22
ENDBRANCH   9  13
ENDBRANCH   3   6
TORSDOF 4
ENDMDL
MODEL      148
REMARK 921   NORMALIZED FREE ENERGY PREDICTED BY IDOCK:   -5.06 KCAL/MOL
REMARK 922        TOTAL FREE ENERGY PREDICTED BY IDOCK:   -6.90 KCAL/MOL
REMARK 923 INTER-LIGAND FREE ENERGY PREDICTED BY IDOCK:   -6.57 KCAL/MOL
REMARK 924 INTRA-LIGAND FREE ENERGY PREDICTED BY IDOCK:   -0.32 KCAL/MOL
REMARK 927      BINDING AFFINITY PREDICTED BY RF-SCORE:    0.00 PKD
ROOT
HETATM    1  C   UNL     1      -7.762  19.307  66.282  1.00  0.00    -0.289 C  
HETATM    2  N   UNL     1      -7.615  17.887  66.481  1.00  0.00    -0.232 N  
HETATM    3  C   UNL     1      -8.001  17.279  67.655  1.00  0.00    -0.187 C  
HETATM    4  H   UNL     1      -7.215  17.318  65.735  1.00  0.00     0.000 HD 
HETATM    5  O   UNL     1      -8.533  17.889  68.577  1.00  0.00    -0.296 OA 
ENDROOT
BRANCH   3   6
HETATM    6  C   UNL     1      -7.723  15.821  67.796  1.00  0.00    -0.159 A  
HETATM    7  C   UNL     1      -8.639  14.899  67.263  1.00  0.00    -0.232 A  
HETATM    8  C   UNL     1      -8.455  13.520  67.442  1.00  0.00    -0.203 A  
HETATM    9  C   UNL     1      -7.355  13.044  68.167  1.00  0.00    -0.118 A  
HETATM   10  C   UNL     1      -6.412  13.955  68.650  1.00  0.00    -0.092 A  
HETATM   11  F   UNL     1      -5.688  16.152  68.995  1.00  0.00    -0.112 F  
HETATM   12  C   UNL     1      -6.606  15.326  68.470  1.00  0.00    -0.109 A  
BRANCH   9  13
HETATM   13  C   UNL     1      -7.250  11.588  68.467  1.00  0.00    -0.096 C  
HETATM   14  N   UNL     1      -8.319  10.845  68.571  1.00  0.00    -0.135 NA 
HETATM   15  N   UNL     1      -8.034   9.552  68.926  1.00  0.00    -0.089 NA 
HETATM   16  C   UNL     1      -8.936   8.530  69.117  1.00  0.00    -0.146 A  
HETATM   17  C   UNL     1      -5.860  11.012  68.696  1.00  0.00    -0.043 C  
HETATM   18  C   UNL     1      -8.174   7.461  69.535  1.00  0.00    -0.131 A  
HETATM   19  N   UNL     1      -6.844   7.770  69.551  1.00  0.00    -0.046 NA 
HETATM   20  N   UNL     1      -5.644   9.783  69.025  1.00  0.00    -0.036 NA 
HETATM   21  C   UNL     1      -6.762   9.026  69.169  1.00  0.00    -0.050 A  
BRANCH  16  22
HETATM   22  C   UNL     1     -10.392   8.625  68.841  1.00  0.00    -0.228 C  
BRANCH  22  23
HETATM   23  C   UNL     1     -10.877  10.020  68.527  1.00  0.00    -0.270 A  
HETATM   24  C   UNL     1     -11.602  12.205  69.293  1.00  0.00    -0.377 A  
HETATM   25  C   UNL     1     -11.211  10.892  69.567  1.00  0.00    -0.340 A  
HETATM   26  C   UNL     1     -11.708  12.682  67.996  1.00  0.00    -0.350 A  
HETATM   27  N   UNL     1     -12.103  13.952  67.795  1.00  0.00    -0.349 NA 
HETATM   28  C   UNL     1     -12.242  14.379  66.522  1.00  0.00    -0.332 A  
HETATM   29  C   UNL     1     -12.002  13.587  65.416  1.00  0.00    -0.406 A  
HETATM   30  C   UNL     1     -11.569  12.283  65.627  1.00  0.00    -0.433 A  
HETATM   31  C   UNL     1     -11.413  11.800  66.935  1.00  0.00    -0.364 A  
HETATM   32  C   UNL     1     -10.986  10.483  67.208  1.00  0.00    -0.325 A  
ENDBRANCH  22  23
ENDBRANCH  16  22
ENDBRANCH   9  13
ENDBRANCH   3   6
TORSDOF 4
ENDMDL
MODEL      149
REMARK 921   NORMALIZED FREE ENERGY PREDICTED BY IDOCK:   -5.03 KCAL/MOL
REMARK 922        TOTAL FREE ENERGY PREDICTED BY IDOCK:   -6.86 KCAL/MOL
REMARK 923 INTER-LIGAND FREE ENERGY PREDICTED BY IDOCK:   -6.52 KCAL/MOL
REMARK 924 INTRA-LIGAND FREE ENERGY PREDICTED BY IDOCK:   -0.34 KCAL/MOL
REMARK 927      BINDING AFFINITY PREDICTED BY RF-SCORE:    0.00 PKD
ROOT
HETATM    1  C   UNL     1     -10.450  16.482  64.961  1.00  0.00    -0.023 C  
HETATM    2  N   UNL     1     -10.542  15.301  65.783  1.00  0.00    -0.326 N  
HETATM    3  C   UNL     1     -11.724  14.607  65.919  1.00  0.00    -0.301 C  
HETATM    4  H   UNL     1      -9.713  14.971  66.275  1.00  0.00     0.000 HD 
HETATM    5  O   UNL     1     -12.750  14.915  65.320  1.00  0.00    -0.051 OA 
ENDROOT
BRANCH   3   6
HETATM    6  C   UNL     1     -11.737  13.452  66.862  1.00  0.00    -0.434 A  
HETATM    7  C   UNL     1     -11.839  13.701  68.241  1.00  0.00    -0.404 A  
HETATM    8  C   UNL     1     -11.775  12.649  69.166  1.00  0.00    -0.375 A  
HETATM    9  C   UNL     1     -11.598  11.332  68.724  1.00  0.00    -0.383 A  
HETATM   10  C   UNL     1     -11.552  11.074  67.351  1.00  0.00    -0.105 A  
HETATM   11  F   UNL     1     -11.520  11.820  65.136  1.00  0.00    -0.367 F  
HETATM   12  C   UNL     1     -11.612  12.128  66.438  1.00  0.00    -0.364 A  
BRANCH   9  13
HETATM   13  C   UNL     1     -11.392  10.245  69.723  1.00  0.00    -0.273 C  
HETATM   14  N   UNL     1     -10.557   9.269  69.491  1.00  0.00    -0.221 NA 
HETATM   15  N   UNL     1     -10.555   8.323  70.485  1.00  0.00    -0.215 NA 
HETATM   16  C   UNL     1      -9.793   7.179  70.534  1.00  0.00    -0.179 A  
HETATM   17  C   UNL     1     -12.225  10.289  70.997  1.00  0.00    -0.384 C  
HETATM   18  C   UNL     1     -10.206   6.530  71.677  1.00  0.00    -0.193 A  
HETATM   19  N   UNL     1     -11.144   7.255  72.354  1.00  0.00    -0.259 NA 
HETATM   20  N   UNL     1     -12.184   9.374  71.907  1.00  0.00    -0.374 NA 
HETATM   21  C   UNL     1     -11.342   8.342  71.640  1.00  0.00    -0.286 A  
BRANCH  16  22
HETATM   22  C   UNL     1      -8.725   6.831  69.563  1.00  0.00    -0.133 C  
BRANCH  22  23
HETATM   23  C   UNL     1      -8.433   7.909  68.545  1.00  0.00    -0.128 A  
HETATM   24  C   UNL     1      -7.296   9.965  67.943  1.00  0.00    -0.088 A  
HETATM   25  C   UNL     1      -7.625   8.993  68.892  1.00  0.00    -0.083 A  
HETATM   26  C   UNL     1      -7.780   9.914  66.646  1.00  0.00    -0.106 A  
HETATM   27  N   UNL     1      -7.439  10.886  65.780  1.00  0.00    -0.067 NA 
HETATM   28  C   UNL     1      -7.960  10.838  64.536  1.00  0.00     0.182 A  
HETATM   29  C   UNL     1      -8.820   9.849  64.100  1.00  0.00    -0.251 A  
HETATM   30  C   UNL     1      -9.150   8.832  64.990  1.00  0.00    -0.047 A  
HETATM   31  C   UNL     1      -8.631   8.845  66.293  1.00  0.00    -0.145 A  
HETATM   32  C   UNL     1      -8.939   7.844  67.239  1.00  0.00    -0.137 A  
ENDBRANCH  22  23
ENDBRANCH  16  22
ENDBRANCH   9  13
ENDBRANCH   3   6
TORSDOF 4
ENDMDL
MODEL      150
REMARK 921   NORMALIZED FREE ENERGY PREDICTED BY IDOCK:   -4.99 KCAL/MOL
REMARK 922        TOTAL FREE ENERGY PREDICTED BY IDOCK:   -6.81 KCAL/MOL
REMARK 923 INTER-LIGAND FREE ENERGY PREDICTED BY IDOCK:   -6.07 KCAL/MOL
REMARK 924 INTRA-LIGAND FREE ENERGY PREDICTED BY IDOCK:   -0.74 KCAL/MOL
REMARK 927      BINDING AFFINITY PREDICTED BY RF-SCORE:    0.00 PKD
ROOT
HETATM    1  C   UNL     1      -9.735   4.266  72.854  1.00  0.00    -0.131 C  
HETATM    2  N   UNL     1      -9.894   5.199  71.766  1.00  0.00    -0.168 N  
HETATM    3  C   UNL     1      -9.922   4.779  70.455  1.00  0.00    -0.245 C  
HETATM    4  H   UNL     1      -9.988   6.193  71.973  1.00  0.00     0.000 HD 
HETATM    5  O   UNL     1      -9.863   3.597  70.132  1.00  0.00    -0.170 OA 
ENDROOT
BRANCH   3   6
HETATM    6  C   UNL     1      -9.999   5.832  69.400  1.00  0.00    -0.244 A  
HETATM    7  C   UNL     1      -8.989   5.893  68.425  1.00  0.00    -0.112 A  
HETATM    8  C   UNL     1      -8.982   6.914  67.464  1.00  0.00    -0.116 A  
HETATM    9  C   UNL     1      -9.981   7.895  67.471  1.00  0.00    -0.250 A  
HETATM   10  C   UNL     1     -11.018   7.805  68.404  1.00  0.00     0.128 A  
HETATM   11  F   UNL     1     -12.014   6.780  70.254  1.00  0.00    -0.400 F  
HETATM   12  C   UNL     1     -11.015   6.787  69.359  1.00  0.00    -0.276 A  
BRANCH   9  13
HETATM   13  C   UNL     1      -9.881   9.049  66.533  1.00  0.00    -0.268 C  
HETATM   14  N   UNL     1     -10.305  10.235  66.880  1.00  0.00    -0.232 NA 
HETATM   15  N   UNL     1     -10.204  11.153  65.866  1.00  0.00    -0.244 NA 
HETATM   16  C   UNL     1     -10.566  12.479  65.913  1.00  0.00    -0.265 A  
HETATM   17  C   UNL     1      -9.317   8.785  65.145  1.00  0.00     0.147 C  
HETATM   18  C   UNL     1     -10.347  12.951  64.637  1.00  0.00    -0.344 A  
HETATM   19  N   UNL     1      -9.815  11.985  63.831  1.00  0.00    -0.273 NA 
HETATM   20  N   UNL     1      -9.239   9.686  64.224  1.00  0.00    -0.229 NA 
HETATM   21  C   UNL     1      -9.716  10.907  64.579  1.00  0.00    -0.282 A  
BRANCH  16  22
HETATM   22  C   UNL     1     -11.017  13.189  67.137  1.00  0.00    -0.289 C  
BRANCH  22  23
HETATM   23  C   UNL     1     -10.030  14.201  67.670  1.00  0.00    -0.233 A  
HETATM   24  C   UNL     1      -9.589  16.353  68.697  1.00  0.00    -0.240 A  
HETATM   25  C   UNL     1     -10.484  15.433  68.145  1.00  0.00    -0.247 A  
HETATM   26  C   UNL     1      -8.228  16.100  68.766  1.00  0.00    -0.216 A  
HETATM   27  N   UNL     1      -7.415  17.031  69.298  1.00  0.00    -0.165 NA 
HETATM   28  C   UNL     1      -6.089  16.779  69.311  1.00  0.00    -0.189 A  
HETATM   29  C   UNL     1      -5.520  15.623  68.813  1.00  0.00    -0.103 A  
HETATM   30  C   UNL     1      -6.367  14.653  68.288  1.00  0.00    -0.124 A  
HETATM   31  C   UNL     1      -7.752  14.876  68.254  1.00  0.00    -0.113 A  
HETATM   32  C   UNL     1      -8.655  13.930  67.724  1.00  0.00    -0.182 A  
ENDBRANCH  22  23
ENDBRANCH  16  22
ENDBRANCH   9  13
ENDBRANCH   3   6
TORSDOF 4
ENDMDL
MODEL      151
REMARK 921   NORMALIZED FREE ENERGY PREDICTED BY IDOCK:   -4.97 KCAL/MOL
REMARK 922        TOTAL FREE ENERGY PREDICTED BY IDOCK:   -6.80 KCAL/MOL
REMARK 923 INTER-LIGAND FREE ENERGY PREDICTED BY IDOCK:   -6.07 KCAL/MOL
REMARK 924 INTRA-LIGAND FREE ENERGY PREDICTED BY IDOCK:   -0.73 KCAL/MOL
REMARK 927      BINDING AFFINITY PREDICTED BY RF-SCORE:    0.00 PKD
ROOT
HETATM    1  C   UNL     1      -6.393  20.185  69.677  1.00  0.00    -0.324 C  
HETATM    2  N   UNL     1      -6.904  19.010  69.017  1.00  0.00    -0.309 N  
HETATM    3  C   UNL     1      -8.248  18.857  68.754  1.00  0.00    -0.312 C  
HETATM    4  H   UNL     1      -6.256  18.274  68.738  1.00  0.00     0.000 HD 
HETATM    5  O   UNL     1      -9.080  19.719  69.016  1.00  0.00    -0.257 OA 
ENDROOT
BRANCH   3   6
HETATM    6  C   UNL     1      -8.685  17.565  68.150  1.00  0.00    -0.262 A  
HETATM    7  C   UNL     1      -8.590  16.390  68.913  1.00  0.00    -0.250 A  
HETATM    8  C   UNL     1      -8.917  15.145  68.356  1.00  0.00    -0.183 A  
HETATM    9  C   UNL     1      -9.334  15.057  67.023  1.00  0.00    -0.237 A  
HETATM   10  C   UNL     1      -9.484  16.230  66.277  1.00  0.00    -0.347 A  
HETATM   11  F   UNL     1      -9.277  18.549  66.058  1.00  0.00    -0.287 F  
HETATM   12  C   UNL     1      -9.153  17.464  66.839  1.00  0.00    -0.245 A  
BRANCH   9  13
HETATM   13  C   UNL     1      -9.542  13.716  66.407  1.00  0.00    -0.268 C  
HETATM   14  N   UNL     1      -8.676  12.755  66.584  1.00  0.00    -0.121 NA 
HETATM   15  N   UNL     1      -8.992  11.620  65.881  1.00  0.00    -0.158 NA 
HETATM   16  C   UNL     1      -8.283  10.441  65.855  1.00  0.00    -0.150 A  
HETATM   17  C   UNL     1     -10.768  13.525  65.526  1.00  0.00    -0.290 C  
HETATM   18  C   UNL     1      -8.956   9.645  64.954  1.00  0.00    -0.217 A  
HETATM   19  N   UNL     1     -10.073  10.266  64.474  1.00  0.00    -0.305 NA 
HETATM   20  N   UNL     1     -11.024  12.432  64.888  1.00  0.00    -0.292 NA 
HETATM   21  C   UNL     1     -10.100  11.451  65.046  1.00  0.00    -0.274 A  
BRANCH  16  22
HETATM   22  C   UNL     1      -7.100  10.147  66.703  1.00  0.00    -0.101 C  
BRANCH  22  23
HETATM   23  C   UNL     1      -7.128   8.788  67.362  1.00  0.00    -0.079 A  
HETATM   24  C   UNL     1      -6.256   6.531  67.543  1.00  0.00    -0.032 A  
HETATM   25  C   UNL     1      -6.285   7.773  66.903  1.00  0.00    -0.053 A  
HETATM   26  C   UNL     1      -7.076   6.245  68.622  1.00  0.00    -0.082 A  
HETATM   27  N   UNL     1      -7.012   5.026  69.189  1.00  0.00    -0.054 NA 
HETATM   28  C   UNL     1      -7.853   4.757  70.210  1.00  0.00    -0.058 A  
HETATM   29  C   UNL     1      -8.773   5.661  70.707  1.00  0.00    -0.135 A  
HETATM   30  C   UNL     1      -8.818   6.928  70.136  1.00  0.00    -0.145 A  
HETATM   31  C   UNL     1      -7.961   7.247  69.071  1.00  0.00    -0.119 A  
HETATM   32  C   UNL     1      -7.971   8.514  68.449  1.00  0.00    -0.118 A  
ENDBRANCH  22  23
ENDBRANCH  16  22
ENDBRANCH   9  13
ENDBRANCH   3   6
TORSDOF 4
ENDMDL
MODEL      152
REMARK 921   NORMALIZED FREE ENERGY PREDICTED BY IDOCK:   -4.96 KCAL/MOL
REMARK 922        TOTAL FREE ENERGY PREDICTED BY IDOCK:   -6.77 KCAL/MOL
REMARK 923 INTER-LIGAND FREE ENERGY PREDICTED BY IDOCK:   -6.17 KCAL/MOL
REMARK 924 INTRA-LIGAND FREE ENERGY PREDICTED BY IDOCK:   -0.60 KCAL/MOL
REMARK 927      BINDING AFFINITY PREDICTED BY RF-SCORE:    0.00 PKD
ROOT
HETATM    1  C   UNL     1     -11.867  15.167  70.778  1.00  0.00    -0.324 C  
HETATM    2  N   UNL     1     -11.584  13.925  70.102  1.00  0.00    -0.459 N  
HETATM    3  C   UNL     1     -12.169  12.742  70.495  1.00  0.00    -0.307 C  
HETATM    4  H   UNL     1     -10.936  13.923  69.315  1.00  0.00     0.000 HD 
HETATM    5  O   UNL     1     -12.993  12.674  71.400  1.00  0.00    -0.361 OA 
ENDROOT
BRANCH   3   6
HETATM    6  C   UNL     1     -11.741  11.499  69.789  1.00  0.00    -0.426 A  
HETATM    7  C   UNL     1     -11.404  10.367  70.550  1.00  0.00    -0.424 A  
HETATM    8  C   UNL     1     -10.923   9.205  69.930  1.00  0.00    -0.218 A  
HETATM    9  C   UNL     1     -10.762   9.162  68.539  1.00  0.00    -0.160 A  
HETATM   10  C   UNL     1     -11.150  10.266  67.775  1.00  0.00    -0.335 A  
HETATM   11  F   UNL     1     -11.938  12.462  67.616  1.00  0.00    -0.395 F  
HETATM   12  C   UNL     1     -11.624  11.420  68.401  1.00  0.00    -0.315 A  
BRANCH   9  13
HETATM   13  C   UNL     1     -10.119   7.973  67.912  1.00  0.00    -0.194 C  
HETATM   14  N   UNL     1      -8.821   7.831  67.916  1.00  0.00    -0.124 NA 
HETATM   15  N   UNL     1      -8.406   6.720  67.228  1.00  0.00    -0.120 NA 
HETATM   16  C   UNL     1      -7.109   6.297  67.047  1.00  0.00    -0.073 A  
HETATM   17  C   UNL     1     -11.024   6.960  67.225  1.00  0.00    -0.336 C  
HETATM   18  C   UNL     1      -7.209   5.192  66.231  1.00  0.00    -0.077 A  
HETATM   19  N   UNL     1      -8.512   4.890  65.954  1.00  0.00    -0.117 NA 
HETATM   20  N   UNL     1     -10.584   5.925  66.592  1.00  0.00    -0.274 NA 
HETATM   21  C   UNL     1      -9.231   5.805  66.568  1.00  0.00    -0.143 A  
BRANCH  16  22
HETATM   22  C   UNL     1      -5.921   6.914  67.690  1.00  0.00    -0.028 C  
BRANCH  22  23
HETATM   23  C   UNL     1      -5.862   8.419  67.574  1.00  0.00    -0.043 A  
HETATM   24  C   UNL     1      -5.745  10.409  66.192  1.00  0.00    -0.081 A  
HETATM   25  C   UNL     1      -5.739   9.018  66.318  1.00  0.00    -0.053 A  
HETATM   26  C   UNL     1      -5.837  11.244  67.295  1.00  0.00    -0.071 A  
HETATM   27  N   UNL     1      -5.825  12.577  67.111  1.00  0.00    -0.307 NA 
HETATM   28  C   UNL     1      -5.870  13.367  68.204  1.00  0.00    -0.108 A  
HETATM   29  C   UNL     1      -5.930  12.888  69.498  1.00  0.00    -0.111 A  
HETATM   30  C   UNL     1      -5.968  11.510  69.683  1.00  0.00    -0.102 A  
HETATM   31  C   UNL     1      -5.922  10.653  68.573  1.00  0.00    -0.039 A  
HETATM   32  C   UNL     1      -5.949   9.248  68.703  1.00  0.00    -0.044 A  
ENDBRANCH  22  23
ENDBRANCH  16  22
ENDBRANCH   9  13
ENDBRANCH   3   6
TORSDOF 4
ENDMDL
MODEL      153
REMARK 921   NORMALIZED FREE ENERGY PREDICTED BY IDOCK:   -4.96 KCAL/MOL
REMARK 922        TOTAL FREE ENERGY PREDICTED BY IDOCK:   -6.77 KCAL/MOL
REMARK 923 INTER-LIGAND FREE ENERGY PREDICTED BY IDOCK:   -6.32 KCAL/MOL
REMARK 924 INTRA-LIGAND FREE ENERGY PREDICTED BY IDOCK:   -0.45 KCAL/MOL
REMARK 927      BINDING AFFINITY PREDICTED BY RF-SCORE:    0.00 PKD
ROOT
HETATM    1  C   UNL     1      -9.734   2.842  71.457  1.00  0.00    -0.154 C  
HETATM    2  N   UNL     1      -9.110   4.129  71.274  1.00  0.00    -0.117 N  
HETATM    3  C   UNL     1      -9.843   5.243  70.927  1.00  0.00    -0.194 C  
HETATM    4  H   UNL     1      -8.103   4.217  71.403  1.00  0.00     0.000 HD 
HETATM    5  O   UNL     1     -11.063   5.225  70.801  1.00  0.00    -0.058 OA 
ENDROOT
BRANCH   3   6
HETATM    6  C   UNL     1      -9.092   6.506  70.672  1.00  0.00    -0.148 A  
HETATM    7  C   UNL     1      -9.344   7.623  71.485  1.00  0.00    -0.157 A  
HETATM    8  C   UNL     1      -8.716   8.851  71.230  1.00  0.00    -0.279 A  
HETATM    9  C   UNL     1      -7.835   8.982  70.150  1.00  0.00    -0.100 A  
HETATM   10  C   UNL     1      -7.539   7.858  69.373  1.00  0.00    -0.103 A  
HETATM   11  F   UNL     1      -7.877   5.610  68.825  1.00  0.00    -0.089 F  
HETATM   12  C   UNL     1      -8.171   6.640  69.632  1.00  0.00    -0.127 A  
BRANCH   9  13
HETATM   13  C   UNL     1      -7.287  10.325  69.809  1.00  0.00    -0.165 C  
HETATM   14  N   UNL     1      -8.024  11.217  69.204  1.00  0.00    -0.058 NA 
HETATM   15  N   UNL     1      -7.332  12.362  68.903  1.00  0.00    -0.074 NA 
HETATM   16  C   UNL     1      -7.822  13.480  68.268  1.00  0.00    -0.145 A  
HETATM   17  C   UNL     1      -5.828  10.599  70.145  1.00  0.00    -0.087 C  
HETATM   18  C   UNL     1      -6.734  14.313  68.130  1.00  0.00    -0.128 A  
HETATM   19  N   UNL     1      -5.616  13.775  68.702  1.00  0.00    -0.081 NA 
HETATM   20  N   UNL     1      -5.222  11.699  69.843  1.00  0.00    -0.068 NA 
HETATM   21  C   UNL     1      -5.984  12.606  69.180  1.00  0.00    -0.086 A  
BRANCH  16  22
HETATM   22  C   UNL     1      -9.247  13.692  67.909  1.00  0.00    -0.203 C  
BRANCH  22  23
HETATM   23  C   UNL     1      -9.564  15.082  67.408  1.00  0.00    -0.205 A  
HETATM   24  C   UNL     1     -10.289  16.545  65.614  1.00  0.00    -0.342 A  
HETATM   25  C   UNL     1      -9.934  15.274  66.075  1.00  0.00    -0.344 A  
HETATM   26  C   UNL     1     -10.255  17.658  66.439  1.00  0.00    -0.364 A  
HETATM   27  N   UNL     1     -10.596  18.858  65.934  1.00  0.00    -0.510 NA 
HETATM   28  C   UNL     1     -10.512  19.934  66.745  1.00  0.00    -0.451 A  
HETATM   29  C   UNL     1     -10.099  19.873  68.062  1.00  0.00    -0.572 A  
HETATM   30  C   UNL     1      -9.773  18.628  68.587  1.00  0.00    -0.418 A  
HETATM   31  C   UNL     1      -9.845  17.485  67.777  1.00  0.00    -0.286 A  
HETATM   32  C   UNL     1      -9.517  16.198  68.256  1.00  0.00    -0.208 A  
ENDBRANCH  22  23
ENDBRANCH  16  22
ENDBRANCH   9  13
ENDBRANCH   3   6
TORSDOF 4
ENDMDL
MODEL      154
REMARK 921   NORMALIZED FREE ENERGY PREDICTED BY IDOCK:   -4.94 KCAL/MOL
REMARK 922        TOTAL FREE ENERGY PREDICTED BY IDOCK:   -6.75 KCAL/MOL
REMARK 923 INTER-LIGAND FREE ENERGY PREDICTED BY IDOCK:   -5.91 KCAL/MOL
REMARK 924 INTRA-LIGAND FREE ENERGY PREDICTED BY IDOCK:   -0.84 KCAL/MOL
REMARK 927      BINDING AFFINITY PREDICTED BY RF-SCORE:    0.00 PKD
ROOT
HETATM    1  C   UNL     1     -12.508  14.028  64.362  1.00  0.00    -0.289 C  
HETATM    2  N   UNL     1     -12.308  13.298  65.589  1.00  0.00    -0.459 N  
HETATM    3  C   UNL     1     -11.047  13.022  66.068  1.00  0.00    -0.278 C  
HETATM    4  H   UNL     1     -13.121  12.978  66.116  1.00  0.00     0.000 HD 
HETATM    5  O   UNL     1     -10.024  13.415  65.515  1.00  0.00    -0.275 OA 
ENDROOT
BRANCH   3   6
HETATM    6  C   UNL     1     -10.948  12.182  67.297  1.00  0.00    -0.308 A  
HETATM    7  C   UNL     1     -10.490  10.859  67.182  1.00  0.00    -0.281 A  
HETATM    8  C   UNL     1     -10.456  10.013  68.299  1.00  0.00    -0.246 A  
HETATM    9  C   UNL     1     -10.891  10.476  69.547  1.00  0.00    -0.298 A  
HETATM   10  C   UNL     1     -11.294  11.808  69.677  1.00  0.00    -0.287 A  
HETATM   11  F   UNL     1     -11.766  13.897  68.739  1.00  0.00    -0.300 F  
HETATM   12  C   UNL     1     -11.328  12.642  68.558  1.00  0.00    -0.296 A  
BRANCH   9  13
HETATM   13  C   UNL     1     -10.981   9.525  70.691  1.00  0.00    -0.306 C  
HETATM   14  N   UNL     1      -9.908   8.976  71.194  1.00  0.00    -0.275 NA 
HETATM   15  N   UNL     1     -10.189   8.072  72.186  1.00  0.00    -0.223 NA 
HETATM   16  C   UNL     1      -9.283   7.329  72.907  1.00  0.00    -0.147 A  
HETATM   17  C   UNL     1     -12.367   9.179  71.216  1.00  0.00    -0.315 C  
HETATM   18  C   UNL     1     -10.052   6.523  73.718  1.00  0.00    -0.277 A  
HETATM   19  N   UNL     1     -11.384   6.783  73.562  1.00  0.00     0.205 NA 
HETATM   20  N   UNL     1     -12.580   8.322  72.158  1.00  0.00    -0.339 NA 
HETATM   21  C   UNL     1     -11.462   7.727  72.649  1.00  0.00    -0.375 A  
BRANCH  16  22
HETATM   22  C   UNL     1      -7.808   7.478  72.820  1.00  0.00    -0.119 C  
BRANCH  22  23
HETATM   23  C   UNL     1      -7.126   6.436  71.965  1.00  0.00    -0.082 A  
HETATM   24  C   UNL     1      -5.344   4.819  71.660  1.00  0.00    -0.004 A  
HETATM   25  C   UNL     1      -5.951   5.828  72.412  1.00  0.00    -0.039 A  
HETATM   26  C   UNL     1      -5.854   4.410  70.438  1.00  0.00    -0.014 A  
HETATM   27  N   UNL     1      -5.217   3.442  69.753  1.00  0.00    -0.007 NA 
HETATM   28  C   UNL     1      -5.709   3.093  68.546  1.00  0.00    -0.022 A  
HETATM   29  C   UNL     1      -6.827   3.669  67.974  1.00  0.00    -0.050 A  
HETATM   30  C   UNL     1      -7.497   4.650  68.697  1.00  0.00    -0.065 A  
HETATM   31  C   UNL     1      -7.018   5.043  69.956  1.00  0.00    -0.049 A  
HETATM   32  C   UNL     1      -7.653   6.040  70.727  1.00  0.00    -0.093 A  
ENDBRANCH  22  23
ENDBRANCH  16  22
ENDBRANCH   9  13
ENDBRANCH   3   6
TORSDOF 4
ENDMDL
MODEL      155
REMARK 921   NORMALIZED FREE ENERGY PREDICTED BY IDOCK:   -4.91 KCAL/MOL
REMARK 922        TOTAL FREE ENERGY PREDICTED BY IDOCK:   -6.72 KCAL/MOL
REMARK 923 INTER-LIGAND FREE ENERGY PREDICTED BY IDOCK:   -5.99 KCAL/MOL
REMARK 924 INTRA-LIGAND FREE ENERGY PREDICTED BY IDOCK:   -0.73 KCAL/MOL
REMARK 927      BINDING AFFINITY PREDICTED BY RF-SCORE:    0.00 PKD
ROOT
HETATM    1  C   UNL     1      -9.842  16.285  65.653  1.00  0.00    -0.220 C  
HETATM    2  N   UNL     1      -9.930  15.072  66.426  1.00  0.00    -0.266 N  
HETATM    3  C   UNL     1     -11.059  14.283  66.406  1.00  0.00    -0.325 C  
HETATM    4  H   UNL     1      -9.137  14.790  67.003  1.00  0.00     0.000 HD 
HETATM    5  O   UNL     1     -12.032  14.531  65.701  1.00  0.00    -0.359 OA 
ENDROOT
BRANCH   3   6
HETATM    6  C   UNL     1     -11.084  13.098  67.311  1.00  0.00    -0.305 A  
HETATM    7  C   UNL     1     -10.663  13.250  68.643  1.00  0.00    -0.281 A  
HETATM    8  C   UNL     1     -10.597  12.145  69.504  1.00  0.00     0.285 A  
HETATM    9  C   UNL     1     -10.941  10.869  69.041  1.00  0.00    -0.285 A  
HETATM   10  C   UNL     1     -11.415  10.723  67.734  1.00  0.00    -0.283 A  
HETATM   11  F   UNL     1     -11.894  11.616  65.627  1.00  0.00    -0.310 F  
HETATM   12  C   UNL     1     -11.473  11.828  66.883  1.00  0.00    -0.293 A  
BRANCH   9  13
HETATM   13  C   UNL     1     -10.732   9.688  69.925  1.00  0.00    -0.252 C  
HETATM   14  N   UNL     1      -9.939   8.714  69.569  1.00  0.00    -0.191 NA 
HETATM   15  N   UNL     1      -9.929   7.679  70.469  1.00  0.00    -0.184 NA 
HETATM   16  C   UNL     1      -9.203   6.514  70.380  1.00  0.00    -0.155 A  
HETATM   17  C   UNL     1     -11.513   9.635  71.231  1.00  0.00    -0.392 C  
HETATM   18  C   UNL     1      -9.592   5.772  71.474  1.00  0.00    -0.154 A  
HETATM   19  N   UNL     1     -10.479   6.457  72.254  1.00  0.00    -0.193 NA 
HETATM   20  N   UNL     1     -11.466   8.638  72.050  1.00  0.00    -0.345 NA 
HETATM   21  C   UNL     1     -10.669   7.612  71.653  1.00  0.00    -0.211 A  
BRANCH  16  22
HETATM   22  C   UNL     1      -8.187   6.229  69.336  1.00  0.00    -0.114 C  
BRANCH  22  23
HETATM   23  C   UNL     1      -8.723   5.500  68.126  1.00  0.00    -0.102 A  
HETATM   24  C   UNL     1     -10.014   5.521  66.073  1.00  0.00    -0.074 A  
HETATM   25  C   UNL     1      -9.561   6.164  67.228  1.00  0.00    -0.126 A  
HETATM   26  C   UNL     1      -9.685   4.204  65.792  1.00  0.00    -0.204 A  
HETATM   27  N   UNL     1     -10.162   3.635  64.670  1.00  0.00    -0.170 NA 
HETATM   28  C   UNL     1      -9.865   2.339  64.442  1.00  0.00    -0.018 A  
HETATM   29  C   UNL     1      -9.098   1.564  65.291  1.00  0.00    -0.106 A  
HETATM   30  C   UNL     1      -8.585   2.164  66.436  1.00  0.00    -0.112 A  
HETATM   31  C   UNL     1      -8.872   3.509  66.711  1.00  0.00    -0.142 A  
HETATM   32  C   UNL     1      -8.385   4.165  67.862  1.00  0.00    -0.097 A  
ENDBRANCH  22  23
ENDBRANCH  16  22
ENDBRANCH   9  13
ENDBRANCH   3   6
TORSDOF 4
ENDMDL
MODEL      156
REMARK 921   NORMALIZED FREE ENERGY PREDICTED BY IDOCK:   -4.89 KCAL/MOL
REMARK 922        TOTAL FREE ENERGY PREDICTED BY IDOCK:   -6.70 KCAL/MOL
REMARK 923 INTER-LIGAND FREE ENERGY PREDICTED BY IDOCK:   -6.14 KCAL/MOL
REMARK 924 INTRA-LIGAND FREE ENERGY PREDICTED BY IDOCK:   -0.56 KCAL/MOL
REMARK 927      BINDING AFFINITY PREDICTED BY RF-SCORE:    0.00 PKD
ROOT
HETATM    1  C   UNL     1     -11.072   1.791  63.010  1.00  0.00    -0.247 C  
HETATM    2  N   UNL     1     -10.566   3.068  63.448  1.00  0.00    -0.217 N  
HETATM    3  C   UNL     1      -9.566   3.164  64.390  1.00  0.00    -0.151 C  
HETATM    4  H   UNL     1     -10.957   3.922  63.050  1.00  0.00     0.000 HD 
HETATM    5  O   UNL     1      -9.014   2.182  64.877  1.00  0.00    -0.116 OA 
ENDROOT
BRANCH   3   6
HETATM    6  C   UNL     1      -9.177   4.531  64.841  1.00  0.00    -0.156 A  
HETATM    7  C   UNL     1      -8.176   5.221  64.137  1.00  0.00    -0.132 A  
HETATM    8  C   UNL     1      -7.726   6.475  64.574  1.00  0.00    -0.108 A  
HETATM    9  C   UNL     1      -8.266   7.053  65.730  1.00  0.00    -0.132 A  
HETATM   10  C   UNL     1      -9.301   6.396  66.401  1.00  0.00    -0.176 A  
HETATM   11  F   UNL     1     -10.705   4.547  66.673  1.00  0.00    -0.232 F  
HETATM   12  C   UNL     1      -9.739   5.146  65.961  1.00  0.00    -0.165 A  
BRANCH   9  13
HETATM   13  C   UNL     1      -7.680   8.317  66.258  1.00  0.00    -0.097 C  
HETATM   14  N   UNL     1      -8.428   9.366  66.473  1.00  0.00    -0.131 NA 
HETATM   15  N   UNL     1      -7.707  10.458  66.884  1.00  0.00    -0.108 NA 
HETATM   16  C   UNL     1      -8.200  11.706  67.187  1.00  0.00    -0.165 A  
HETATM   17  C   UNL     1      -6.176   8.357  66.489  1.00  0.00    -0.054 C  
HETATM   18  C   UNL     1      -7.086  12.467  67.468  1.00  0.00    -0.145 A  
HETATM   19  N   UNL     1      -5.943  11.722  67.404  1.00  0.00    -0.089 NA 
HETATM   20  N   UNL     1      -5.543   9.412  66.883  1.00  0.00    -0.046 NA 
HETATM   21  C   UNL     1      -6.323  10.508  67.066  1.00  0.00    -0.074 A  
BRANCH  16  22
HETATM   22  C   UNL     1      -9.642  12.055  67.246  1.00  0.00    -0.185 C  
BRANCH  22  23
HETATM   23  C   UNL     1     -10.365  11.515  68.457  1.00  0.00    -0.224 A  
HETATM   24  C   UNL     1     -12.240  11.616  69.993  1.00  0.00    -0.338 A  
HETATM   25  C   UNL     1     -11.528  12.141  68.911  1.00  0.00    -0.350 A  
HETATM   26  C   UNL     1     -11.810  10.488  70.674  1.00  0.00    -0.360 A  
HETATM   27  N   UNL     1     -12.532  10.038  71.716  1.00  0.00    -0.400 NA 
HETATM   28  C   UNL     1     -12.068   8.965  72.391  1.00  0.00    -0.274 A  
HETATM   29  C   UNL     1     -10.898   8.303  72.073  1.00  0.00    -0.370 A  
HETATM   30  C   UNL     1     -10.169   8.756  70.979  1.00  0.00    -0.301 A  
HETATM   31  C   UNL     1     -10.616   9.869  70.251  1.00  0.00    -0.359 A  
HETATM   32  C   UNL     1      -9.910  10.377  69.139  1.00  0.00    -0.237 A  
ENDBRANCH  22  23
ENDBRANCH  16  22
ENDBRANCH   9  13
ENDBRANCH   3   6
TORSDOF 4
ENDMDL
MODEL      157
REMARK 921   NORMALIZED FREE ENERGY PREDICTED BY IDOCK:   -4.88 KCAL/MOL
REMARK 922        TOTAL FREE ENERGY PREDICTED BY IDOCK:   -6.68 KCAL/MOL
REMARK 923 INTER-LIGAND FREE ENERGY PREDICTED BY IDOCK:   -5.77 KCAL/MOL
REMARK 924 INTRA-LIGAND FREE ENERGY PREDICTED BY IDOCK:   -0.91 KCAL/MOL
REMARK 927      BINDING AFFINITY PREDICTED BY RF-SCORE:    0.00 PKD
ROOT
HETATM    1  C   UNL     1      -5.586  10.165  62.344  1.00  0.00    -0.104 C  
HETATM    2  N   UNL     1      -6.413   9.918  63.498  1.00  0.00    -0.119 N  
HETATM    3  C   UNL     1      -7.748  10.258  63.515  1.00  0.00    -0.115 C  
HETATM    4  H   UNL     1      -6.001   9.480  64.322  1.00  0.00     0.000 HD 
HETATM    5  O   UNL     1      -8.324  10.742  62.547  1.00  0.00    -0.192 OA 
ENDROOT
BRANCH   3   6
HETATM    6  C   UNL     1      -8.494  10.043  64.789  1.00  0.00    -0.180 A  
HETATM    7  C   UNL     1      -8.926  11.162  65.522  1.00  0.00    -0.178 A  
HETATM    8  C   UNL     1      -9.561  11.005  66.762  1.00  0.00    -0.216 A  
HETATM    9  C   UNL     1      -9.764   9.725  67.292  1.00  0.00    -0.213 A  
HETATM   10  C   UNL     1      -9.387   8.608  66.541  1.00  0.00    -0.257 A  
HETATM   11  F   UNL     1      -8.375   7.665  64.656  1.00  0.00    -0.146 F  
HETATM   12  C   UNL     1      -8.752   8.774  65.309  1.00  0.00    -0.182 A  
BRANCH   9  13
HETATM   13  C   UNL     1     -10.312   9.582  68.671  1.00  0.00    -0.205 C  
HETATM   14  N   UNL     1      -9.793   8.731  69.515  1.00  0.00    -0.176 NA 
HETATM   15  N   UNL     1     -10.472   8.682  70.705  1.00  0.00    -0.198 NA 
HETATM   16  C   UNL     1     -10.179   7.889  71.791  1.00  0.00    -0.196 A  
HETATM   17  C   UNL     1     -11.525  10.423  69.040  1.00  0.00    -0.193 C  
HETATM   18  C   UNL     1     -11.187   8.143  72.695  1.00  0.00    -0.378 A  
HETATM   19  N   UNL     1     -12.049   9.096  72.230  1.00  0.00    -0.298 NA 
HETATM   20  N   UNL     1     -12.128  10.343  70.179  1.00  0.00    -0.272 NA 
HETATM   21  C   UNL     1     -11.606   9.429  71.037  1.00  0.00    -0.330 A  
BRANCH  16  22
HETATM   22  C   UNL     1      -8.975   7.029  71.910  1.00  0.00    -0.137 C  
BRANCH  22  23
HETATM   23  C   UNL     1      -9.047   5.744  71.119  1.00  0.00    -0.157 A  
HETATM   24  C   UNL     1      -9.660   3.401  70.985  1.00  0.00    -0.239 A  
HETATM   25  C   UNL     1      -9.530   4.581  71.722  1.00  0.00    -0.206 A  
HETATM   26  C   UNL     1      -9.286   3.326  69.653  1.00  0.00    -0.166 A  
HETATM   27  N   UNL     1      -9.423   2.157  68.999  1.00  0.00    -0.123 NA 
HETATM   28  C   UNL     1      -9.010   2.098  67.715  1.00  0.00    -0.156 A  
HETATM   29  C   UNL     1      -8.459   3.166  67.035  1.00  0.00    -0.106 A  
HETATM   30  C   UNL     1      -8.344   4.379  67.706  1.00  0.00    -0.098 A  
HETATM   31  C   UNL     1      -8.760   4.483  69.042  1.00  0.00    -0.112 A  
HETATM   32  C   UNL     1      -8.657   5.685  69.773  1.00  0.00    -0.121 A  
ENDBRANCH  22  23
ENDBRANCH  16  22
ENDBRANCH   9  13
ENDBRANCH   3   6
TORSDOF 4
ENDMDL
MODEL      158
REMARK 921   NORMALIZED FREE ENERGY PREDICTED BY IDOCK:   -4.85 KCAL/MOL
REMARK 922        TOTAL FREE ENERGY PREDICTED BY IDOCK:   -6.64 KCAL/MOL
REMARK 923 INTER-LIGAND FREE ENERGY PREDICTED BY IDOCK:   -6.25 KCAL/MOL
REMARK 924 INTRA-LIGAND FREE ENERGY PREDICTED BY IDOCK:   -0.39 KCAL/MOL
REMARK 927      BINDING AFFINITY PREDICTED BY RF-SCORE:    0.00 PKD
ROOT
HETATM    1  C   UNL     1      -6.247  20.220  69.073  1.00  0.00    -0.331 C  
HETATM    2  N   UNL     1      -6.666  18.882  68.740  1.00  0.00    -0.267 N  
HETATM    3  C   UNL     1      -7.990  18.576  68.511  1.00  0.00    -0.323 C  
HETATM    4  H   UNL     1      -5.967  18.143  68.672  1.00  0.00     0.000 HD 
HETATM    5  O   UNL     1      -8.881  19.420  68.528  1.00  0.00    -0.351 OA 
ENDROOT
BRANCH   3   6
HETATM    6  C   UNL     1      -8.330  17.145  68.263  1.00  0.00    -0.232 A  
HETATM    7  C   UNL     1      -9.113  16.816  67.144  1.00  0.00    -0.224 A  
HETATM    8  C   UNL     1      -9.521  15.494  66.919  1.00  0.00    -0.244 A  
HETATM    9  C   UNL     1      -9.159  14.482  67.817  1.00  0.00    -0.190 A  
HETATM   10  C   UNL     1      -8.333  14.795  68.900  1.00  0.00    -0.163 A  
HETATM   11  F   UNL     1      -7.179  16.360  70.200  1.00  0.00     0.091 F  
HETATM   12  C   UNL     1      -7.936  16.116  69.119  1.00  0.00    -0.233 A  
BRANCH   9  13
HETATM   13  C   UNL     1      -9.715  13.111  67.639  1.00  0.00    -0.213 C  
HETATM   14  N   UNL     1      -9.117  12.071  68.154  1.00  0.00    -0.187 NA 
HETATM   15  N   UNL     1      -9.728  10.888  67.824  1.00  0.00    -0.166 NA 
HETATM   16  C   UNL     1      -9.342   9.624  68.207  1.00  0.00    -0.133 A  
HETATM   17  C   UNL     1     -10.973  12.962  66.795  1.00  0.00    -0.272 C  
HETATM   18  C   UNL     1     -10.218   8.778  67.563  1.00  0.00    -0.246 A  
HETATM   19  N   UNL     1     -11.154   9.473  66.851  1.00  0.00     0.148 NA 
HETATM   20  N   UNL     1     -11.514  11.824  66.516  1.00  0.00    -0.456 NA 
HETATM   21  C   UNL     1     -10.864  10.745  67.023  1.00  0.00    -0.252 A  
BRANCH  16  22
HETATM   22  C   UNL     1      -8.250   9.328  69.168  1.00  0.00    -0.111 C  
BRANCH  22  23
HETATM   23  C   UNL     1      -8.668   8.477  70.344  1.00  0.00    -0.153 A  
HETATM   24  C   UNL     1      -9.142   8.270  72.714  1.00  0.00    -0.332 A  
HETATM   25  C   UNL     1      -8.698   9.028  71.627  1.00  0.00    -0.077 A  
HETATM   26  C   UNL     1      -9.533   6.948  72.573  1.00  0.00    -0.138 A  
HETATM   27  N   UNL     1      -9.939   6.266  73.660  1.00  0.00    -0.187 NA 
HETATM   28  C   UNL     1     -10.271   4.967  73.504  1.00  0.00    -0.184 A  
HETATM   29  C   UNL     1     -10.220   4.299  72.296  1.00  0.00    -0.244 A  
HETATM   30  C   UNL     1      -9.825   5.015  71.171  1.00  0.00    -0.254 A  
HETATM   31  C   UNL     1      -9.470   6.367  71.289  1.00  0.00    -0.175 A  
HETATM   32  C   UNL     1      -9.053   7.138  70.183  1.00  0.00    -0.152 A  
ENDBRANCH  22  23
ENDBRANCH  16  22
ENDBRANCH   9  13
ENDBRANCH   3   6
TORSDOF 4
ENDMDL
MODEL      159
REMARK 921   NORMALIZED FREE ENERGY PREDICTED BY IDOCK:   -4.84 KCAL/MOL
REMARK 922        TOTAL FREE ENERGY PREDICTED BY IDOCK:   -6.64 KCAL/MOL
REMARK 923 INTER-LIGAND FREE ENERGY PREDICTED BY IDOCK:   -5.72 KCAL/MOL
REMARK 924 INTRA-LIGAND FREE ENERGY PREDICTED BY IDOCK:   -0.92 KCAL/MOL
REMARK 927      BINDING AFFINITY PREDICTED BY RF-SCORE:    0.00 PKD
ROOT
HETATM    1  C   UNL     1      -8.674   1.767  65.772  1.00  0.00    -0.116 C  
HETATM    2  N   UNL     1      -8.449   3.030  66.430  1.00  0.00    -0.102 N  
HETATM    3  C   UNL     1      -9.273   4.113  66.215  1.00  0.00    -0.155 C  
HETATM    4  H   UNL     1      -7.660   3.125  67.069  1.00  0.00     0.000 HD 
HETATM    5  O   UNL     1     -10.267   4.061  65.498  1.00  0.00    -0.173 OA 
ENDROOT
BRANCH   3   6
HETATM    6  C   UNL     1      -8.901   5.399  66.872  1.00  0.00    -0.111 A  
HETATM    7  C   UNL     1      -7.703   6.032  66.501  1.00  0.00    -0.103 A  
HETATM    8  C   UNL     1      -7.279   7.200  67.150  1.00  0.00    -0.085 A  
HETATM    9  C   UNL     1      -8.043   7.747  68.188  1.00  0.00    -0.123 A  
HETATM   10  C   UNL     1      -9.263   7.152  68.522  1.00  0.00    -0.134 A  
HETATM   11  F   UNL     1     -10.835   5.440  68.269  1.00  0.00    -0.241 F  
HETATM   12  C   UNL     1      -9.676   5.987  67.873  1.00  0.00    -0.119 A  
BRANCH   9  13
HETATM   13  C   UNL     1      -7.510   8.905  68.959  1.00  0.00    -0.074 C  
HETATM   14  N   UNL     1      -7.275  10.050  68.375  1.00  0.00    -0.072 NA 
HETATM   15  N   UNL     1      -6.716  10.973  69.221  1.00  0.00    -0.087 NA 
HETATM   16  C   UNL     1      -6.352  12.263  68.911  1.00  0.00    -0.084 A  
HETATM   17  C   UNL     1      -7.201   8.691  70.434  1.00  0.00    -0.045 C  
HETATM   18  C   UNL     1      -5.772  12.752  70.061  1.00  0.00    -0.136 A  
HETATM   19  N   UNL     1      -5.818  11.836  71.073  1.00  0.00    -0.367 NA 
HETATM   20  N   UNL     1      -6.677   9.596  71.191  1.00  0.00    -0.304 NA 
HETATM   21  C   UNL     1      -6.401  10.771  70.567  1.00  0.00    -0.051 A  
BRANCH  16  22
HETATM   22  C   UNL     1      -6.627  12.931  67.613  1.00  0.00    -0.155 C  
BRANCH  22  23
HETATM   23  C   UNL     1      -8.084  13.248  67.373  1.00  0.00    -0.179 A  
HETATM   24  C   UNL     1     -10.061  14.543  67.918  1.00  0.00    -0.227 A  
HETATM   25  C   UNL     1      -8.732  14.195  68.169  1.00  0.00    -0.181 A  
HETATM   26  C   UNL     1     -10.795  13.946  66.905  1.00  0.00    -0.286 A  
HETATM   27  N   UNL     1     -12.076  14.314  66.720  1.00  0.00    -0.440 NA 
HETATM   28  C   UNL     1     -12.782  13.686  65.756  1.00  0.00    -0.416 A  
HETATM   29  C   UNL     1     -12.266  12.691  64.950  1.00  0.00    -0.531 A  
HETATM   30  C   UNL     1     -10.934  12.332  65.127  1.00  0.00    -0.344 A  
HETATM   31  C   UNL     1     -10.165  12.959  66.119  1.00  0.00    -0.286 A  
HETATM   32  C   UNL     1      -8.813  12.628  66.347  1.00  0.00     0.008 A  
ENDBRANCH  22  23
ENDBRANCH  16  22
ENDBRANCH   9  13
ENDBRANCH   3   6
TORSDOF 4
ENDMDL
MODEL      160
REMARK 921   NORMALIZED FREE ENERGY PREDICTED BY IDOCK:   -4.83 KCAL/MOL
REMARK 922        TOTAL FREE ENERGY PREDICTED BY IDOCK:   -6.62 KCAL/MOL
REMARK 923 INTER-LIGAND FREE ENERGY PREDICTED BY IDOCK:   -5.87 KCAL/MOL
REMARK 924 INTRA-LIGAND FREE ENERGY PREDICTED BY IDOCK:   -0.75 KCAL/MOL
REMARK 927      BINDING AFFINITY PREDICTED BY RF-SCORE:    0.00 PKD
ROOT
HETATM    1  C   UNL     1     -11.306   3.546  73.830  1.00  0.00    -0.066 C  
HETATM    2  N   UNL     1     -10.470   4.142  72.818  1.00  0.00    -0.174 N  
HETATM    3  C   UNL     1     -10.833   5.306  72.177  1.00  0.00    -0.188 C  
HETATM    4  H   UNL     1      -9.589   3.692  72.572  1.00  0.00     0.000 HD 
HETATM    5  O   UNL     1     -11.853   5.929  72.454  1.00  0.00    -0.311 OA 
ENDROOT
BRANCH   3   6
HETATM    6  C   UNL     1      -9.943   5.792  71.083  1.00  0.00    -0.244 A  
HETATM    7  C   UNL     1      -9.403   7.086  71.169  1.00  0.00    -0.158 A  
HETATM    8  C   UNL     1      -8.626   7.609  70.126  1.00  0.00    -0.140 A  
HETATM    9  C   UNL     1      -8.386   6.848  68.975  1.00  0.00    -0.125 A  
HETATM   10  C   UNL     1      -8.873   5.540  68.911  1.00  0.00    -0.110 A  
HETATM   11  F   UNL     1     -10.125   3.782  69.811  1.00  0.00    -0.239 F  
HETATM   12  C   UNL     1      -9.650   5.029  69.952  1.00  0.00    -0.176 A  
BRANCH   9  13
HETATM   13  C   UNL     1      -7.678   7.469  67.820  1.00  0.00    -0.115 C  
HETATM   14  N   UNL     1      -7.561   8.766  67.723  1.00  0.00    -0.096 NA 
HETATM   15  N   UNL     1      -6.950   9.158  66.560  1.00  0.00    -0.080 NA 
HETATM   16  C   UNL     1      -6.683  10.448  66.161  1.00  0.00    -0.117 A  
HETATM   17  C   UNL     1      -7.144   6.542  66.737  1.00  0.00    -0.069 C  
HETATM   18  C   UNL     1      -6.139  10.323  64.902  1.00  0.00    -0.128 A  
HETATM   19  N   UNL     1      -6.010   9.012  64.540  1.00  0.00    -0.065 NA 
HETATM   20  N   UNL     1      -6.570   6.962  65.660  1.00  0.00    -0.050 NA 
HETATM   21  C   UNL     1      -6.487   8.313  65.548  1.00  0.00    -0.049 A  
BRANCH  16  22
HETATM   22  C   UNL     1      -6.900  11.654  67.000  1.00  0.00    -0.144 C  
BRANCH  22  23
HETATM   23  C   UNL     1      -8.268  12.277  66.854  1.00  0.00    -0.112 A  
HETATM   24  C   UNL     1      -9.886  13.956  67.524  1.00  0.00    -0.236 A  
HETATM   25  C   UNL     1      -8.648  13.330  67.689  1.00  0.00    -0.196 A  
HETATM   26  C   UNL     1     -10.792  13.542  66.561  1.00  0.00    -0.282 A  
HETATM   27  N   UNL     1     -11.975  14.176  66.458  1.00  0.00    -0.426 NA 
HETATM   28  C   UNL     1     -12.858  13.725  65.543  1.00  0.00    -0.419 A  
HETATM   29  C   UNL     1     -12.617  12.653  64.705  1.00  0.00    -0.517 A  
HETATM   30  C   UNL     1     -11.384  12.017  64.796  1.00  0.00    -0.369 A  
HETATM   31  C   UNL     1     -10.438  12.454  65.736  1.00  0.00    -0.288 A  
HETATM   32  C   UNL     1      -9.176  11.840  65.878  1.00  0.00    -0.178 A  
ENDBRANCH  22  23
ENDBRANCH  16  22
ENDBRANCH   9  13
ENDBRANCH   3   6
TORSDOF 4
ENDMDL
MODEL      161
REMARK 921   NORMALIZED FREE ENERGY PREDICTED BY IDOCK:   -4.75 KCAL/MOL
REMARK 922        TOTAL FREE ENERGY PREDICTED BY IDOCK:   -6.52 KCAL/MOL
REMARK 923 INTER-LIGAND FREE ENERGY PREDICTED BY IDOCK:   -5.68 KCAL/MOL
REMARK 924 INTRA-LIGAND FREE ENERGY PREDICTED BY IDOCK:   -0.84 KCAL/MOL
REMARK 927      BINDING AFFINITY PREDICTED BY RF-SCORE:    0.00 PKD
ROOT
HETATM    1  C   UNL     1     -10.314   4.801  65.452  1.00  0.00    -0.069 C  
HETATM    2  N   UNL     1      -9.724   6.062  65.827  1.00  0.00    -0.370 N  
HETATM    3  C   UNL     1      -8.517   6.126  66.487  1.00  0.00    -0.119 C  
HETATM    4  H   UNL     1     -10.213   6.927  65.599  1.00  0.00     0.000 HD 
HETATM    5  O   UNL     1      -7.849   5.131  66.752  1.00  0.00    -0.098 OA 
ENDROOT
BRANCH   3   6
HETATM    6  C   UNL     1      -8.038   7.473  66.910  1.00  0.00    -0.116 A  
HETATM    7  C   UNL     1      -8.356   7.935  68.198  1.00  0.00    -0.124 A  
HETATM    8  C   UNL     1      -7.992   9.226  68.607  1.00  0.00    -0.100 A  
HETATM    9  C   UNL     1      -7.312  10.078  67.728  1.00  0.00    -0.089 A  
HETATM   10  C   UNL     1      -6.944   9.602  66.467  1.00  0.00    -0.085 A  
HETATM   11  F   UNL     1      -6.969   7.935  64.828  1.00  0.00    -0.058 F  
HETATM   12  C   UNL     1      -7.314   8.317  66.066  1.00  0.00    -0.080 A  
BRANCH   9  13
HETATM   13  C   UNL     1      -7.058  11.491  68.128  1.00  0.00    -0.076 C  
HETATM   14  N   UNL     1      -8.039  12.345  68.237  1.00  0.00    -0.161 NA 
HETATM   15  N   UNL     1      -7.610  13.612  68.538  1.00  0.00    -0.127 NA 
HETATM   16  C   UNL     1      -8.393  14.729  68.716  1.00  0.00    -0.168 A  
HETATM   17  C   UNL     1      -5.612  11.912  68.353  1.00  0.00    -0.049 C  
HETATM   18  C   UNL     1      -7.500  15.758  68.919  1.00  0.00    -0.173 A  
HETATM   19  N   UNL     1      -6.210  15.307  68.929  1.00  0.00    -0.092 NA 
HETATM   20  N   UNL     1      -5.259  13.121  68.639  1.00  0.00    -0.066 NA 
HETATM   21  C   UNL     1      -6.282  14.011  68.714  1.00  0.00    -0.087 A  
BRANCH  16  22
HETATM   22  C   UNL     1      -9.878  14.726  68.740  1.00  0.00    -0.227 C  
BRANCH  22  23
HETATM   23  C   UNL     1     -10.523  14.567  67.384  1.00  0.00    -0.264 A  
HETATM   24  C   UNL     1     -11.322  15.555  65.318  1.00  0.00    -0.189 A  
HETATM   25  C   UNL     1     -10.783  15.692  66.599  1.00  0.00    -0.296 A  
HETATM   26  C   UNL     1     -11.650  14.315  64.791  1.00  0.00    -0.401 A  
HETATM   27  N   UNL     1     -12.179  14.248  63.555  1.00  0.00    -0.564 NA 
HETATM   28  C   UNL     1     -12.532  13.033  63.083  1.00  0.00    -0.039 A  
HETATM   29  C   UNL     1     -12.380  11.858  63.794  1.00  0.00    -0.541 A  
HETATM   30  C   UNL     1     -11.809  11.930  65.060  1.00  0.00    -0.213 A  
HETATM   31  C   UNL     1     -11.430  13.173  65.588  1.00  0.00    -0.351 A  
HETATM   32  C   UNL     1     -10.855  13.304  66.870  1.00  0.00    -0.286 A  
ENDBRANCH  22  23
ENDBRANCH  16  22
ENDBRANCH   9  13
ENDBRANCH   3   6
TORSDOF 4
ENDMDL
MODEL      162
REMARK 921   NORMALIZED FREE ENERGY PREDICTED BY IDOCK:   -4.74 KCAL/MOL
REMARK 922        TOTAL FREE ENERGY PREDICTED BY IDOCK:   -6.50 KCAL/MOL
REMARK 923 INTER-LIGAND FREE ENERGY PREDICTED BY IDOCK:   -6.01 KCAL/MOL
REMARK 924 INTRA-LIGAND FREE ENERGY PREDICTED BY IDOCK:   -0.49 KCAL/MOL
REMARK 927      BINDING AFFINITY PREDICTED BY RF-SCORE:    0.00 PKD
ROOT
HETATM    1  C   UNL     1     -13.119  12.106  63.249  1.00  0.00     0.184 C  
HETATM    2  N   UNL     1     -12.272  12.699  64.254  1.00  0.00    -0.421 N  
HETATM    3  C   UNL     1     -12.213  14.063  64.434  1.00  0.00    -0.426 C  
HETATM    4  H   UNL     1     -11.703  12.094  64.845  1.00  0.00     0.000 HD 
HETATM    5  O   UNL     1     -12.903  14.850  63.795  1.00  0.00    -0.662 OA 
ENDROOT
BRANCH   3   6
HETATM    6  C   UNL     1     -11.238  14.580  65.438  1.00  0.00    -0.342 A  
HETATM    7  C   UNL     1     -10.086  15.245  64.987  1.00  0.00    -0.250 A  
HETATM    8  C   UNL     1      -9.107  15.677  65.894  1.00  0.00    -0.277 A  
HETATM    9  C   UNL     1      -9.263  15.440  67.265  1.00  0.00    -0.217 A  
HETATM   10  C   UNL     1     -10.434  14.830  67.722  1.00  0.00    -0.254 A  
HETATM   11  F   UNL     1     -12.482  13.780  67.310  1.00  0.00    -0.388 F  
HETATM   12  C   UNL     1     -11.401  14.399  66.812  1.00  0.00    -0.352 A  
BRANCH   9  13
HETATM   13  C   UNL     1      -8.151  15.780  68.198  1.00  0.00    -0.140 C  
HETATM   14  N   UNL     1      -7.593  14.861  68.940  1.00  0.00    -0.135 NA 
HETATM   15  N   UNL     1      -6.644  15.369  69.790  1.00  0.00    -0.171 NA 
HETATM   16  C   UNL     1      -5.884  14.664  70.695  1.00  0.00    -0.167 A  
HETATM   17  C   UNL     1      -7.726  17.238  68.291  1.00  0.00    -0.234 C  
HETATM   18  C   UNL     1      -5.146  15.621  71.356  1.00  0.00    -0.118 A  
HETATM   19  N   UNL     1      -5.381  16.870  70.855  1.00  0.00    -0.171 NA 
HETATM   20  N   UNL     1      -6.822  17.667  69.106  1.00  0.00    -0.248 NA 
HETATM   21  C   UNL     1      -6.274  16.712  69.902  1.00  0.00    -0.155 A  
BRANCH  16  22
HETATM   22  C   UNL     1      -5.871  13.185  70.817  1.00  0.00    -0.111 C  
BRANCH  22  23
HETATM   23  C   UNL     1      -6.099  12.450  69.517  1.00  0.00    -0.117 A  
HETATM   24  C   UNL     1      -5.302  11.776  67.327  1.00  0.00    -0.100 A  
HETATM   25  C   UNL     1      -5.133  12.501  68.510  1.00  0.00    -0.057 A  
HETATM   26  C   UNL     1      -6.436  11.015  67.092  1.00  0.00    -0.084 A  
HETATM   27  N   UNL     1      -6.548  10.349  65.928  1.00  0.00    -0.116 NA 
HETATM   28  C   UNL     1      -7.682   9.651  65.704  1.00  0.00    -0.107 A  
HETATM   29  C   UNL     1      -8.730   9.580  66.601  1.00  0.00    -0.146 A  
HETATM   30  C   UNL     1      -8.599  10.248  67.813  1.00  0.00    -0.118 A  
HETATM   31  C   UNL     1      -7.438  10.986  68.085  1.00  0.00    -0.092 A  
HETATM   32  C   UNL     1      -7.256  11.690  69.294  1.00  0.00    -0.020 A  
ENDBRANCH  22  23
ENDBRANCH  16  22
ENDBRANCH   9  13
ENDBRANCH   3   6
TORSDOF 4
ENDMDL
MODEL      163
REMARK 921   NORMALIZED FREE ENERGY PREDICTED BY IDOCK:   -4.72 KCAL/MOL
REMARK 922        TOTAL FREE ENERGY PREDICTED BY IDOCK:   -6.48 KCAL/MOL
REMARK 923 INTER-LIGAND FREE ENERGY PREDICTED BY IDOCK:   -5.97 KCAL/MOL
REMARK 924 INTRA-LIGAND FREE ENERGY PREDICTED BY IDOCK:   -0.51 KCAL/MOL
REMARK 927      BINDING AFFINITY PREDICTED BY RF-SCORE:    0.00 PKD
ROOT
HETATM    1  C   UNL     1     -11.447  15.832  71.315  1.00  0.00    -0.422 C  
HETATM    2  N   UNL     1     -11.070  14.852  70.328  1.00  0.00    -0.398 N  
HETATM    3  C   UNL     1     -10.572  15.222  69.098  1.00  0.00    -0.250 C  
HETATM    4  H   UNL     1     -11.174  13.861  70.544  1.00  0.00     0.000 HD 
HETATM    5  O   UNL     1     -10.373  16.391  68.784  1.00  0.00    -0.242 OA 
ENDROOT
BRANCH   3   6
HETATM    6  C   UNL     1     -10.297  14.135  68.114  1.00  0.00    -0.239 A  
HETATM    7  C   UNL     1      -9.563  13.011  68.530  1.00  0.00    -0.113 A  
HETATM    8  C   UNL     1      -9.216  12.005  67.617  1.00  0.00    -0.182 A  
HETATM    9  C   UNL     1      -9.590  12.113  66.272  1.00  0.00    -0.246 A  
HETATM   10  C   UNL     1     -10.369  13.201  65.867  1.00  0.00    -0.295 A  
HETATM   11  F   UNL     1     -11.417  15.241  66.322  1.00  0.00    -0.321 F  
HETATM   12  C   UNL     1     -10.706  14.201  66.782  1.00  0.00    -0.286 A  
BRANCH   9  13
HETATM   13  C   UNL     1      -9.095  11.107  65.291  1.00  0.00    -0.167 C  
HETATM   14  N   UNL     1      -8.196  10.223  65.630  1.00  0.00    -0.147 NA 
HETATM   15  N   UNL     1      -7.805   9.432  64.581  1.00  0.00    -0.114 NA 
HETATM   16  C   UNL     1      -6.878   8.416  64.613  1.00  0.00    -0.069 A  
HETATM   17  C   UNL     1      -9.635  11.181  63.869  1.00  0.00    -0.254 C  
HETATM   18  C   UNL     1      -6.781   7.985  63.308  1.00  0.00    -0.080 A  
HETATM   19  N   UNL     1      -7.649   8.656  62.494  1.00  0.00    -0.109 NA 
HETATM   20  N   UNL     1      -9.237  10.408  62.915  1.00  0.00    -0.272 NA 
HETATM   21  C   UNL     1      -8.275   9.517  63.267  1.00  0.00    -0.162 A  
BRANCH  16  22
HETATM   22  C   UNL     1      -6.224   7.907  65.845  1.00  0.00    -0.042 C  
BRANCH  22  23
HETATM   23  C   UNL     1      -7.146   7.785  67.036  1.00  0.00    -0.085 A  
HETATM   24  C   UNL     1      -7.980   8.668  69.135  1.00  0.00    -0.110 A  
HETATM   25  C   UNL     1      -7.091   8.734  68.059  1.00  0.00    -0.079 A  
HETATM   26  C   UNL     1      -8.918   7.653  69.249  1.00  0.00    -0.135 A  
HETATM   27  N   UNL     1      -9.738   7.636  70.316  1.00  0.00    -0.179 NA 
HETATM   28  C   UNL     1     -10.611   6.613  70.426  1.00  0.00    -0.223 A  
HETATM   29  C   UNL     1     -10.712   5.585  69.509  1.00  0.00    -0.332 A  
HETATM   30  C   UNL     1      -9.880   5.621  68.395  1.00  0.00    -0.178 A  
HETATM   31  C   UNL     1      -8.957   6.666  68.243  1.00  0.00    -0.122 A  
HETATM   32  C   UNL     1      -8.083   6.747  67.138  1.00  0.00    -0.117 A  
ENDBRANCH  22  23
ENDBRANCH  16  22
ENDBRANCH   9  13
ENDBRANCH   3   6
TORSDOF 4
ENDMDL
MODEL      164
REMARK 921   NORMALIZED FREE ENERGY PREDICTED BY IDOCK:   -4.69 KCAL/MOL
REMARK 922        TOTAL FREE ENERGY PREDICTED BY IDOCK:   -6.45 KCAL/MOL
REMARK 923 INTER-LIGAND FREE ENERGY PREDICTED BY IDOCK:   -5.70 KCAL/MOL
REMARK 924 INTRA-LIGAND FREE ENERGY PREDICTED BY IDOCK:   -0.75 KCAL/MOL
REMARK 927      BINDING AFFINITY PREDICTED BY RF-SCORE:    0.00 PKD
ROOT
HETATM    1  C   UNL     1      -7.961  16.597  66.440  1.00  0.00    -0.325 C  
HETATM    2  N   UNL     1      -8.343  15.255  66.803  1.00  0.00    -0.296 N  
HETATM    3  C   UNL     1      -9.254  15.011  67.806  1.00  0.00    -0.181 C  
HETATM    4  H   UNL     1      -7.929  14.468  66.305  1.00  0.00     0.000 HD 
HETATM    5  O   UNL     1      -9.830  15.907  68.416  1.00  0.00    -0.209 OA 
ENDROOT
BRANCH   3   6
HETATM    6  C   UNL     1      -9.513  13.587  68.166  1.00  0.00    -0.214 A  
HETATM    7  C   UNL     1     -10.831  13.182  68.436  1.00  0.00    -0.283 A  
HETATM    8  C   UNL     1     -11.107  11.872  68.853  1.00  0.00    -0.299 A  
HETATM    9  C   UNL     1     -10.066  10.950  69.016  1.00  0.00    -0.212 A  
HETATM   10  C   UNL     1      -8.761  11.333  68.694  1.00  0.00    -0.136 A  
HETATM   11  F   UNL     1      -7.216  12.958  68.032  1.00  0.00    -0.077 F  
HETATM   12  C   UNL     1      -8.495  12.640  68.284  1.00  0.00    -0.163 A  
BRANCH   9  13
HETATM   13  C   UNL     1     -10.359   9.608  69.593  1.00  0.00    -0.227 C  
HETATM   14  N   UNL     1      -9.605   8.578  69.317  1.00  0.00    -0.168 NA 
HETATM   15  N   UNL     1     -10.070   7.414  69.873  1.00  0.00    -0.192 NA 
HETATM   16  C   UNL     1      -9.505   6.164  69.765  1.00  0.00    -0.150 A  
HETATM   17  C   UNL     1     -11.594   9.471  70.472  1.00  0.00    -0.254 C  
HETATM   18  C   UNL     1     -10.377   5.325  70.424  1.00  0.00    -0.275 A  
HETATM   19  N   UNL     1     -11.417   6.017  70.975  1.00  0.00    -0.239 NA 
HETATM   20  N   UNL     1     -11.989   8.350  70.977  1.00  0.00    -0.268 NA 
HETATM   21  C   UNL     1     -11.221   7.278  70.653  1.00  0.00    -0.274 A  
BRANCH  16  22
HETATM   22  C   UNL     1      -8.197   5.880  69.123  1.00  0.00    -0.106 C  
BRANCH  22  23
HETATM   23  C   UNL     1      -8.271   5.658  67.630  1.00  0.00    -0.101 A  
HETATM   24  C   UNL     1      -8.832   4.229  65.753  1.00  0.00    -0.121 A  
HETATM   25  C   UNL     1      -8.700   4.427  67.130  1.00  0.00    -0.106 A  
HETATM   26  C   UNL     1      -8.513   5.219  64.837  1.00  0.00    -0.150 A  
HETATM   27  N   UNL     1      -8.649   4.964  63.523  1.00  0.00    -0.135 NA 
HETATM   28  C   UNL     1      -8.289   5.929  62.650  1.00  0.00    -0.056 A  
HETATM   29  C   UNL     1      -7.792   7.161  63.028  1.00  0.00    -0.118 A  
HETATM   30  C   UNL     1      -7.678   7.430  64.388  1.00  0.00    -0.120 A  
HETATM   31  C   UNL     1      -8.040   6.454  65.328  1.00  0.00    -0.133 A  
HETATM   32  C   UNL     1      -7.936   6.670  66.718  1.00  0.00    -0.108 A  
ENDBRANCH  22  23
ENDBRANCH  16  22
ENDBRANCH   9  13
ENDBRANCH   3   6
TORSDOF 4
ENDMDL
MODEL      165
REMARK 921   NORMALIZED FREE ENERGY PREDICTED BY IDOCK:   -4.67 KCAL/MOL
REMARK 922        TOTAL FREE ENERGY PREDICTED BY IDOCK:   -6.42 KCAL/MOL
REMARK 923 INTER-LIGAND FREE ENERGY PREDICTED BY IDOCK:   -5.86 KCAL/MOL
REMARK 924 INTRA-LIGAND FREE ENERGY PREDICTED BY IDOCK:   -0.56 KCAL/MOL
REMARK 927      BINDING AFFINITY PREDICTED BY RF-SCORE:    0.00 PKD
ROOT
HETATM    1  C   UNL     1     -10.948   2.343  73.655  1.00  0.00    -0.198 C  
HETATM    2  N   UNL     1     -10.579   3.486  72.858  1.00  0.00    -0.156 N  
HETATM    3  C   UNL     1      -9.906   3.347  71.665  1.00  0.00    -0.152 C  
HETATM    4  H   UNL     1     -10.821   4.421  73.186  1.00  0.00     0.000 HD 
HETATM    5  O   UNL     1      -9.623   2.254  71.183  1.00  0.00    -0.140 OA 
ENDROOT
BRANCH   3   6
HETATM    6  C   UNL     1      -9.490   4.595  70.962  1.00  0.00    -0.227 A  
HETATM    7  C   UNL     1     -10.129   4.944  69.760  1.00  0.00    -0.319 A  
HETATM    8  C   UNL     1      -9.715   6.066  69.029  1.00  0.00    -0.161 A  
HETATM    9  C   UNL     1      -8.648   6.851  69.485  1.00  0.00    -0.134 A  
HETATM   10  C   UNL     1      -8.048   6.540  70.708  1.00  0.00    -0.120 A  
HETATM   11  F   UNL     1      -7.820   5.148  72.573  1.00  0.00    -0.094 F  
HETATM   12  C   UNL     1      -8.464   5.418  71.427  1.00  0.00    -0.126 A  
BRANCH   9  13
HETATM   13  C   UNL     1      -8.131   7.954  68.627  1.00  0.00    -0.126 C  
HETATM   14  N   UNL     1      -8.938   8.851  68.127  1.00  0.00    -0.137 NA 
HETATM   15  N   UNL     1      -8.299   9.741  67.303  1.00  0.00    -0.121 NA 
HETATM   16  C   UNL     1      -8.868  10.795  66.626  1.00  0.00    -0.145 A  
HETATM   17  C   UNL     1      -6.641   7.969  68.315  1.00  0.00    -0.056 C  
HETATM   18  C   UNL     1      -7.840  11.333  65.882  1.00  0.00     0.115 A  
HETATM   19  N   UNL     1      -6.659  10.688  66.119  1.00  0.00    -0.122 NA 
HETATM   20  N   UNL     1      -6.085   8.833  67.534  1.00  0.00    -0.051 NA 
HETATM   21  C   UNL     1      -6.937   9.739  66.988  1.00  0.00    -0.085 A  
BRANCH  16  22
HETATM   22  C   UNL     1     -10.278  11.235  66.777  1.00  0.00    -0.263 C  
BRANCH  22  23
HETATM   23  C   UNL     1     -10.439  12.675  67.204  1.00  0.00    -0.245 A  
HETATM   24  C   UNL     1     -10.876  14.305  68.947  1.00  0.00    -0.272 A  
HETATM   25  C   UNL     1     -10.785  12.976  68.523  1.00  0.00    -0.275 A  
HETATM   26  C   UNL     1     -10.665  15.365  68.080  1.00  0.00    -0.279 A  
HETATM   27  N   UNL     1     -10.781  16.623  68.544  1.00  0.00    -0.334 NA 
HETATM   28  C   UNL     1     -10.615  17.638  67.669  1.00  0.00    -0.362 A  
HETATM   29  C   UNL     1     -10.333  17.460  66.329  1.00  0.00    -0.330 A  
HETATM   30  C   UNL     1     -10.189  16.159  65.859  1.00  0.00    -0.381 A  
HETATM   31  C   UNL     1     -10.354  15.075  66.735  1.00  0.00    -0.270 A  
HETATM   32  C   UNL     1     -10.229  13.736  66.311  1.00  0.00    -0.298 A  
ENDBRANCH  22  23
ENDBRANCH  16  22
ENDBRANCH   9  13
ENDBRANCH   3   6
TORSDOF 4
ENDMDL
MODEL      166
REMARK 921   NORMALIZED FREE ENERGY PREDICTED BY IDOCK:   -4.66 KCAL/MOL
REMARK 922        TOTAL FREE ENERGY PREDICTED BY IDOCK:   -6.41 KCAL/MOL
REMARK 923 INTER-LIGAND FREE ENERGY PREDICTED BY IDOCK:   -6.57 KCAL/MOL
REMARK 924 INTRA-LIGAND FREE ENERGY PREDICTED BY IDOCK:    0.16 KCAL/MOL
REMARK 927      BINDING AFFINITY PREDICTED BY RF-SCORE:    0.00 PKD
ROOT
HETATM    1  C   UNL     1      -7.712  19.769  68.787  1.00  0.00    -0.238 C  
HETATM    2  N   UNL     1      -7.942  18.354  68.628  1.00  0.00    -0.310 N  
HETATM    3  C   UNL     1      -9.154  17.780  68.942  1.00  0.00    -0.126 C  
HETATM    4  H   UNL     1      -7.189  17.764  68.274  1.00  0.00     0.000 HD 
HETATM    5  O   UNL     1     -10.120  18.431  69.326  1.00  0.00    -0.278 OA 
ENDROOT
BRANCH   3   6
HETATM    6  C   UNL     1      -9.260  16.297  68.828  1.00  0.00    -0.240 A  
HETATM    7  C   UNL     1      -8.090  15.523  68.908  1.00  0.00    -0.194 A  
HETATM    8  C   UNL     1      -8.136  14.133  68.727  1.00  0.00    -0.088 A  
HETATM    9  C   UNL     1      -9.354  13.498  68.453  1.00  0.00    -0.171 A  
HETATM   10  C   UNL     1     -10.527  14.257  68.429  1.00  0.00    -0.249 A  
HETATM   11  F   UNL     1     -11.626  16.319  68.527  1.00  0.00    -0.359 F  
HETATM   12  C   UNL     1     -10.471  15.640  68.605  1.00  0.00    -0.231 A  
BRANCH   9  13
HETATM   13  C   UNL     1      -9.365  12.044  68.126  1.00  0.00    -0.199 C  
HETATM   14  N   UNL     1      -9.491  11.635  66.892  1.00  0.00    -0.182 NA 
HETATM   15  N   UNL     1      -9.558  10.269  66.790  1.00  0.00    -0.167 NA 
HETATM   16  C   UNL     1      -9.693   9.532  65.636  1.00  0.00    -0.290 A  
HETATM   17  C   UNL     1      -9.274  11.058  69.282  1.00  0.00     0.085 C  
HETATM   18  C   UNL     1      -9.789   8.225  66.060  1.00  0.00     0.046 A  
HETATM   19  N   UNL     1      -9.662   8.129  67.417  1.00  0.00    -0.159 NA 
HETATM   20  N   UNL     1      -9.337   9.778  69.133  1.00  0.00    -0.172 NA 
HETATM   21  C   UNL     1      -9.508   9.361  67.852  1.00  0.00    -0.132 A  
BRANCH  16  22
HETATM   22  C   UNL     1      -9.660  10.098  64.263  1.00  0.00    -0.354 C  
BRANCH  22  23
HETATM   23  C   UNL     1     -10.396  11.408  64.112  1.00  0.00    -0.400 A  
HETATM   24  C   UNL     1     -12.371  12.630  63.412  1.00  0.00    -0.553 A  
HETATM   25  C   UNL     1     -11.653  11.435  63.503  1.00  0.00    -0.127 A  
HETATM   26  C   UNL     1     -11.859  13.829  63.883  1.00  0.00    -0.327 A  
HETATM   27  N   UNL     1     -12.593  14.950  63.754  1.00  0.00    -0.689 NA 
HETATM   28  C   UNL     1     -12.054  16.112  64.180  1.00  0.00     0.468 A  
HETATM   29  C   UNL     1     -10.795  16.216  64.739  1.00  0.00    -0.282 A  
HETATM   30  C   UNL     1     -10.051  15.052  64.894  1.00  0.00    -0.179 A  
HETATM   31  C   UNL     1     -10.574  13.823  64.463  1.00  0.00    -0.405 A  
HETATM   32  C   UNL     1      -9.859  12.614  64.587  1.00  0.00    -0.063 A  
ENDBRANCH  22  23
ENDBRANCH  16  22
ENDBRANCH   9  13
ENDBRANCH   3   6
TORSDOF 4
ENDMDL
MODEL      167
REMARK 921   NORMALIZED FREE ENERGY PREDICTED BY IDOCK:   -4.63 KCAL/MOL
REMARK 922        TOTAL FREE ENERGY PREDICTED BY IDOCK:   -6.37 KCAL/MOL
REMARK 923 INTER-LIGAND FREE ENERGY PREDICTED BY IDOCK:   -6.52 KCAL/MOL
REMARK 924 INTRA-LIGAND FREE ENERGY PREDICTED BY IDOCK:    0.16 KCAL/MOL
REMARK 927      BINDING AFFINITY PREDICTED BY RF-SCORE:    0.00 PKD
ROOT
HETATM    1  C   UNL     1      -5.904  19.764  67.200  1.00  0.00    -0.173 C  
HETATM    2  N   UNL     1      -6.084  18.334  67.205  1.00  0.00    -0.158 N  
HETATM    3  C   UNL     1      -7.039  17.729  67.992  1.00  0.00    -0.209 C  
HETATM    4  H   UNL     1      -5.490  17.755  66.611  1.00  0.00     0.000 HD 
HETATM    5  O   UNL     1      -7.821  18.362  68.694  1.00  0.00    -0.302 OA 
ENDROOT
BRANCH   3   6
HETATM    6  C   UNL     1      -7.083  16.238  67.993  1.00  0.00    -0.143 A  
HETATM    7  C   UNL     1      -5.922  15.523  68.332  1.00  0.00    -0.107 A  
HETATM    8  C   UNL     1      -5.899  14.123  68.269  1.00  0.00    -0.116 A  
HETATM    9  C   UNL     1      -7.036  13.417  67.857  1.00  0.00    -0.141 A  
HETATM   10  C   UNL     1      -8.209  14.121  67.574  1.00  0.00    -0.196 A  
HETATM   11  F   UNL     1      -9.366  16.136  67.310  1.00  0.00    -0.207 F  
HETATM   12  C   UNL     1      -8.222  15.516  67.635  1.00  0.00    -0.154 A  
BRANCH   9  13
HETATM   13  C   UNL     1      -6.952  11.942  67.662  1.00  0.00    -0.112 C  
HETATM   14  N   UNL     1      -7.454  11.375  66.598  1.00  0.00    -0.136 NA 
HETATM   15  N   UNL     1      -7.352  10.008  66.626  1.00  0.00    -0.101 NA 
HETATM   16  C   UNL     1      -7.786   9.128  65.661  1.00  0.00    -0.095 A  
HETATM   17  C   UNL     1      -6.306  11.118  68.767  1.00  0.00    -0.046 C  
HETATM   18  C   UNL     1      -7.531   7.879  66.183  1.00  0.00    -0.079 A  
HETATM   19  N   UNL     1      -6.909   7.960  67.396  1.00  0.00    -0.068 NA 
HETATM   20  N   UNL     1      -6.231   9.829  68.744  1.00  0.00    -0.042 NA 
HETATM   21  C   UNL     1      -6.790   9.246  67.653  1.00  0.00    -0.076 A  
BRANCH  16  22
HETATM   22  C   UNL     1      -8.334   9.525  64.339  1.00  0.00    -0.174 C  
BRANCH  22  23
HETATM   23  C   UNL     1      -9.371  10.622  64.398  1.00  0.00    -0.291 A  
HETATM   24  C   UNL     1     -10.813  12.202  63.255  1.00  0.00    -0.381 A  
HETATM   25  C   UNL     1      -9.810  11.229  63.220  1.00  0.00    -0.418 A  
HETATM   26  C   UNL     1     -11.380  12.626  64.446  1.00  0.00    -0.344 A  
HETATM   27  N   UNL     1     -12.333  13.576  64.417  1.00  0.00    -0.581 NA 
HETATM   28  C   UNL     1     -12.838  14.003  65.593  1.00  0.00    -0.406 A  
HETATM   29  C   UNL     1     -12.434  13.521  66.824  1.00  0.00    -0.213 A  
HETATM   30  C   UNL     1     -11.469  12.521  66.848  1.00  0.00    -0.416 A  
HETATM   31  C   UNL     1     -10.917  12.049  65.647  1.00  0.00    -0.343 A  
HETATM   32  C   UNL     1      -9.928  11.043  65.615  1.00  0.00    -0.299 A  
ENDBRANCH  22  23
ENDBRANCH  16  22
ENDBRANCH   9  13
ENDBRANCH   3   6
TORSDOF 4
ENDMDL
MODEL      168
REMARK 921   NORMALIZED FREE ENERGY PREDICTED BY IDOCK:   -4.62 KCAL/MOL
REMARK 922        TOTAL FREE ENERGY PREDICTED BY IDOCK:   -6.36 KCAL/MOL
REMARK 923 INTER-LIGAND FREE ENERGY PREDICTED BY IDOCK:   -5.82 KCAL/MOL
REMARK 924 INTRA-LIGAND FREE ENERGY PREDICTED BY IDOCK:   -0.54 KCAL/MOL
REMARK 927      BINDING AFFINITY PREDICTED BY RF-SCORE:    0.00 PKD
ROOT
HETATM    1  C   UNL     1     -12.637  14.162  65.705  1.00  0.00    -0.470 C  
HETATM    2  N   UNL     1     -12.108  12.825  65.805  1.00  0.00    -0.451 N  
HETATM    3  C   UNL     1     -11.589  12.342  66.986  1.00  0.00    -0.349 C  
HETATM    4  H   UNL     1     -12.119  12.222  64.983  1.00  0.00     0.000 HD 
HETATM    5  O   UNL     1     -11.586  12.990  68.027  1.00  0.00    -0.299 OA 
ENDROOT
BRANCH   3   6
HETATM    6  C   UNL     1     -10.985  10.978  66.962  1.00  0.00    -0.333 A  
HETATM    7  C   UNL     1     -10.980  10.215  68.141  1.00  0.00    -0.313 A  
HETATM    8  C   UNL     1     -10.353   8.961  68.181  1.00  0.00    -0.261 A  
HETATM    9  C   UNL     1      -9.712   8.457  67.042  1.00  0.00    -0.268 A  
HETATM   10  C   UNL     1      -9.763   9.188  65.852  1.00  0.00    -0.336 A  
HETATM   11  F   UNL     1     -10.364  11.109  64.662  1.00  0.00    -0.302 F  
HETATM   12  C   UNL     1     -10.386  10.437  65.823  1.00  0.00    -0.187 A  
BRANCH   9  13
HETATM   13  C   UNL     1      -8.932   7.191  67.141  1.00  0.00    -0.125 C  
HETATM   14  N   UNL     1      -8.038   7.024  68.077  1.00  0.00    -0.118 NA 
HETATM   15  N   UNL     1      -7.367   5.833  67.966  1.00  0.00    -0.073 NA 
HETATM   16  C   UNL     1      -6.370   5.366  68.791  1.00  0.00    -0.038 A  
HETATM   17  C   UNL     1      -9.180   6.124  66.084  1.00  0.00    -0.131 C  
HETATM   18  C   UNL     1      -5.971   4.176  68.223  1.00  0.00    -0.027 A  
HETATM   19  N   UNL     1      -6.718   3.871  67.121  1.00  0.00    -0.046 NA 
HETATM   20  N   UNL     1      -8.524   5.014  66.024  1.00  0.00    -0.114 NA 
HETATM   21  C   UNL     1      -7.569   4.865  66.978  1.00  0.00    -0.087 A  
BRANCH  16  22
HETATM   22  C   UNL     1      -5.931   6.029  70.045  1.00  0.00    -0.025 C  
BRANCH  22  23
HETATM   23  C   UNL     1      -6.972   6.045  71.139  1.00  0.00    -0.068 A  
HETATM   24  C   UNL     1      -8.057   7.196  72.978  1.00  0.00    -0.121 A  
HETATM   25  C   UNL     1      -7.060   7.141  72.001  1.00  0.00    -0.071 A  
HETATM   26  C   UNL     1      -8.967   6.165  73.154  1.00  0.00    -0.130 A  
HETATM   27  N   UNL     1      -9.897   6.271  74.121  1.00  0.00    -0.224 NA 
HETATM   28  C   UNL     1     -10.742   5.234  74.302  1.00  0.00    -0.104 A  
HETATM   29  C   UNL     1     -10.709   4.074  73.552  1.00  0.00    -0.306 A  
HETATM   30  C   UNL     1      -9.763   3.980  72.537  1.00  0.00    -0.206 A  
HETATM   31  C   UNL     1      -8.864   5.035  72.317  1.00  0.00    -0.135 A  
HETATM   32  C   UNL     1      -7.879   4.989  71.308  1.00  0.00    -0.101 A  
ENDBRANCH  22  23
ENDBRANCH  16  22
ENDBRANCH   9  13
ENDBRANCH   3   6
TORSDOF 4
ENDMDL
MODEL      169
REMARK 921   NORMALIZED FREE ENERGY PREDICTED BY IDOCK:   -4.62 KCAL/MOL
REMARK 922        TOTAL FREE ENERGY PREDICTED BY IDOCK:   -6.36 KCAL/MOL
REMARK 923 INTER-LIGAND FREE ENERGY PREDICTED BY IDOCK:   -5.90 KCAL/MOL
REMARK 924 INTRA-LIGAND FREE ENERGY PREDICTED BY IDOCK:   -0.46 KCAL/MOL
REMARK 927      BINDING AFFINITY PREDICTED BY RF-SCORE:    0.00 PKD
ROOT
HETATM    1  C   UNL     1      -5.264  14.279  72.990  1.00  0.00    -0.267 C  
HETATM    2  N   UNL     1      -5.761  13.765  71.738  1.00  0.00    -0.250 N  
HETATM    3  C   UNL     1      -5.636  12.435  71.404  1.00  0.00     0.172 C  
HETATM    4  H   UNL     1      -6.216  14.401  71.084  1.00  0.00     0.000 HD 
HETATM    5  O   UNL     1      -5.144  11.602  72.159  1.00  0.00    -0.335 OA 
ENDROOT
BRANCH   3   6
HETATM    6  C   UNL     1      -6.100  12.022  70.048  1.00  0.00    -0.146 A  
HETATM    7  C   UNL     1      -5.812  12.848  68.949  1.00  0.00    -0.075 A  
HETATM    8  C   UNL     1      -6.298  12.536  67.671  1.00  0.00    -0.140 A  
HETATM    9  C   UNL     1      -7.088  11.397  67.476  1.00  0.00    -0.106 A  
HETATM   10  C   UNL     1      -7.329  10.542  68.556  1.00  0.00    -0.088 A  
HETATM   11  F   UNL     1      -7.147  10.025  70.829  1.00  0.00    -0.134 F  
HETATM   12  C   UNL     1      -6.845  10.863  69.825  1.00  0.00    -0.134 A  
BRANCH   9  13
HETATM   13  C   UNL     1      -7.711  11.156  66.144  1.00  0.00    -0.053 C  
HETATM   14  N   UNL     1      -8.945  11.511  65.906  1.00  0.00    -0.185 NA 
HETATM   15  N   UNL     1      -9.372  11.142  64.656  1.00  0.00    -0.203 NA 
HETATM   16  C   UNL     1     -10.613  11.367  64.107  1.00  0.00    -0.369 A  
HETATM   17  C   UNL     1      -6.876  10.439  65.092  1.00  0.00    -0.085 C  
HETATM   18  C   UNL     1     -10.574  10.745  62.878  1.00  0.00     0.511 A  
HETATM   19  N   UNL     1      -9.346  10.201  62.631  1.00  0.00    -0.301 NA 
HETATM   20  N   UNL     1      -7.324  10.117  63.925  1.00  0.00    -0.132 NA 
HETATM   21  C   UNL     1      -8.619  10.455  63.699  1.00  0.00    -0.186 A  
BRANCH  16  22
HETATM   22  C   UNL     1     -11.683  12.178  64.741  1.00  0.00    -0.390 C  
BRANCH  22  23
HETATM   23  C   UNL     1     -11.298  13.612  65.016  1.00  0.00    -0.339 A  
HETATM   24  C   UNL     1     -11.326  15.948  64.364  1.00  0.00    -0.276 A  
HETATM   25  C   UNL     1     -11.622  14.610  64.094  1.00  0.00    -0.118 A  
HETATM   26  C   UNL     1     -10.677  16.334  65.527  1.00  0.00    -0.313 A  
HETATM   27  N   UNL     1     -10.408  17.638  65.725  1.00  0.00    -0.598 NA 
HETATM   28  C   UNL     1      -9.735  17.983  66.843  1.00  0.00    -0.314 A  
HETATM   29  C   UNL     1      -9.310  17.076  67.794  1.00  0.00    -0.237 A  
HETATM   30  C   UNL     1      -9.612  15.733  67.599  1.00  0.00    -0.220 A  
HETATM   31  C   UNL     1     -10.309  15.333  66.448  1.00  0.00    -0.296 A  
HETATM   32  C   UNL     1     -10.634  13.983  66.195  1.00  0.00    -0.290 A  
ENDBRANCH  22  23
ENDBRANCH  16  22
ENDBRANCH   9  13
ENDBRANCH   3   6
TORSDOF 4
ENDMDL
MODEL      170
REMARK 921   NORMALIZED FREE ENERGY PREDICTED BY IDOCK:   -4.62 KCAL/MOL
REMARK 922        TOTAL FREE ENERGY PREDICTED BY IDOCK:   -6.36 KCAL/MOL
REMARK 923 INTER-LIGAND FREE ENERGY PREDICTED BY IDOCK:   -6.23 KCAL/MOL
REMARK 924 INTRA-LIGAND FREE ENERGY PREDICTED BY IDOCK:   -0.13 KCAL/MOL
REMARK 927      BINDING AFFINITY PREDICTED BY RF-SCORE:    0.00 PKD
ROOT
HETATM    1  C   UNL     1      -8.686   3.067  68.128  1.00  0.00    -0.108 C  
HETATM    2  N   UNL     1      -9.307   4.355  68.312  1.00  0.00    -0.138 N  
HETATM    3  C   UNL     1      -8.844   5.478  67.663  1.00  0.00    -0.105 C  
HETATM    4  H   UNL     1     -10.108   4.437  68.937  1.00  0.00     0.000 HD 
HETATM    5  O   UNL     1      -7.918   5.449  66.859  1.00  0.00    -0.100 OA 
ENDROOT
BRANCH   3   6
HETATM    6  C   UNL     1      -9.498   6.778  67.991  1.00  0.00    -0.119 A  
HETATM    7  C   UNL     1      -9.521   7.792  67.019  1.00  0.00    -0.210 A  
HETATM    8  C   UNL     1     -10.056   9.054  67.313  1.00  0.00    -0.297 A  
HETATM    9  C   UNL     1     -10.568   9.323  68.589  1.00  0.00    -0.219 A  
HETATM   10  C   UNL     1     -10.598   8.300  69.540  1.00  0.00    -0.216 A  
HETATM   11  F   UNL     1     -10.079   6.120  70.209  1.00  0.00    -0.192 F  
HETATM   12  C   UNL     1     -10.060   7.047  69.240  1.00  0.00    -0.173 A  
BRANCH   9  13
HETATM   13  C   UNL     1     -11.003  10.708  68.927  1.00  0.00    -0.249 C  
HETATM   14  N   UNL     1     -10.537  11.737  68.272  1.00  0.00    -0.203 NA 
HETATM   15  N   UNL     1     -10.988  12.933  68.770  1.00  0.00    -0.251 NA 
HETATM   16  C   UNL     1     -10.680  14.190  68.304  1.00  0.00    -0.249 A  
HETATM   17  C   UNL     1     -11.966  10.882  70.092  1.00  0.00    -0.352 C  
HETATM   18  C   UNL     1     -11.309  15.053  69.175  1.00  0.00    -0.296 A  
HETATM   19  N   UNL     1     -12.031  14.376  70.116  1.00  0.00    -0.302 NA 
HETATM   20  N   UNL     1     -12.366  12.032  70.521  1.00  0.00    -0.319 NA 
HETATM   21  C   UNL     1     -11.847  13.098  69.860  1.00  0.00    -0.308 A  
BRANCH  16  22
HETATM   22  C   UNL     1      -9.892  14.468  67.076  1.00  0.00    -0.249 C  
BRANCH  22  23
HETATM   23  C   UNL     1      -9.837  13.318  66.098  1.00  0.00    -0.286 A  
HETATM   24  C   UNL     1     -10.790  12.128  64.211  1.00  0.00    -0.388 A  
HETATM   25  C   UNL     1     -10.859  13.151  65.161  1.00  0.00    -0.321 A  
HETATM   26  C   UNL     1      -9.737  11.228  64.180  1.00  0.00    -0.261 A  
HETATM   27  N   UNL     1      -9.732  10.257  63.249  1.00  0.00    -0.259 NA 
HETATM   28  C   UNL     1      -8.719   9.366  63.269  1.00  0.00    -0.208 A  
HETATM   29  C   UNL     1      -7.687   9.394  64.187  1.00  0.00    -0.117 A  
HETATM   30  C   UNL     1      -7.682  10.415  65.131  1.00  0.00    -0.110 A  
HETATM   31  C   UNL     1      -8.718  11.361  65.146  1.00  0.00     0.185 A  
HETATM   32  C   UNL     1      -8.767  12.412  66.087  1.00  0.00     0.192 A  
ENDBRANCH  22  23
ENDBRANCH  16  22
ENDBRANCH   9  13
ENDBRANCH   3   6
TORSDOF 4
ENDMDL
MODEL      171
REMARK 921   NORMALIZED FREE ENERGY PREDICTED BY IDOCK:   -4.62 KCAL/MOL
REMARK 922        TOTAL FREE ENERGY PREDICTED BY IDOCK:   -6.35 KCAL/MOL
REMARK 923 INTER-LIGAND FREE ENERGY PREDICTED BY IDOCK:   -5.71 KCAL/MOL
REMARK 924 INTRA-LIGAND FREE ENERGY PREDICTED BY IDOCK:   -0.64 KCAL/MOL
REMARK 927      BINDING AFFINITY PREDICTED BY RF-SCORE:    0.00 PKD
ROOT
HETATM    1  C   UNL     1     -14.040  13.492  72.352  1.00  0.00    -0.461 C  
HETATM    2  N   UNL     1     -13.453  12.981  71.139  1.00  0.00     0.103 N  
HETATM    3  C   UNL     1     -12.345  13.569  70.570  1.00  0.00    -0.342 C  
HETATM    4  H   UNL     1     -13.868  12.164  70.691  1.00  0.00     0.000 HD 
HETATM    5  O   UNL     1     -11.764  14.523  71.076  1.00  0.00    -0.300 OA 
ENDROOT
BRANCH   3   6
HETATM    6  C   UNL     1     -11.870  13.020  69.267  1.00  0.00    -0.370 A  
HETATM    7  C   UNL     1     -11.519  11.662  69.189  1.00  0.00    -0.364 A  
HETATM    8  C   UNL     1     -10.994  11.124  68.005  1.00  0.00    -0.307 A  
HETATM    9  C   UNL     1     -10.804  11.941  66.884  1.00  0.00    -0.305 A  
HETATM   10  C   UNL     1     -11.205  13.279  66.940  1.00  0.00    -0.332 A  
HETATM   11  F   UNL     1     -12.048  15.108  68.128  1.00  0.00    -0.322 F  
HETATM   12  C   UNL     1     -11.722  13.806  68.124  1.00  0.00    -0.357 A  
BRANCH   9  13
HETATM   13  C   UNL     1     -10.117  11.388  65.682  1.00  0.00    -0.248 C  
HETATM   14  N   UNL     1      -8.912  10.892  65.767  1.00  0.00    -0.189 NA 
HETATM   15  N   UNL     1      -8.411  10.502  64.551  1.00  0.00    -0.161 NA 
HETATM   16  C   UNL     1      -7.176   9.947  64.306  1.00  0.00    -0.134 A  
HETATM   17  C   UNL     1     -10.847  11.469  64.350  1.00  0.00    -0.342 C  
HETATM   18  C   UNL     1      -7.118   9.807  62.937  1.00  0.00    -0.115 A  
HETATM   19  N   UNL     1      -8.283  10.200  62.343  1.00  0.00    -0.138 NA 
HETATM   20  N   UNL     1     -10.333  11.084  63.230  1.00  0.00    -0.319 NA 
HETATM   21  C   UNL     1      -9.066  10.604  63.321  1.00  0.00    -0.257 A  
BRANCH  16  22
HETATM   22  C   UNL     1      -6.205   9.548  65.356  1.00  0.00    -0.067 C  
BRANCH  22  23
HETATM   23  C   UNL     1      -6.257   8.085  65.729  1.00  0.00    -0.041 A  
HETATM   24  C   UNL     1      -6.553   6.364  67.413  1.00  0.00    -0.058 A  
HETATM   25  C   UNL     1      -6.441   7.712  67.063  1.00  0.00    -0.054 A  
HETATM   26  C   UNL     1      -6.452   5.352  66.471  1.00  0.00    -0.044 A  
HETATM   27  N   UNL     1      -6.555   4.072  66.872  1.00  0.00    -0.045 NA 
HETATM   28  C   UNL     1      -6.407   3.104  65.943  1.00  0.00    -0.032 A  
HETATM   29  C   UNL     1      -6.159   3.352  64.607  1.00  0.00    -0.023 A  
HETATM   30  C   UNL     1      -6.080   4.677  64.192  1.00  0.00    -0.022 A  
HETATM   31  C   UNL     1      -6.226   5.713  65.127  1.00  0.00    -0.030 A  
HETATM   32  C   UNL     1      -6.145   7.074  64.763  1.00  0.00    -0.037 A  
ENDBRANCH  22  23
ENDBRANCH  16  22
ENDBRANCH   9  13
ENDBRANCH   3   6
TORSDOF 4
ENDMDL
MODEL      172
REMARK 921   NORMALIZED FREE ENERGY PREDICTED BY IDOCK:   -4.59 KCAL/MOL
REMARK 922        TOTAL FREE ENERGY PREDICTED BY IDOCK:   -6.32 KCAL/MOL
REMARK 923 INTER-LIGAND FREE ENERGY PREDICTED BY IDOCK:   -5.58 KCAL/MOL
REMARK 924 INTRA-LIGAND FREE ENERGY PREDICTED BY IDOCK:   -0.74 KCAL/MOL
REMARK 927      BINDING AFFINITY PREDICTED BY RF-SCORE:    0.00 PKD
ROOT
HETATM    1  C   UNL     1      -9.134   2.732  74.395  1.00  0.00    -0.078 C  
HETATM    2  N   UNL     1      -8.832   3.479  73.200  1.00  0.00    -0.092 N  
HETATM    3  C   UNL     1      -9.739   4.357  72.649  1.00  0.00    -0.149 C  
HETATM    4  H   UNL     1      -7.925   3.355  72.751  1.00  0.00     0.000 HD 
HETATM    5  O   UNL     1     -10.829   4.595  73.158  1.00  0.00    -0.221 OA 
ENDROOT
BRANCH   3   6
HETATM    6  C   UNL     1      -9.365   5.012  71.362  1.00  0.00    -0.194 A  
HETATM    7  C   UNL     1      -8.917   6.344  71.382  1.00  0.00    -0.138 A  
HETATM    8  C   UNL     1      -8.630   7.021  70.188  1.00  0.00    -0.140 A  
HETATM    9  C   UNL     1      -8.798   6.378  68.955  1.00  0.00    -0.125 A  
HETATM   10  C   UNL     1      -9.188   5.036  68.934  1.00  0.00    -0.155 A  
HETATM   11  F   UNL     1      -9.888   3.098  70.039  1.00  0.00    -0.226 F  
HETATM   12  C   UNL     1      -9.476   4.371  70.128  1.00  0.00    -0.175 A  
BRANCH   9  13
HETATM   13  C   UNL     1      -8.624   7.153  67.694  1.00  0.00    -0.122 C  
HETATM   14  N   UNL     1      -8.397   8.439  67.723  1.00  0.00    -0.129 NA 
HETATM   15  N   UNL     1      -8.342   8.996  66.471  1.00  0.00    -0.114 NA 
HETATM   16  C   UNL     1      -8.122  10.320  66.166  1.00  0.00    -0.133 A  
HETATM   17  C   UNL     1      -8.769   6.404  66.377  1.00  0.00    -0.138 C  
HETATM   18  C   UNL     1      -8.236  10.389  64.794  1.00  0.00    -0.141 A  
HETATM   19  N   UNL     1      -8.459   9.157  64.248  1.00  0.00    -0.184 NA 
HETATM   20  N   UNL     1      -8.704   6.975  65.221  1.00  0.00     0.011 NA 
HETATM   21  C   UNL     1      -8.507   8.318  65.260  1.00  0.00    -0.162 A  
BRANCH  16  22
HETATM   22  C   UNL     1      -7.773  11.370  67.156  1.00  0.00    -0.152 C  
BRANCH  22  23
HETATM   23  C   UNL     1      -8.955  12.150  67.681  1.00  0.00    -0.178 A  
HETATM   24  C   UNL     1     -11.322  12.268  68.195  1.00  0.00    -0.349 A  
HETATM   25  C   UNL     1     -10.231  11.582  67.656  1.00  0.00    -0.205 A  
HETATM   26  C   UNL     1     -11.194  13.537  68.737  1.00  0.00    -0.274 A  
HETATM   27  N   UNL     1     -12.285  14.152  69.229  1.00  0.00    -0.317 NA 
HETATM   28  C   UNL     1     -12.143  15.405  69.710  1.00  0.00    -0.347 A  
HETATM   29  C   UNL     1     -10.943  16.090  69.728  1.00  0.00    -0.334 A  
HETATM   30  C   UNL     1      -9.813  15.441  69.242  1.00  0.00    -0.262 A  
HETATM   31  C   UNL     1      -9.919  14.138  68.732  1.00  0.00    -0.184 A  
HETATM   32  C   UNL     1      -8.807  13.437  68.219  1.00  0.00    -0.172 A  
ENDBRANCH  22  23
ENDBRANCH  16  22
ENDBRANCH   9  13
ENDBRANCH   3   6
TORSDOF 4
ENDMDL
MODEL      173
REMARK 921   NORMALIZED FREE ENERGY PREDICTED BY IDOCK:   -4.53 KCAL/MOL
REMARK 922        TOTAL FREE ENERGY PREDICTED BY IDOCK:   -6.24 KCAL/MOL
REMARK 923 INTER-LIGAND FREE ENERGY PREDICTED BY IDOCK:   -5.86 KCAL/MOL
REMARK 924 INTRA-LIGAND FREE ENERGY PREDICTED BY IDOCK:   -0.39 KCAL/MOL
REMARK 927      BINDING AFFINITY PREDICTED BY RF-SCORE:    0.00 PKD
ROOT
HETATM    1  C   UNL     1      -8.778  20.449  66.692  1.00  0.00    -0.150 C  
HETATM    2  N   UNL     1      -9.166  19.075  66.893  1.00  0.00    -0.293 N  
HETATM    3  C   UNL     1     -10.084  18.718  67.856  1.00  0.00    -0.366 C  
HETATM    4  H   UNL     1      -8.750  18.350  66.309  1.00  0.00     0.000 HD 
HETATM    5  O   UNL     1     -10.661  19.538  68.563  1.00  0.00    -0.283 OA 
ENDROOT
BRANCH   3   6
HETATM    6  C   UNL     1     -10.348  17.262  68.045  1.00  0.00    -0.353 A  
HETATM    7  C   UNL     1     -10.329  16.730  69.345  1.00  0.00    -0.276 A  
HETATM    8  C   UNL     1     -10.494  15.355  69.559  1.00  0.00    -0.264 A  
HETATM    9  C   UNL     1     -10.672  14.489  68.473  1.00  0.00    -0.253 A  
HETATM   10  C   UNL     1     -10.748  15.021  67.183  1.00  0.00    -0.303 A  
HETATM   11  F   UNL     1     -10.618  16.835  65.714  1.00  0.00    -0.336 F  
HETATM   12  C   UNL     1     -10.578  16.391  66.979  1.00  0.00    -0.260 A  
BRANCH   9  13
HETATM   13  C   UNL     1     -10.705  13.017  68.707  1.00  0.00    -0.221 C  
HETATM   14  N   UNL     1      -9.954  12.209  68.010  1.00  0.00    -0.197 NA 
HETATM   15  N   UNL     1     -10.174  10.889  68.308  1.00  0.00    -0.167 NA 
HETATM   16  C   UNL     1      -9.546   9.800  67.748  1.00  0.00    -0.135 A  
HETATM   17  C   UNL     1     -11.681  12.489  69.749  1.00  0.00    -0.285 C  
HETATM   18  C   UNL     1     -10.163   8.706  68.315  1.00  0.00    -0.198 A  
HETATM   19  N   UNL     1     -11.098   9.082  69.237  1.00  0.00    -0.028 NA 
HETATM   20  N   UNL     1     -11.849  11.233  69.997  1.00  0.00    -0.337 NA 
HETATM   21  C   UNL     1     -11.092  10.398  69.240  1.00  0.00    -0.253 A  
BRANCH  16  22
HETATM   22  C   UNL     1      -8.408   9.876  66.797  1.00  0.00    -0.125 C  
BRANCH  22  23
HETATM   23  C   UNL     1      -7.937   8.537  66.280  1.00  0.00    -0.102 A  
HETATM   24  C   UNL     1      -6.772   6.443  66.652  1.00  0.00    -0.060 A  
HETATM   25  C   UNL     1      -7.162   7.709  67.095  1.00  0.00    -0.090 A  
HETATM   26  C   UNL     1      -7.102   5.975  65.390  1.00  0.00    -0.065 A  
HETATM   27  N   UNL     1      -6.686   4.751  65.015  1.00  0.00    -0.044 NA 
HETATM   28  C   UNL     1      -6.982   4.337  63.765  1.00  0.00    -0.045 A  
HETATM   29  C   UNL     1      -7.687   5.095  62.851  1.00  0.00    -0.072 A  
HETATM   30  C   UNL     1      -8.137   6.348  63.251  1.00  0.00    -0.038 A  
HETATM   31  C   UNL     1      -7.850   6.817  64.542  1.00  0.00    -0.115 A  
HETATM   32  C   UNL     1      -8.274   8.084  64.996  1.00  0.00    -0.144 A  
ENDBRANCH  22  23
ENDBRANCH  16  22
ENDBRANCH   9  13
ENDBRANCH   3   6
TORSDOF 4
ENDMDL
MODEL      174
REMARK 921   NORMALIZED FREE ENERGY PREDICTED BY IDOCK:   -4.45 KCAL/MOL
REMARK 922        TOTAL FREE ENERGY PREDICTED BY IDOCK:   -6.15 KCAL/MOL
REMARK 923 INTER-LIGAND FREE ENERGY PREDICTED BY IDOCK:   -5.33 KCAL/MOL
REMARK 924 INTRA-LIGAND FREE ENERGY PREDICTED BY IDOCK:   -0.82 KCAL/MOL
REMARK 927      BINDING AFFINITY PREDICTED BY RF-SCORE:    0.00 PKD
ROOT
HETATM    1  C   UNL     1     -12.989  14.200  71.696  1.00  0.00    -0.347 C  
HETATM    2  N   UNL     1     -12.350  13.459  70.637  1.00  0.00    -0.360 N  
HETATM    3  C   UNL     1     -11.820  14.091  69.534  1.00  0.00    -0.325 C  
HETATM    4  H   UNL     1     -12.289  12.444  70.706  1.00  0.00     0.000 HD 
HETATM    5  O   UNL     1     -11.812  15.310  69.404  1.00  0.00    -0.315 OA 
ENDROOT
BRANCH   3   6
HETATM    6  C   UNL     1     -11.262  13.228  68.452  1.00  0.00    -0.314 A  
HETATM    7  C   UNL     1     -10.289  12.270  68.780  1.00  0.00    -0.156 A  
HETATM    8  C   UNL     1      -9.683  11.493  67.782  1.00  0.00    -0.180 A  
HETATM    9  C   UNL     1     -10.036  11.672  66.438  1.00  0.00    -0.246 A  
HETATM   10  C   UNL     1     -11.044  12.584  66.115  1.00  0.00    -0.336 A  
HETATM   11  F   UNL     1     -12.569  14.244  66.735  1.00  0.00    -0.460 F  
HETATM   12  C   UNL     1     -11.639  13.356  67.114  1.00  0.00    -0.358 A  
BRANCH   9  13
HETATM   13  C   UNL     1      -9.285  10.940  65.380  1.00  0.00    -0.207 C  
HETATM   14  N   UNL     1      -8.019  10.654  65.530  1.00  0.00    -0.147 NA 
HETATM   15  N   UNL     1      -7.476  10.049  64.426  1.00  0.00    -0.140 NA 
HETATM   16  C   UNL     1      -6.175   9.630  64.270  1.00  0.00    -0.103 A  
HETATM   17  C   UNL     1     -10.030  10.584  64.101  1.00  0.00    -0.318 C  
HETATM   18  C   UNL     1      -6.107   9.164  62.975  1.00  0.00    -0.090 A  
HETATM   19  N   UNL     1      -7.323   9.229  62.355  1.00  0.00    -0.103 NA 
HETATM   20  N   UNL     1      -9.473  10.008  63.089  1.00  0.00    -0.269 NA 
HETATM   21  C   UNL     1      -8.148   9.750  63.238  1.00  0.00    -0.149 A  
BRANCH  16  22
HETATM   22  C   UNL     1      -5.148   9.645  65.342  1.00  0.00    -0.039 C  
BRANCH  22  23
HETATM   23  C   UNL     1      -5.521   8.854  66.574  1.00  0.00    -0.039 A  
HETATM   24  C   UNL     1      -6.261   6.776  67.582  1.00  0.00    -0.040 A  
HETATM   25  C   UNL     1      -5.971   7.539  66.447  1.00  0.00    -0.037 A  
HETATM   26  C   UNL     1      -6.148   7.296  68.861  1.00  0.00    -0.026 A  
HETATM   27  N   UNL     1      -6.454   6.516  69.915  1.00  0.00    -0.042 NA 
HETATM   28  C   UNL     1      -6.380   7.060  71.148  1.00  0.00    -0.041 A  
HETATM   29  C   UNL     1      -6.007   8.368  71.390  1.00  0.00    -0.039 A  
HETATM   30  C   UNL     1      -5.667   9.163  70.301  1.00  0.00    -0.034 A  
HETATM   31  C   UNL     1      -5.732   8.636  69.002  1.00  0.00    -0.039 A  
HETATM   32  C   UNL     1      -5.408   9.400  67.861  1.00  0.00    -0.037 A  
ENDBRANCH  22  23
ENDBRANCH  16  22
ENDBRANCH   9  13
ENDBRANCH   3   6
TORSDOF 4
ENDMDL
MODEL      175
REMARK 921   NORMALIZED FREE ENERGY PREDICTED BY IDOCK:   -4.43 KCAL/MOL
REMARK 922        TOTAL FREE ENERGY PREDICTED BY IDOCK:   -6.12 KCAL/MOL
REMARK 923 INTER-LIGAND FREE ENERGY PREDICTED BY IDOCK:   -6.51 KCAL/MOL
REMARK 924 INTRA-LIGAND FREE ENERGY PREDICTED BY IDOCK:    0.38 KCAL/MOL
REMARK 927      BINDING AFFINITY PREDICTED BY RF-SCORE:    0.00 PKD
ROOT
HETATM    1  C   UNL     1      -8.180   1.967  72.537  1.00  0.00    -0.054 C  
HETATM    2  N   UNL     1      -8.584   3.027  71.647  1.00  0.00    -0.068 N  
HETATM    3  C   UNL     1      -8.292   2.989  70.301  1.00  0.00    -0.048 C  
HETATM    4  H   UNL     1      -9.097   3.824  72.022  1.00  0.00     0.000 HD 
HETATM    5  O   UNL     1      -7.722   2.042  69.770  1.00  0.00    -0.043 OA 
ENDROOT
BRANCH   3   6
HETATM    6  C   UNL     1      -8.674   4.176  69.483  1.00  0.00    -0.124 A  
HETATM    7  C   UNL     1      -8.089   4.348  68.218  1.00  0.00    -0.082 A  
HETATM    8  C   UNL     1      -8.360   5.490  67.451  1.00  0.00    -0.103 A  
HETATM    9  C   UNL     1      -9.215   6.483  67.945  1.00  0.00    -0.110 A  
HETATM   10  C   UNL     1      -9.843   6.290  69.178  1.00  0.00    -0.168 A  
HETATM   11  F   UNL     1     -10.164   5.045  71.132  1.00  0.00    -0.253 F  
HETATM   12  C   UNL     1      -9.563   5.152  69.937  1.00  0.00    -0.174 A  
BRANCH   9  13
HETATM   13  C   UNL     1      -9.382   7.752  67.181  1.00  0.00    -0.150 C  
HETATM   14  N   UNL     1     -10.096   8.735  67.660  1.00  0.00    -0.201 NA 
HETATM   15  N   UNL     1     -10.201   9.788  66.788  1.00  0.00    -0.232 NA 
HETATM   16  C   UNL     1     -10.883  10.966  66.994  1.00  0.00    -0.266 A  
HETATM   17  C   UNL     1      -8.735   7.840  65.806  1.00  0.00    -0.133 C  
HETATM   18  C   UNL     1     -10.757  11.658  65.810  1.00  0.00    -0.280 A  
HETATM   19  N   UNL     1      -9.982  10.980  64.913  1.00  0.00    -0.265 NA 
HETATM   20  N   UNL     1      -8.861   8.858  65.023  1.00  0.00    -0.174 NA 
HETATM   21  C   UNL     1      -9.636   9.860  65.512  1.00  0.00    -0.277 A  
BRANCH  16  22
HETATM   22  C   UNL     1     -11.528  11.357  68.273  1.00  0.00    -0.369 C  
BRANCH  22  23
HETATM   23  C   UNL     1     -11.366  12.815  68.632  1.00  0.00    -0.333 A  
HETATM   24  C   UNL     1     -11.791  14.655  70.154  1.00  0.00    -0.365 A  
HETATM   25  C   UNL     1     -11.983  13.323  69.777  1.00  0.00    -0.391 A  
HETATM   26  C   UNL     1     -11.020  15.526  69.400  1.00  0.00    -0.276 A  
HETATM   27  N   UNL     1     -10.883  16.801  69.808  1.00  0.00    -0.265 NA 
HETATM   28  C   UNL     1     -10.164  17.640  69.032  1.00  0.00    -0.314 A  
HETATM   29  C   UNL     1      -9.561  17.265  67.847  1.00  0.00    -0.269 A  
HETATM   30  C   UNL     1      -9.683  15.940  67.443  1.00  0.00    -0.227 A  
HETATM   31  C   UNL     1     -10.423  15.036  68.220  1.00  0.00    -0.237 A  
HETATM   32  C   UNL     1     -10.588  13.683  67.852  1.00  0.00    -0.255 A  
ENDBRANCH  22  23
ENDBRANCH  16  22
ENDBRANCH   9  13
ENDBRANCH   3   6
TORSDOF 4
ENDMDL
MODEL      176
REMARK 921   NORMALIZED FREE ENERGY PREDICTED BY IDOCK:   -4.41 KCAL/MOL
REMARK 922        TOTAL FREE ENERGY PREDICTED BY IDOCK:   -6.11 KCAL/MOL
REMARK 923 INTER-LIGAND FREE ENERGY PREDICTED BY IDOCK:   -6.65 KCAL/MOL
REMARK 924 INTRA-LIGAND FREE ENERGY PREDICTED BY IDOCK:    0.55 KCAL/MOL
REMARK 927      BINDING AFFINITY PREDICTED BY RF-SCORE:    0.00 PKD
ROOT
HETATM    1  C   UNL     1     -14.189  15.587  71.505  1.00  0.00    -0.366 C  
HETATM    2  N   UNL     1     -13.499  14.598  70.714  1.00  0.00    -0.531 N  
HETATM    3  C   UNL     1     -12.574  14.956  69.758  1.00  0.00    -0.111 C  
HETATM    4  H   UNL     1     -13.700  13.610  70.866  1.00  0.00     0.000 HD 
HETATM    5  O   UNL     1     -12.245  16.120  69.552  1.00  0.00    -0.151 OA 
ENDROOT
BRANCH   3   6
HETATM    6  C   UNL     1     -11.984  13.863  68.932  1.00  0.00    -0.393 A  
HETATM    7  C   UNL     1     -11.645  12.649  69.552  1.00  0.00    -0.348 A  
HETATM    8  C   UNL     1     -11.016  11.626  68.829  1.00  0.00    -0.274 A  
HETATM    9  C   UNL     1     -10.708  11.807  67.475  1.00  0.00    -0.262 A  
HETATM   10  C   UNL     1     -11.095  12.990  66.841  1.00  0.00    -0.306 A  
HETATM   11  F   UNL     1     -12.024  15.135  66.915  1.00  0.00    -0.270 F  
HETATM   12  C   UNL     1     -11.717  14.005  67.570  1.00  0.00    -0.387 A  
BRANCH   9  13
HETATM   13  C   UNL     1      -9.917  10.767  66.758  1.00  0.00    -0.206 C  
HETATM   14  N   UNL     1      -9.783   9.566  67.252  1.00  0.00    -0.160 NA 
HETATM   15  N   UNL     1      -8.960   8.769  66.497  1.00  0.00    -0.139 NA 
HETATM   16  C   UNL     1      -8.619   7.461  66.750  1.00  0.00    -0.127 A  
HETATM   17  C   UNL     1      -9.230  11.170  65.461  1.00  0.00    -0.216 C  
HETATM   18  C   UNL     1      -7.719   7.133  65.759  1.00  0.00    -0.099 A  
HETATM   19  N   UNL     1      -7.541   8.166  64.883  1.00  0.00    -0.092 NA 
HETATM   20  N   UNL     1      -8.467  10.380  64.783  1.00  0.00    -0.175 NA 
HETATM   21  C   UNL     1      -8.302   9.145  65.323  1.00  0.00    -0.146 A  
BRANCH  16  22
HETATM   22  C   UNL     1      -9.198   6.630  67.836  1.00  0.00    -0.111 C  
BRANCH  22  23
HETATM   23  C   UNL     1      -8.921   7.144  69.229  1.00  0.00    -0.138 A  
HETATM   24  C   UNL     1      -8.868   8.984  70.808  1.00  0.00    -0.281 A  
HETATM   25  C   UNL     1      -9.061   8.505  69.510  1.00  0.00    -0.150 A  
HETATM   26  C   UNL     1      -8.500   8.148  71.850  1.00  0.00    -0.150 A  
HETATM   27  N   UNL     1      -8.316   8.671  73.076  1.00  0.00    -0.407 NA 
HETATM   28  C   UNL     1      -7.914   7.843  74.064  1.00  0.00    -0.213 A  
HETATM   29  C   UNL     1      -7.683   6.492  73.889  1.00  0.00    -0.089 A  
HETATM   30  C   UNL     1      -7.900   5.951  72.626  1.00  0.00    -0.101 A  
HETATM   31  C   UNL     1      -8.316   6.778  71.572  1.00  0.00    -0.115 A  
HETATM   32  C   UNL     1      -8.542   6.283  70.269  1.00  0.00    -0.138 A  
ENDBRANCH  22  23
ENDBRANCH  16  22
ENDBRANCH   9  13
ENDBRANCH   3   6
TORSDOF 4
ENDMDL
MODEL      177
REMARK 921   NORMALIZED FREE ENERGY PREDICTED BY IDOCK:   -4.34 KCAL/MOL
REMARK 922        TOTAL FREE ENERGY PREDICTED BY IDOCK:   -6.02 KCAL/MOL
REMARK 923 INTER-LIGAND FREE ENERGY PREDICTED BY IDOCK:   -5.89 KCAL/MOL
REMARK 924 INTRA-LIGAND FREE ENERGY PREDICTED BY IDOCK:   -0.13 KCAL/MOL
REMARK 927      BINDING AFFINITY PREDICTED BY RF-SCORE:    0.00 PKD
ROOT
HETATM    1  C   UNL     1      -6.724   6.112  70.872  1.00  0.00    -0.061 C  
HETATM    2  N   UNL     1      -6.746   7.516  70.548  1.00  0.00    -0.046 N  
HETATM    3  C   UNL     1      -7.705   8.050  69.716  1.00  0.00    -0.101 C  
HETATM    4  H   UNL     1      -6.034   8.130  70.945  1.00  0.00     0.000 HD 
HETATM    5  O   UNL     1      -8.619   7.384  69.241  1.00  0.00    -0.135 OA 
ENDROOT
BRANCH   3   6
HETATM    6  C   UNL     1      -7.586   9.496  69.371  1.00  0.00    -0.091 A  
HETATM    7  C   UNL     1      -8.160   9.960  68.176  1.00  0.00    -0.104 A  
HETATM    8  C   UNL     1      -8.004  11.295  67.777  1.00  0.00    -0.117 A  
HETATM    9  C   UNL     1      -7.261  12.184  68.565  1.00  0.00    -0.102 A  
HETATM   10  C   UNL     1      -6.736  11.740  69.782  1.00  0.00     0.015 A  
HETATM   11  F   UNL     1      -6.329  10.033  71.327  1.00  0.00    -0.062 F  
HETATM   12  C   UNL     1      -6.893  10.408  70.169  1.00  0.00    -0.153 A  
BRANCH   9  13
HETATM   13  C   UNL     1      -6.987  13.558  68.058  1.00  0.00    -0.133 C  
HETATM   14  N   UNL     1      -7.963  14.383  67.792  1.00  0.00    -0.143 NA 
HETATM   15  N   UNL     1      -7.527  15.571  67.264  1.00  0.00    -0.210 NA 
HETATM   16  C   UNL     1      -8.305  16.639  66.879  1.00  0.00    -0.210 A  
HETATM   17  C   UNL     1      -5.535  13.946  67.816  1.00  0.00    -0.030 C  
HETATM   18  C   UNL     1      -7.417  17.548  66.347  1.00  0.00    -0.299 A  
HETATM   19  N   UNL     1      -6.128  17.105  66.443  1.00  0.00    -0.249 NA 
HETATM   20  N   UNL     1      -5.174  15.083  67.320  1.00  0.00    -0.232 NA 
HETATM   21  C   UNL     1      -6.198  15.919  67.010  1.00  0.00     0.159 A  
BRANCH  16  22
HETATM   22  C   UNL     1      -9.771  16.738  67.093  1.00  0.00    -0.251 C  
BRANCH  22  23
HETATM   23  C   UNL     1     -10.560  15.570  66.552  1.00  0.00    -0.307 A  
HETATM   24  C   UNL     1     -12.536  14.165  66.627  1.00  0.00    -0.087 A  
HETATM   25  C   UNL     1     -11.766  15.205  67.155  1.00  0.00    -0.141 A  
HETATM   26  C   UNL     1     -12.126  13.440  65.519  1.00  0.00    -0.428 A  
HETATM   27  N   UNL     1     -12.906  12.442  65.065  1.00  0.00    -0.658 NA 
HETATM   28  C   UNL     1     -12.463  11.721  64.013  1.00  0.00    -0.214 A  
HETATM   29  C   UNL     1     -11.259  11.951  63.376  1.00  0.00    -0.463 A  
HETATM   30  C   UNL     1     -10.468  13.000  63.833  1.00  0.00    -0.241 A  
HETATM   31  C   UNL     1     -10.892  13.773  64.925  1.00  0.00    -0.398 A  
HETATM   32  C   UNL     1     -10.125  14.842  65.435  1.00  0.00    -0.400 A  
ENDBRANCH  22  23
ENDBRANCH  16  22
ENDBRANCH   9  13
ENDBRANCH   3   6
TORSDOF 4
ENDMDL
MODEL      178
REMARK 921   NORMALIZED FREE ENERGY PREDICTED BY IDOCK:   -4.30 KCAL/MOL
REMARK 922        TOTAL FREE ENERGY PREDICTED BY IDOCK:   -5.97 KCAL/MOL
REMARK 923 INTER-LIGAND FREE ENERGY PREDICTED BY IDOCK:   -5.32 KCAL/MOL
REMARK 924 INTRA-LIGAND FREE ENERGY PREDICTED BY IDOCK:   -0.64 KCAL/MOL
REMARK 927      BINDING AFFINITY PREDICTED BY RF-SCORE:    0.00 PKD
ROOT
HETATM    1  C   UNL     1      -9.317   2.393  65.111  1.00  0.00    -0.066 C  
HETATM    2  N   UNL     1      -9.012   3.584  65.865  1.00  0.00    -0.135 N  
HETATM    3  C   UNL     1      -9.871   4.660  65.894  1.00  0.00    -0.220 C  
HETATM    4  H   UNL     1      -8.138   3.631  66.389  1.00  0.00     0.000 HD 
HETATM    5  O   UNL     1     -10.960   4.658  65.329  1.00  0.00    -0.220 OA 
ENDROOT
BRANCH   3   6
HETATM    6  C   UNL     1      -9.421   5.877  66.629  1.00  0.00    -0.165 A  
HETATM    7  C   UNL     1      -8.290   6.570  66.168  1.00  0.00    -0.129 A  
HETATM    8  C   UNL     1      -7.788   7.673  66.874  1.00  0.00    -0.111 A  
HETATM    9  C   UNL     1      -8.405   8.091  68.060  1.00  0.00    -0.126 A  
HETATM   10  C   UNL     1      -9.564   7.439  68.491  1.00  0.00    -0.146 A  
HETATM   11  F   UNL     1     -11.144   5.730  68.272  1.00  0.00    -0.316 F  
HETATM   12  C   UNL     1     -10.054   6.340  67.783  1.00  0.00    -0.149 A  
BRANCH   9  13
HETATM   13  C   UNL     1      -7.778   9.173  68.870  1.00  0.00    -0.083 C  
HETATM   14  N   UNL     1      -7.456  10.317  68.329  1.00  0.00    -0.085 NA 
HETATM   15  N   UNL     1      -6.821  11.160  69.205  1.00  0.00    -0.099 NA 
HETATM   16  C   UNL     1      -6.357  12.428  68.942  1.00  0.00    -0.085 A  
HETATM   17  C   UNL     1      -7.482   8.879  70.334  1.00  0.00    -0.081 C  
HETATM   18  C   UNL     1      -5.735  12.824  70.106  1.00  0.00    -0.151 A  
HETATM   19  N   UNL     1      -5.851  11.877  71.083  1.00  0.00    -0.334 NA 
HETATM   20  N   UNL     1      -6.885   9.710  71.121  1.00  0.00    -0.317 NA 
HETATM   21  C   UNL     1      -6.519  10.881  70.541  1.00  0.00     0.064 A  
BRANCH  16  22
HETATM   22  C   UNL     1      -6.583  13.164  67.673  1.00  0.00    -0.165 C  
BRANCH  22  23
HETATM   23  C   UNL     1      -6.742  14.657  67.839  1.00  0.00    -0.175 A  
HETATM   24  C   UNL     1      -5.781  16.884  67.778  1.00  0.00    -0.144 A  
HETATM   25  C   UNL     1      -5.636  15.497  67.688  1.00  0.00    -0.101 A  
HETATM   26  C   UNL     1      -7.004  17.476  68.051  1.00  0.00    -0.195 A  
HETATM   27  N   UNL     1      -7.078  18.816  68.138  1.00  0.00    -0.244 NA 
HETATM   28  C   UNL     1      -8.271  19.366  68.449  1.00  0.00    -0.347 A  
HETATM   29  C   UNL     1      -9.418  18.632  68.682  1.00  0.00    -0.396 A  
HETATM   30  C   UNL     1      -9.343  17.248  68.566  1.00  0.00    -0.276 A  
HETATM   31  C   UNL     1      -8.122  16.637  68.245  1.00  0.00    -0.198 A  
HETATM   32  C   UNL     1      -7.987  15.238  68.123  1.00  0.00    -0.128 A  
ENDBRANCH  22  23
ENDBRANCH  16  22
ENDBRANCH   9  13
ENDBRANCH   3   6
TORSDOF 4
ENDMDL
MODEL      179
REMARK 921   NORMALIZED FREE ENERGY PREDICTED BY IDOCK:   -4.30 KCAL/MOL
REMARK 922        TOTAL FREE ENERGY PREDICTED BY IDOCK:   -5.96 KCAL/MOL
REMARK 923 INTER-LIGAND FREE ENERGY PREDICTED BY IDOCK:   -5.58 KCAL/MOL
REMARK 924 INTRA-LIGAND FREE ENERGY PREDICTED BY IDOCK:   -0.38 KCAL/MOL
REMARK 927      BINDING AFFINITY PREDICTED BY RF-SCORE:    0.00 PKD
ROOT
HETATM    1  C   UNL     1      -9.670   2.072  74.044  1.00  0.00    -0.084 C  
HETATM    2  N   UNL     1      -9.291   3.412  73.672  1.00  0.00    -0.092 N  
HETATM    3  C   UNL     1      -9.404   3.859  72.374  1.00  0.00    -0.119 C  
HETATM    4  H   UNL     1      -8.931   4.044  74.386  1.00  0.00     0.000 HD 
HETATM    5  O   UNL     1      -9.872   3.174  71.472  1.00  0.00    -0.164 OA 
ENDROOT
BRANCH   3   6
HETATM    6  C   UNL     1      -8.900   5.231  72.076  1.00  0.00    -0.137 A  
HETATM    7  C   UNL     1      -9.765   6.157  71.469  1.00  0.00    -0.182 A  
HETATM    8  C   UNL     1      -9.308   7.430  71.101  1.00  0.00    -0.156 A  
HETATM    9  C   UNL     1      -7.974   7.793  71.326  1.00  0.00    -0.094 A  
HETATM   10  C   UNL     1      -7.126   6.896  71.980  1.00  0.00    -0.074 A  
HETATM   11  F   UNL     1      -6.713   4.797  72.925  1.00  0.00    -0.056 F  
HETATM   12  C   UNL     1      -7.588   5.628  72.339  1.00  0.00    -0.101 A  
BRANCH   9  13
HETATM   13  C   UNL     1      -7.470   9.094  70.803  1.00  0.00    -0.122 C  
HETATM   14  N   UNL     1      -8.175   9.796  69.956  1.00  0.00    -0.183 NA 
HETATM   15  N   UNL     1      -7.522  10.922  69.527  1.00  0.00    -0.117 NA 
HETATM   16  C   UNL     1      -7.992  11.861  68.637  1.00  0.00    -0.101 A  
HETATM   17  C   UNL     1      -6.088   9.549  71.251  1.00  0.00    -0.057 C  
HETATM   18  C   UNL     1      -6.948  12.745  68.473  1.00  0.00    -0.095 A  
HETATM   19  N   UNL     1      -5.885  12.418  69.266  1.00  0.00    -0.078 NA 
HETATM   20  N   UNL     1      -5.517  10.623  70.819  1.00  0.00    -0.092 NA 
HETATM   21  C   UNL     1      -6.240  11.327  69.910  1.00  0.00    -0.137 A  
BRANCH  16  22
HETATM   22  C   UNL     1      -9.367  11.882  68.078  1.00  0.00    -0.193 C  
BRANCH  22  23
HETATM   23  C   UNL     1      -9.688  13.109  67.257  1.00  0.00    -0.230 A  
HETATM   24  C   UNL     1     -10.327  14.100  65.138  1.00  0.00    -0.429 A  
HETATM   25  C   UNL     1      -9.969  12.982  65.895  1.00  0.00    -0.270 A  
HETATM   26  C   UNL     1     -10.384  15.370  65.690  1.00  0.00    -0.372 A  
HETATM   27  N   UNL     1     -10.724  16.410  64.906  1.00  0.00    -0.705 NA 
HETATM   28  C   UNL     1     -10.728  17.642  65.457  1.00  0.00    -0.037 A  
HETATM   29  C   UNL     1     -10.407  17.897  66.776  1.00  0.00    -0.357 A  
HETATM   30  C   UNL     1     -10.082  16.816  67.589  1.00  0.00    -0.275 A  
HETATM   31  C   UNL     1     -10.064  15.518  67.055  1.00  0.00    -0.254 A  
HETATM   32  C   UNL     1      -9.733  14.388  67.832  1.00  0.00    -0.223 A  
ENDBRANCH  22  23
ENDBRANCH  16  22
ENDBRANCH   9  13
ENDBRANCH   3   6
TORSDOF 4
ENDMDL
MODEL      180
REMARK 921   NORMALIZED FREE ENERGY PREDICTED BY IDOCK:   -4.21 KCAL/MOL
REMARK 922        TOTAL FREE ENERGY PREDICTED BY IDOCK:   -5.85 KCAL/MOL
REMARK 923 INTER-LIGAND FREE ENERGY PREDICTED BY IDOCK:   -5.47 KCAL/MOL
REMARK 924 INTRA-LIGAND FREE ENERGY PREDICTED BY IDOCK:   -0.38 KCAL/MOL
REMARK 927      BINDING AFFINITY PREDICTED BY RF-SCORE:    0.00 PKD
ROOT
HETATM    1  C   UNL     1     -12.083  11.989  63.262  1.00  0.00    -0.403 C  
HETATM    2  N   UNL     1     -11.506  11.612  64.528  1.00  0.00    -0.248 N  
HETATM    3  C   UNL     1     -10.611  12.428  65.185  1.00  0.00    -0.292 C  
HETATM    4  H   UNL     1     -11.766  10.720  64.948  1.00  0.00     0.000 HD 
HETATM    5  O   UNL     1     -10.289  13.535  64.766  1.00  0.00    -0.388 OA 
ENDROOT
BRANCH   3   6
HETATM    6  C   UNL     1     -10.003  11.906  66.443  1.00  0.00    -0.237 A  
HETATM    7  C   UNL     1      -9.157  12.745  67.188  1.00  0.00    -0.219 A  
HETATM    8  C   UNL     1      -8.504  12.268  68.333  1.00  0.00    -0.138 A  
HETATM    9  C   UNL     1      -8.680  10.940  68.744  1.00  0.00    -0.158 A  
HETATM   10  C   UNL     1      -9.564  10.121  68.038  1.00  0.00    -0.160 A  
HETATM   11  F   UNL     1     -11.010   9.754  66.237  1.00  0.00    -0.084 F  
HETATM   12  C   UNL     1     -10.207  10.603  66.896  1.00  0.00    -0.223 A  
BRANCH   9  13
HETATM   13  C   UNL     1      -7.871  10.411  69.878  1.00  0.00    -0.034 C  
HETATM   14  N   UNL     1      -8.379   9.555  70.723  1.00  0.00    -0.278 NA 
HETATM   15  N   UNL     1      -7.518   9.239  71.742  1.00  0.00    -0.301 NA 
HETATM   16  C   UNL     1      -7.755   8.374  72.786  1.00  0.00    -0.071 A  
HETATM   17  C   UNL     1      -6.455  10.943  70.045  1.00  0.00    -0.151 C  
HETATM   18  C   UNL     1      -6.629   8.457  73.576  1.00  0.00    -0.105 A  
HETATM   19  N   UNL     1      -5.695   9.291  73.030  1.00  0.00    -0.274 NA 
HETATM   20  N   UNL     1      -5.679  10.610  71.023  1.00  0.00    -0.267 NA 
HETATM   21  C   UNL     1      -6.228   9.749  71.918  1.00  0.00     0.358 A  
BRANCH  16  22
HETATM   22  C   UNL     1      -8.961   7.518  72.917  1.00  0.00    -0.206 C  
BRANCH  22  23
HETATM   23  C   UNL     1      -9.333   6.768  71.660  1.00  0.00    -0.151 A  
HETATM   24  C   UNL     1     -10.939   6.288  69.907  1.00  0.00    -0.435 A  
HETATM   25  C   UNL     1     -10.603   6.928  71.103  1.00  0.00    -0.246 A  
HETATM   26  C   UNL     1     -10.050   5.451  69.250  1.00  0.00    -0.231 A  
HETATM   27  N   UNL     1     -10.436   4.852  68.108  1.00  0.00     0.039 NA 
HETATM   28  C   UNL     1      -9.569   4.007  67.512  1.00  0.00    -0.168 A  
HETATM   29  C   UNL     1      -8.310   3.723  68.005  1.00  0.00    -0.101 A  
HETATM   30  C   UNL     1      -7.905   4.364  69.171  1.00  0.00    -0.061 A  
HETATM   31  C   UNL     1      -8.777   5.249  69.823  1.00  0.00    -0.116 A  
HETATM   32  C   UNL     1      -8.422   5.919  71.013  1.00  0.00    -0.124 A  
ENDBRANCH  22  23
ENDBRANCH  16  22
ENDBRANCH   9  13
ENDBRANCH   3   6
TORSDOF 4
ENDMDL
MODEL      181
REMARK 921   NORMALIZED FREE ENERGY PREDICTED BY IDOCK:   -4.21 KCAL/MOL
REMARK 922        TOTAL FREE ENERGY PREDICTED BY IDOCK:   -5.85 KCAL/MOL
REMARK 923 INTER-LIGAND FREE ENERGY PREDICTED BY IDOCK:   -5.41 KCAL/MOL
REMARK 924 INTRA-LIGAND FREE ENERGY PREDICTED BY IDOCK:   -0.44 KCAL/MOL
REMARK 927      BINDING AFFINITY PREDICTED BY RF-SCORE:    0.00 PKD
ROOT
HETATM    1  C   UNL     1      -7.270  18.390  66.774  1.00  0.00    -0.208 C  
HETATM    2  N   UNL     1      -7.159  16.966  66.972  1.00  0.00    -0.178 N  
HETATM    3  C   UNL     1      -8.039  16.279  67.779  1.00  0.00    -0.149 C  
HETATM    4  H   UNL     1      -6.411  16.455  66.503  1.00  0.00     0.000 HD 
HETATM    5  O   UNL     1      -8.990  16.816  68.336  1.00  0.00    -0.217 OA 
ENDROOT
BRANCH   3   6
HETATM    6  C   UNL     1      -7.783  14.824  67.989  1.00  0.00    -0.130 A  
HETATM    7  C   UNL     1      -6.577  14.425  68.587  1.00  0.00    -0.088 A  
HETATM    8  C   UNL     1      -6.264  13.066  68.732  1.00  0.00    -0.079 A  
HETATM    9  C   UNL     1      -7.150  12.085  68.269  1.00  0.00    -0.086 A  
HETATM   10  C   UNL     1      -8.376  12.478  67.724  1.00  0.00    -0.170 A  
HETATM   11  F   UNL     1      -9.851  14.146  67.011  1.00  0.00    -0.237 F  
HETATM   12  C   UNL     1      -8.677  13.833  67.581  1.00  0.00    -0.185 A  
BRANCH   9  13
HETATM   13  C   UNL     1      -6.741  10.653  68.302  1.00  0.00    -0.063 C  
HETATM   14  N   UNL     1      -7.416   9.746  67.649  1.00  0.00    -0.090 NA 
HETATM   15  N   UNL     1      -6.940   8.477  67.857  1.00  0.00    -0.073 NA 
HETATM   16  C   UNL     1      -7.433   7.311  67.316  1.00  0.00    -0.099 A  
HETATM   17  C   UNL     1      -5.543  10.280  69.164  1.00  0.00    -0.037 C  
HETATM   18  C   UNL     1      -6.675   6.311  67.885  1.00  0.00    -0.064 A  
HETATM   19  N   UNL     1      -5.707   6.820  68.704  1.00  0.00    -0.017 NA 
HETATM   20  N   UNL     1      -5.131   9.067  69.325  1.00  0.00    -0.035 NA 
HETATM   21  C   UNL     1      -5.861   8.126  68.673  1.00  0.00    -0.040 A  
BRANCH  16  22
HETATM   22  C   UNL     1      -8.505   7.241  66.292  1.00  0.00    -0.135 C  
BRANCH  22  23
HETATM   23  C   UNL     1      -9.391   8.463  66.233  1.00  0.00    -0.283 A  
HETATM   24  C   UNL     1     -11.063   9.887  67.263  1.00  0.00    -0.063 A  
HETATM   25  C   UNL     1     -10.282   8.728  67.275  1.00  0.00    -0.332 A  
HETATM   26  C   UNL     1     -11.013  10.792  66.214  1.00  0.00    -0.003 A  
HETATM   27  N   UNL     1     -11.799  11.883  66.253  1.00  0.00    -0.528 NA 
HETATM   28  C   UNL     1     -11.766  12.726  65.199  1.00  0.00    -0.360 A  
HETATM   29  C   UNL     1     -10.972  12.533  64.085  1.00  0.00    -0.425 A  
HETATM   30  C   UNL     1     -10.142  11.417  64.061  1.00  0.00    -0.369 A  
HETATM   31  C   UNL     1     -10.147  10.516  65.136  1.00  0.00    -0.383 A  
HETATM   32  C   UNL     1      -9.333   9.364  65.159  1.00  0.00    -0.288 A  
ENDBRANCH  22  23
ENDBRANCH  16  22
ENDBRANCH   9  13
ENDBRANCH   3   6
TORSDOF 4
ENDMDL
MODEL      182
REMARK 921   NORMALIZED FREE ENERGY PREDICTED BY IDOCK:   -4.19 KCAL/MOL
REMARK 922        TOTAL FREE ENERGY PREDICTED BY IDOCK:   -5.83 KCAL/MOL
REMARK 923 INTER-LIGAND FREE ENERGY PREDICTED BY IDOCK:   -5.13 KCAL/MOL
REMARK 924 INTRA-LIGAND FREE ENERGY PREDICTED BY IDOCK:   -0.70 KCAL/MOL
REMARK 927      BINDING AFFINITY PREDICTED BY RF-SCORE:    0.00 PKD
ROOT
HETATM    1  C   UNL     1      -6.130  14.226  70.492  1.00  0.00    -0.180 C  
HETATM    2  N   UNL     1      -6.321  12.927  69.897  1.00  0.00    -0.314 N  
HETATM    3  C   UNL     1      -5.871  11.779  70.511  1.00  0.00    -0.125 C  
HETATM    4  H   UNL     1      -6.801  12.856  69.000  1.00  0.00     0.000 HD 
HETATM    5  O   UNL     1      -5.329  11.781  71.612  1.00  0.00    -0.354 OA 
ENDROOT
BRANCH   3   6
HETATM    6  C   UNL     1      -6.038  10.495  69.770  1.00  0.00    -0.065 A  
HETATM    7  C   UNL     1      -5.306  10.292  68.588  1.00  0.00    -0.038 A  
HETATM    8  C   UNL     1      -5.492   9.133  67.821  1.00  0.00    -0.034 A  
HETATM    9  C   UNL     1      -6.421   8.164  68.221  1.00  0.00    -0.055 A  
HETATM   10  C   UNL     1      -7.109   8.336  69.425  1.00  0.00    -0.055 A  
HETATM   11  F   UNL     1      -7.642   9.622  71.305  1.00  0.00    -0.070 F  
HETATM   12  C   UNL     1      -6.920   9.495  70.181  1.00  0.00    -0.092 A  
BRANCH   9  13
HETATM   13  C   UNL     1      -6.707   7.009  67.324  1.00  0.00    -0.067 C  
HETATM   14  N   UNL     1      -7.925   6.566  67.167  1.00  0.00    -0.111 NA 
HETATM   15  N   UNL     1      -7.987   5.453  66.369  1.00  0.00    -0.104 NA 
HETATM   16  C   UNL     1      -9.117   4.751  66.016  1.00  0.00    -0.133 A  
HETATM   17  C   UNL     1      -5.526   6.336  66.639  1.00  0.00    -0.013 C  
HETATM   18  C   UNL     1      -8.654   3.685  65.277  1.00  0.00    -0.114 A  
HETATM   19  N   UNL     1      -7.299   3.737  65.118  1.00  0.00    -0.067 NA 
HETATM   20  N   UNL     1      -5.637   5.290  65.891  1.00  0.00    -0.013 NA 
HETATM   21  C   UNL     1      -6.902   4.812  65.765  1.00  0.00    -0.061 A  
BRANCH  16  22
HETATM   22  C   UNL     1     -10.506   5.165  66.342  1.00  0.00    -0.356 C  
BRANCH  22  23
HETATM   23  C   UNL     1     -10.631   5.985  67.604  1.00  0.00    -0.336 A  
HETATM   24  C   UNL     1     -10.795   6.091  70.022  1.00  0.00    -0.429 A  
HETATM   25  C   UNL     1     -10.741   5.346  68.841  1.00  0.00    -0.129 A  
HETATM   26  C   UNL     1     -10.779   7.477  70.014  1.00  0.00    -0.240 A  
HETATM   27  N   UNL     1     -10.848   8.140  71.183  1.00  0.00    -0.228 NA 
HETATM   28  C   UNL     1     -10.876   9.489  71.146  1.00  0.00    -0.355 A  
HETATM   29  C   UNL     1     -10.836  10.227  69.978  1.00  0.00    -0.364 A  
HETATM   30  C   UNL     1     -10.739   9.539  68.774  1.00  0.00    -0.218 A  
HETATM   31  C   UNL     1     -10.709   8.136  68.769  1.00  0.00    -0.074 A  
HETATM   32  C   UNL     1     -10.621   7.387  67.576  1.00  0.00    -0.340 A  
ENDBRANCH  22  23
ENDBRANCH  16  22
ENDBRANCH   9  13
ENDBRANCH   3   6
TORSDOF 4
ENDMDL
MODEL      183
REMARK 921   NORMALIZED FREE ENERGY PREDICTED BY IDOCK:   -4.18 KCAL/MOL
REMARK 922        TOTAL FREE ENERGY PREDICTED BY IDOCK:   -5.82 KCAL/MOL
REMARK 923 INTER-LIGAND FREE ENERGY PREDICTED BY IDOCK:   -5.33 KCAL/MOL
REMARK 924 INTRA-LIGAND FREE ENERGY PREDICTED BY IDOCK:   -0.49 KCAL/MOL
REMARK 927      BINDING AFFINITY PREDICTED BY RF-SCORE:    0.00 PKD
ROOT
HETATM    1  C   UNL     1     -13.367  14.694  71.288  1.00  0.00    -0.383 C  
HETATM    2  N   UNL     1     -12.826  13.627  70.484  1.00  0.00    -0.166 N  
HETATM    3  C   UNL     1     -11.911  13.871  69.483  1.00  0.00    -0.343 C  
HETATM    4  H   UNL     1     -13.126  12.669  70.660  1.00  0.00     0.000 HD 
HETATM    5  O   UNL     1     -11.467  14.989  69.245  1.00  0.00    -0.272 OA 
ENDROOT
BRANCH   3   6
HETATM    6  C   UNL     1     -11.482  12.711  68.650  1.00  0.00    -0.347 A  
HETATM    7  C   UNL     1     -11.315  11.458  69.262  1.00  0.00    -0.355 A  
HETATM    8  C   UNL     1     -10.838  10.361  68.531  1.00  0.00    -0.278 A  
HETATM    9  C   UNL     1     -10.510  10.505  67.177  1.00  0.00    -0.302 A  
HETATM   10  C   UNL     1     -10.727  11.735  66.551  1.00  0.00    -0.304 A  
HETATM   11  F   UNL     1     -11.346  13.988  66.639  1.00  0.00    -0.303 F  
HETATM   12  C   UNL     1     -11.199  12.823  67.288  1.00  0.00    -0.295 A  
BRANCH   9  13
HETATM   13  C   UNL     1      -9.873   9.369  66.453  1.00  0.00    -0.269 C  
HETATM   14  N   UNL     1      -9.702   8.212  67.035  1.00  0.00    -0.192 NA 
HETATM   15  N   UNL     1      -9.033   7.313  66.245  1.00  0.00    -0.158 NA 
HETATM   16  C   UNL     1      -8.697   6.019  66.569  1.00  0.00    -0.128 A  
HETATM   17  C   UNL     1      -9.385   9.620  65.033  1.00  0.00    -0.255 C  
HETATM   18  C   UNL     1      -7.974   5.561  65.489  1.00  0.00    -0.111 A  
HETATM   19  N   UNL     1      -7.902   6.501  64.500  1.00  0.00    -0.109 NA 
HETATM   20  N   UNL     1      -8.762   8.737  64.327  1.00  0.00    -0.076 NA 
HETATM   21  C   UNL     1      -8.554   7.550  64.953  1.00  0.00     0.137 A  
BRANCH  16  22
HETATM   22  C   UNL     1      -9.126   5.318  67.806  1.00  0.00    -0.115 C  
BRANCH  22  23
HETATM   23  C   UNL     1      -8.409   5.768  69.057  1.00  0.00    -0.101 A  
HETATM   24  C   UNL     1      -7.953   5.488  71.423  1.00  0.00    -0.112 A  
HETATM   25  C   UNL     1      -8.655   5.123  70.271  1.00  0.00    -0.121 A  
HETATM   26  C   UNL     1      -7.021   6.513  71.418  1.00  0.00    -0.075 A  
HETATM   27  N   UNL     1      -6.386   6.827  72.562  1.00  0.00    -0.053 NA 
HETATM   28  C   UNL     1      -5.517   7.859  72.541  1.00  0.00    -0.036 A  
HETATM   29  C   UNL     1      -5.240   8.609  71.414  1.00  0.00    -0.034 A  
HETATM   30  C   UNL     1      -5.879   8.265  70.228  1.00  0.00    -0.028 A  
HETATM   31  C   UNL     1      -6.791   7.199  70.207  1.00  0.00    -0.056 A  
HETATM   32  C   UNL     1      -7.474   6.813  69.034  1.00  0.00    -0.096 A  
ENDBRANCH  22  23
ENDBRANCH  16  22
ENDBRANCH   9  13
ENDBRANCH   3   6
TORSDOF 4
ENDMDL
MODEL      184
REMARK 921   NORMALIZED FREE ENERGY PREDICTED BY IDOCK:   -4.08 KCAL/MOL
REMARK 922        TOTAL FREE ENERGY PREDICTED BY IDOCK:   -5.70 KCAL/MOL
REMARK 923 INTER-LIGAND FREE ENERGY PREDICTED BY IDOCK:   -5.04 KCAL/MOL
REMARK 924 INTRA-LIGAND FREE ENERGY PREDICTED BY IDOCK:   -0.66 KCAL/MOL
REMARK 927      BINDING AFFINITY PREDICTED BY RF-SCORE:    0.00 PKD
ROOT
HETATM    1  C   UNL     1      -5.337   8.567  62.336  1.00  0.00    -0.071 C  
HETATM    2  N   UNL     1      -6.115   8.455  63.544  1.00  0.00    -0.072 N  
HETATM    3  C   UNL     1      -7.295   7.745  63.579  1.00  0.00    -0.097 C  
HETATM    4  H   UNL     1      -5.785   8.912  64.394  1.00  0.00     0.000 HD 
HETATM    5  O   UNL     1      -7.730   7.129  62.611  1.00  0.00    -0.110 OA 
ENDROOT
BRANCH   3   6
HETATM    6  C   UNL     1      -8.070   7.766  64.853  1.00  0.00    -0.136 A  
HETATM    7  C   UNL     1      -8.785   8.926  65.196  1.00  0.00    -0.213 A  
HETATM    8  C   UNL     1      -9.462   9.015  66.420  1.00  0.00    -0.288 A  
HETATM    9  C   UNL     1      -9.426   7.946  67.325  1.00  0.00    -0.188 A  
HETATM   10  C   UNL     1      -8.764   6.770  66.963  1.00  0.00    -0.114 A  
HETATM   11  F   UNL     1      -7.436   5.552  65.474  1.00  0.00    -0.069 F  
HETATM   12  C   UNL     1      -8.089   6.692  65.744  1.00  0.00    -0.122 A  
BRANCH   9  13
HETATM   13  C   UNL     1     -10.031   8.110  68.677  1.00  0.00    -0.190 C  
HETATM   14  N   UNL     1     -10.833   9.107  68.937  1.00  0.00    -0.131 NA 
HETATM   15  N   UNL     1     -11.232   9.141  70.249  1.00  0.00    -0.240 NA 
HETATM   16  C   UNL     1     -12.069  10.062  70.834  1.00  0.00    -0.355 A  
HETATM   17  C   UNL     1      -9.642   7.106  69.752  1.00  0.00    -0.155 C  
HETATM   18  C   UNL     1     -12.097   9.716  72.168  1.00  0.00    -0.062 A  
HETATM   19  N   UNL     1     -11.360   8.592  72.409  1.00  0.00    -0.368 NA 
HETATM   20  N   UNL     1     -10.049   7.178  70.975  1.00  0.00    -0.192 NA 
HETATM   21  C   UNL     1     -10.852   8.239  71.247  1.00  0.00    -0.237 A  
BRANCH  16  22
HETATM   22  C   UNL     1     -12.801  11.125  70.101  1.00  0.00    -0.067 C  
BRANCH  22  23
HETATM   23  C   UNL     1     -11.982  11.834  69.049  1.00  0.00    -0.341 A  
HETATM   24  C   UNL     1     -11.525  12.295  66.712  1.00  0.00    -0.421 A  
HETATM   25  C   UNL     1     -12.233  11.600  67.695  1.00  0.00     0.460 A  
HETATM   26  C   UNL     1     -10.532  13.208  67.032  1.00  0.00    -0.248 A  
HETATM   27  N   UNL     1      -9.876  13.837  66.040  1.00  0.00    -0.298 NA 
HETATM   28  C   UNL     1      -8.883  14.687  66.377  1.00  0.00    -0.078 A  
HETATM   29  C   UNL     1      -8.504  14.949  67.679  1.00  0.00    -0.176 A  
HETATM   30  C   UNL     1      -9.202  14.317  68.702  1.00  0.00    -0.167 A  
HETATM   31  C   UNL     1     -10.241  13.424  68.395  1.00  0.00    -0.251 A  
HETATM   32  C   UNL     1     -10.976  12.749  69.392  1.00  0.00    -0.041 A  
ENDBRANCH  22  23
ENDBRANCH  16  22
ENDBRANCH   9  13
ENDBRANCH   3   6
TORSDOF 4
ENDMDL
MODEL      185
REMARK 921   NORMALIZED FREE ENERGY PREDICTED BY IDOCK:   -4.08 KCAL/MOL
REMARK 922        TOTAL FREE ENERGY PREDICTED BY IDOCK:   -5.69 KCAL/MOL
REMARK 923 INTER-LIGAND FREE ENERGY PREDICTED BY IDOCK:   -5.59 KCAL/MOL
REMARK 924 INTRA-LIGAND FREE ENERGY PREDICTED BY IDOCK:   -0.10 KCAL/MOL
REMARK 927      BINDING AFFINITY PREDICTED BY RF-SCORE:    0.00 PKD
ROOT
HETATM    1  C   UNL     1      -5.617   5.544  69.624  1.00  0.00    -0.008 C  
HETATM    2  N   UNL     1      -5.857   6.961  69.512  1.00  0.00    -0.015 N  
HETATM    3  C   UNL     1      -6.669   7.480  68.527  1.00  0.00    -0.057 C  
HETATM    4  H   UNL     1      -5.416   7.596  70.177  1.00  0.00     0.000 HD 
HETATM    5  O   UNL     1      -7.271   6.777  67.722  1.00  0.00    -0.085 OA 
ENDROOT
BRANCH   3   6
HETATM    6  C   UNL     1      -6.780   8.965  68.442  1.00  0.00    -0.060 A  
HETATM    7  C   UNL     1      -7.658   9.528  67.500  1.00  0.00    -0.095 A  
HETATM    8  C   UNL     1      -7.734  10.918  67.334  1.00  0.00    -0.108 A  
HETATM    9  C   UNL     1      -6.925  11.765  68.101  1.00  0.00    -0.076 A  
HETATM   10  C   UNL     1      -6.092  11.212  69.078  1.00  0.00    -0.044 A  
HETATM   11  F   UNL     1      -5.170   9.354  70.158  1.00  0.00    -0.028 F  
HETATM   12  C   UNL     1      -6.020   9.826  69.233  1.00  0.00    -0.033 A  
BRANCH   9  13
HETATM   13  C   UNL     1      -6.916  13.228  67.815  1.00  0.00    -0.153 C  
HETATM   14  N   UNL     1      -7.937  13.806  67.242  1.00  0.00    -0.154 NA 
HETATM   15  N   UNL     1      -7.721  15.136  66.988  1.00  0.00    -0.183 NA 
HETATM   16  C   UNL     1      -8.597  16.017  66.395  1.00  0.00    -0.334 A  
HETATM   17  C   UNL     1      -5.658  14.010  68.165  1.00  0.00    -0.123 C  
HETATM   18  C   UNL     1      -7.894  17.198  66.293  1.00  0.00    -0.316 A  
HETATM   19  N   UNL     1      -6.651  17.090  66.848  1.00  0.00    -0.195 NA 
HETATM   20  N   UNL     1      -5.504  15.266  67.909  1.00  0.00    -0.167 NA 
HETATM   21  C   UNL     1      -6.556  15.851  67.279  1.00  0.00    -0.165 A  
BRANCH  16  22
HETATM   22  C   UNL     1     -10.003  15.700  66.040  1.00  0.00    -0.359 C  
BRANCH  22  23
HETATM   23  C   UNL     1     -10.694  14.765  67.004  1.00  0.00    -0.300 A  
HETATM   24  C   UNL     1     -11.595  12.570  67.508  1.00  0.00    -0.424 A  
HETATM   25  C   UNL     1     -11.012  13.465  66.606  1.00  0.00    -0.297 A  
HETATM   26  C   UNL     1     -11.910  12.940  68.806  1.00  0.00    -0.315 A  
HETATM   27  N   UNL     1     -12.482  12.037  69.624  1.00  0.00     0.015 NA 
HETATM   28  C   UNL     1     -12.821  12.435  70.868  1.00  0.00    -0.090 A  
HETATM   29  C   UNL     1     -12.612  13.713  71.350  1.00  0.00    -0.415 A  
HETATM   30  C   UNL     1     -11.997  14.635  70.511  1.00  0.00    -0.376 A  
HETATM   31  C   UNL     1     -11.631  14.262  69.209  1.00  0.00    -0.350 A  
HETATM   32  C   UNL     1     -11.012  15.159  68.312  1.00  0.00    -0.276 A  
ENDBRANCH  22  23
ENDBRANCH  16  22
ENDBRANCH   9  13
ENDBRANCH   3   6
TORSDOF 4
ENDMDL
MODEL      186
REMARK 921   NORMALIZED FREE ENERGY PREDICTED BY IDOCK:   -3.83 KCAL/MOL
REMARK 922        TOTAL FREE ENERGY PREDICTED BY IDOCK:   -5.39 KCAL/MOL
REMARK 923 INTER-LIGAND FREE ENERGY PREDICTED BY IDOCK:   -4.94 KCAL/MOL
REMARK 924 INTRA-LIGAND FREE ENERGY PREDICTED BY IDOCK:   -0.45 KCAL/MOL
REMARK 927      BINDING AFFINITY PREDICTED BY RF-SCORE:    0.00 PKD
ROOT
HETATM    1  C   UNL     1     -11.117  19.800  67.220  1.00  0.00    -0.063 C  
HETATM    2  N   UNL     1     -10.356  18.631  67.586  1.00  0.00    -0.391 N  
HETATM    3  C   UNL     1      -9.003  18.699  67.832  1.00  0.00    -0.287 C  
HETATM    4  H   UNL     1     -10.831  17.732  67.663  1.00  0.00     0.000 HD 
HETATM    5  O   UNL     1      -8.373  19.751  67.805  1.00  0.00    -0.296 OA 
ENDROOT
BRANCH   3   6
HETATM    6  C   UNL     1      -8.292  17.418  68.113  1.00  0.00    -0.240 A  
HETATM    7  C   UNL     1      -8.996  16.208  67.993  1.00  0.00    -0.185 A  
HETATM    8  C   UNL     1      -8.388  14.989  68.324  1.00  0.00    -0.145 A  
HETATM    9  C   UNL     1      -7.068  14.964  68.790  1.00  0.00    -0.115 A  
HETATM   10  C   UNL     1      -6.346  16.159  68.857  1.00  0.00    -0.129 A  
HETATM   11  F   UNL     1      -6.229  18.485  68.655  1.00  0.00    -0.191 F  
HETATM   12  C   UNL     1      -6.961  17.368  68.529  1.00  0.00    -0.215 A  
BRANCH   9  13
HETATM   13  C   UNL     1      -6.484  13.679  69.269  1.00  0.00    -0.110 C  
HETATM   14  N   UNL     1      -6.551  12.598  68.539  1.00  0.00    -0.075 NA 
HETATM   15  N   UNL     1      -6.032  11.497  69.172  1.00  0.00    -0.052 NA 
HETATM   16  C   UNL     1      -5.957  10.217  68.673  1.00  0.00    -0.044 A  
HETATM   17  C   UNL     1      -5.856  13.661  70.655  1.00  0.00    -0.179 C  
HETATM   18  C   UNL     1      -5.434   9.467  69.704  1.00  0.00    -0.034 A  
HETATM   19  N   UNL     1      -5.136  10.244  70.787  1.00  0.00    -0.050 NA 
HETATM   20  N   UNL     1      -5.376  12.596  71.206  1.00  0.00    -0.307 NA 
HETATM   21  C   UNL     1      -5.484  11.469  70.457  1.00  0.00    -0.139 A  
BRANCH  16  22
HETATM   22  C   UNL     1      -6.315   9.828  67.286  1.00  0.00    -0.068 C  
BRANCH  22  23
HETATM   23  C   UNL     1      -7.505   8.902  67.186  1.00  0.00    -0.084 A  
HETATM   24  C   UNL     1      -9.889   8.585  66.870  1.00  0.00    -0.310 A  
HETATM   25  C   UNL     1      -8.788   9.431  67.025  1.00  0.00    -0.139 A  
HETATM   26  C   UNL     1      -9.762   7.205  66.903  1.00  0.00    -0.186 A  
HETATM   27  N   UNL     1     -10.862   6.442  66.761  1.00  0.00    -0.328 NA 
HETATM   28  C   UNL     1     -10.718   5.103  66.842  1.00  0.00    -0.071 A  
HETATM   29  C   UNL     1      -9.510   4.471  67.061  1.00  0.00    -0.186 A  
HETATM   30  C   UNL     1      -8.372   5.261  67.182  1.00  0.00    -0.107 A  
HETATM   31  C   UNL     1      -8.478   6.658  67.105  1.00  0.00    -0.113 A  
HETATM   32  C   UNL     1      -7.358   7.508  67.229  1.00  0.00    -0.098 A  
ENDBRANCH  22  23
ENDBRANCH  16  22
ENDBRANCH   9  13
ENDBRANCH   3   6
TORSDOF 4
ENDMDL
MODEL      187
REMARK 921   NORMALIZED FREE ENERGY PREDICTED BY IDOCK:   -3.80 KCAL/MOL
REMARK 922        TOTAL FREE ENERGY PREDICTED BY IDOCK:   -5.35 KCAL/MOL
REMARK 923 INTER-LIGAND FREE ENERGY PREDICTED BY IDOCK:   -5.32 KCAL/MOL
REMARK 924 INTRA-LIGAND FREE ENERGY PREDICTED BY IDOCK:   -0.03 KCAL/MOL
REMARK 927      BINDING AFFINITY PREDICTED BY RF-SCORE:    0.00 PKD
ROOT
HETATM    1  C   UNL     1     -10.286   4.335  72.360  1.00  0.00    -0.181 C  
HETATM    2  N   UNL     1      -9.692   5.584  71.953  1.00  0.00    -0.159 N  
HETATM    3  C   UNL     1     -10.156   6.281  70.859  1.00  0.00    -0.189 C  
HETATM    4  H   UNL     1      -8.910   5.961  72.488  1.00  0.00     0.000 HD 
HETATM    5  O   UNL     1     -11.121   5.915  70.197  1.00  0.00    -0.348 OA 
ENDROOT
BRANCH   3   6
HETATM    6  C   UNL     1      -9.415   7.515  70.469  1.00  0.00    -0.164 A  
HETATM    7  C   UNL     1      -9.745   8.732  71.090  1.00  0.00    -0.315 A  
HETATM    8  C   UNL     1      -9.127   9.928  70.696  1.00  0.00     0.235 A  
HETATM    9  C   UNL     1      -8.178   9.925  69.667  1.00  0.00    -0.178 A  
HETATM   10  C   UNL     1      -7.807   8.710  69.086  1.00  0.00    -0.099 A  
HETATM   11  F   UNL     1      -8.061   6.397  68.855  1.00  0.00    -0.104 F  
HETATM   12  C   UNL     1      -8.429   7.525  69.481  1.00  0.00    -0.132 A  
BRANCH   9  13
HETATM   13  C   UNL     1      -7.636  11.220  69.166  1.00  0.00    -0.070 C  
HETATM   14  N   UNL     1      -8.429  12.137  68.681  1.00  0.00    -0.067 NA 
HETATM   15  N   UNL     1      -7.750  13.227  68.200  1.00  0.00    -0.131 NA 
HETATM   16  C   UNL     1      -8.295  14.353  67.627  1.00  0.00    -0.179 A  
HETATM   17  C   UNL     1      -6.127  11.414  69.195  1.00  0.00    -0.055 C  
HETATM   18  C   UNL     1      -7.212  15.111  67.240  1.00  0.00    -0.162 A  
HETATM   19  N   UNL     1      -6.034  14.523  67.603  1.00  0.00    -0.332 NA 
HETATM   20  N   UNL     1      -5.534  12.463  68.732  1.00  0.00    -0.054 NA 
HETATM   21  C   UNL     1      -6.363  13.395  68.194  1.00  0.00    -0.114 A  
BRANCH  16  22
HETATM   22  C   UNL     1      -9.749  14.642  67.548  1.00  0.00    -0.210 C  
BRANCH  22  23
HETATM   23  C   UNL     1     -10.628  13.606  68.209  1.00  0.00    -0.261 A  
HETATM   24  C   UNL     1     -11.712  11.437  68.151  1.00  0.00    -0.355 A  
HETATM   25  C   UNL     1     -10.953  12.431  67.528  1.00  0.00    -0.293 A  
HETATM   26  C   UNL     1     -12.199  11.588  69.440  1.00  0.00    -0.207 A  
HETATM   27  N   UNL     1     -12.936  10.601  69.981  1.00  0.00    -0.053 NA 
HETATM   28  C   UNL     1     -13.436  10.791  71.221  1.00  0.00     0.076 A  
HETATM   29  C   UNL     1     -13.233  11.938  71.964  1.00  0.00    -0.461 A  
HETATM   30  C   UNL     1     -12.449  12.944  71.411  1.00  0.00    -0.234 A  
HETATM   31  C   UNL     1     -11.911  12.787  70.125  1.00  0.00    -0.371 A  
HETATM   32  C   UNL     1     -11.117  13.779  69.512  1.00  0.00    -0.156 A  
ENDBRANCH  22  23
ENDBRANCH  16  22
ENDBRANCH   9  13
ENDBRANCH   3   6
TORSDOF 4
ENDMDL
MODEL      188
REMARK 921   NORMALIZED FREE ENERGY PREDICTED BY IDOCK:   -3.80 KCAL/MOL
REMARK 922        TOTAL FREE ENERGY PREDICTED BY IDOCK:   -5.35 KCAL/MOL
REMARK 923 INTER-LIGAND FREE ENERGY PREDICTED BY IDOCK:   -5.09 KCAL/MOL
REMARK 924 INTRA-LIGAND FREE ENERGY PREDICTED BY IDOCK:   -0.25 KCAL/MOL
REMARK 927      BINDING AFFINITY PREDICTED BY RF-SCORE:    0.00 PKD
ROOT
HETATM    1  C   UNL     1     -10.471   3.970  74.043  1.00  0.00    -0.209 C  
HETATM    2  N   UNL     1      -9.966   4.159  72.707  1.00  0.00    -0.145 N  
HETATM    3  C   UNL     1     -10.478   5.127  71.872  1.00  0.00    -0.207 C  
HETATM    4  H   UNL     1      -9.211   3.561  72.371  1.00  0.00     0.000 HD 
HETATM    5  O   UNL     1     -11.352   5.914  72.222  1.00  0.00    -0.278 OA 
ENDROOT
BRANCH   3   6
HETATM    6  C   UNL     1      -9.949   5.181  70.478  1.00  0.00    -0.304 A  
HETATM    7  C   UNL     1      -9.805   6.431  69.853  1.00  0.00    -0.191 A  
HETATM    8  C   UNL     1      -9.385   6.520  68.518  1.00  0.00    -0.123 A  
HETATM    9  C   UNL     1      -9.113   5.357  67.785  1.00  0.00    -0.111 A  
HETATM   10  C   UNL     1      -9.201   4.116  68.421  1.00  0.00    -0.198 A  
HETATM   11  F   UNL     1      -9.730   2.813  70.289  1.00  0.00    -0.224 F  
HETATM   12  C   UNL     1      -9.624   4.037  69.749  1.00  0.00    -0.210 A  
BRANCH   9  13
HETATM   13  C   UNL     1      -8.805   5.463  66.331  1.00  0.00    -0.123 C  
HETATM   14  N   UNL     1      -8.435   6.599  65.804  1.00  0.00    -0.146 NA 
HETATM   15  N   UNL     1      -8.269   6.525  64.445  1.00  0.00    -0.065 NA 
HETATM   16  C   UNL     1      -7.889   7.545  63.602  1.00  0.00    -0.112 A  
HETATM   17  C   UNL     1      -8.987   4.216  65.477  1.00  0.00    -0.131 C  
HETATM   18  C   UNL     1      -7.943   6.997  62.339  1.00  0.00    -0.127 A  
HETATM   19  N   UNL     1      -8.285   5.675  62.380  1.00  0.00    -0.102 NA 
HETATM   20  N   UNL     1      -8.814   4.197  64.198  1.00  0.00    -0.127 NA 
HETATM   21  C   UNL     1      -8.466   5.391  63.652  1.00  0.00    -0.059 A  
BRANCH  16  22
HETATM   22  C   UNL     1      -7.458   8.894  64.049  1.00  0.00    -0.112 C  
BRANCH  22  23
HETATM   23  C   UNL     1      -7.936   9.275  65.430  1.00  0.00    -0.108 A  
HETATM   24  C   UNL     1      -7.438   9.810  67.743  1.00  0.00    -0.090 A  
HETATM   25  C   UNL     1      -7.018   9.398  66.475  1.00  0.00    -0.084 A  
HETATM   26  C   UNL     1      -8.769  10.077  68.022  1.00  0.00    -0.125 A  
HETATM   27  N   UNL     1      -9.114  10.458  69.266  1.00  0.00    -0.190 NA 
HETATM   28  C   UNL     1     -10.422  10.667  69.524  1.00  0.00    -0.204 A  
HETATM   29  C   UNL     1     -11.425  10.516  68.586  1.00  0.00    -0.290 A  
HETATM   30  C   UNL     1     -11.062  10.147  67.295  1.00  0.00    -0.166 A  
HETATM   31  C   UNL     1      -9.712   9.918  66.986  1.00  0.00    -0.230 A  
HETATM   32  C   UNL     1      -9.289   9.534  65.696  1.00  0.00    -0.302 A  
ENDBRANCH  22  23
ENDBRANCH  16  22
ENDBRANCH   9  13
ENDBRANCH   3   6
TORSDOF 4
ENDMDL
MODEL      189
REMARK 921   NORMALIZED FREE ENERGY PREDICTED BY IDOCK:   -3.77 KCAL/MOL
REMARK 922        TOTAL FREE ENERGY PREDICTED BY IDOCK:   -5.31 KCAL/MOL
REMARK 923 INTER-LIGAND FREE ENERGY PREDICTED BY IDOCK:   -4.55 KCAL/MOL
REMARK 924 INTRA-LIGAND FREE ENERGY PREDICTED BY IDOCK:   -0.76 KCAL/MOL
REMARK 927      BINDING AFFINITY PREDICTED BY RF-SCORE:    0.00 PKD
ROOT
HETATM    1  C   UNL     1      -9.700   2.540  63.925  1.00  0.00    -0.140 C  
HETATM    2  N   UNL     1      -9.193   3.529  64.843  1.00  0.00    -0.137 N  
HETATM    3  C   UNL     1      -9.042   3.257  66.185  1.00  0.00    -0.153 C  
HETATM    4  H   UNL     1      -8.939   4.452  64.491  1.00  0.00     0.000 HD 
HETATM    5  O   UNL     1      -9.280   2.157  66.673  1.00  0.00    -0.095 OA 
ENDROOT
BRANCH   3   6
HETATM    6  C   UNL     1      -8.596   4.376  67.065  1.00  0.00    -0.104 A  
HETATM    7  C   UNL     1      -9.360   5.554  67.108  1.00  0.00    -0.115 A  
HETATM    8  C   UNL     1      -8.934   6.658  67.861  1.00  0.00    -0.112 A  
HETATM    9  C   UNL     1      -7.730   6.601  68.574  1.00  0.00    -0.105 A  
HETATM   10  C   UNL     1      -6.996   5.412  68.579  1.00  0.00    -0.061 A  
HETATM   11  F   UNL     1      -6.656   3.222  67.835  1.00  0.00    -0.035 F  
HETATM   12  C   UNL     1      -7.426   4.320  67.823  1.00  0.00    -0.069 A  
BRANCH   9  13
HETATM   13  C   UNL     1      -7.223   7.827  69.254  1.00  0.00    -0.081 C  
HETATM   14  N   UNL     1      -7.189   8.975  68.631  1.00  0.00    -0.071 NA 
HETATM   15  N   UNL     1      -6.622   9.971  69.384  1.00  0.00    -0.050 NA 
HETATM   16  C   UNL     1      -6.440  11.283  69.014  1.00  0.00    -0.069 A  
HETATM   17  C   UNL     1      -6.701   7.683  70.676  1.00  0.00    -0.042 C  
HETATM   18  C   UNL     1      -5.767  11.858  70.070  1.00  0.00    -0.138 A  
HETATM   19  N   UNL     1      -5.582  10.967  71.089  1.00  0.00    -0.320 NA 
HETATM   20  N   UNL     1      -6.179   8.655  71.346  1.00  0.00    -0.048 NA 
HETATM   21  C   UNL     1      -6.112   9.835  70.678  1.00  0.00    -0.088 A  
BRANCH  16  22
HETATM   22  C   UNL     1      -6.953  11.887  67.758  1.00  0.00    -0.102 C  
BRANCH  22  23
HETATM   23  C   UNL     1      -8.217  12.697  67.927  1.00  0.00    -0.170 A  
HETATM   24  C   UNL     1     -10.637  12.842  67.844  1.00  0.00    -0.232 A  
HETATM   25  C   UNL     1      -9.456  12.124  67.633  1.00  0.00    -0.187 A  
HETATM   26  C   UNL     1     -10.627  14.146  68.314  1.00  0.00    -0.251 A  
HETATM   27  N   UNL     1     -11.796  14.789  68.484  1.00  0.00    -0.325 NA 
HETATM   28  C   UNL     1     -11.757  16.073  68.899  1.00  0.00    -0.319 A  
HETATM   29  C   UNL     1     -10.589  16.762  69.161  1.00  0.00    -0.343 A  
HETATM   30  C   UNL     1      -9.384  16.085  69.008  1.00  0.00    -0.239 A  
HETATM   31  C   UNL     1      -9.380  14.750  68.577  1.00  0.00    -0.199 A  
HETATM   32  C   UNL     1      -8.187  14.019  68.396  1.00  0.00    -0.150 A  
ENDBRANCH  22  23
ENDBRANCH  16  22
ENDBRANCH   9  13
ENDBRANCH   3   6
TORSDOF 4
ENDMDL
MODEL      190
REMARK 921   NORMALIZED FREE ENERGY PREDICTED BY IDOCK:   -3.71 KCAL/MOL
REMARK 922        TOTAL FREE ENERGY PREDICTED BY IDOCK:   -5.24 KCAL/MOL
REMARK 923 INTER-LIGAND FREE ENERGY PREDICTED BY IDOCK:   -5.28 KCAL/MOL
REMARK 924 INTRA-LIGAND FREE ENERGY PREDICTED BY IDOCK:    0.04 KCAL/MOL
REMARK 927      BINDING AFFINITY PREDICTED BY RF-SCORE:    0.00 PKD
ROOT
HETATM    1  C   UNL     1     -12.403   8.297  72.641  1.00  0.00    -0.196 C  
HETATM    2  N   UNL     1     -11.795   7.745  71.457  1.00  0.00    -0.283 N  
HETATM    3  C   UNL     1     -11.436   8.541  70.392  1.00  0.00    -0.126 C  
HETATM    4  H   UNL     1     -11.627   6.740  71.405  1.00  0.00     0.000 HD 
HETATM    5  O   UNL     1     -11.563   9.761  70.400  1.00  0.00    -0.258 OA 
ENDROOT
BRANCH   3   6
HETATM    6  C   UNL     1     -10.898   7.861  69.178  1.00  0.00    -0.054 A  
HETATM    7  C   UNL     1     -11.096   6.479  69.028  1.00  0.00    -0.375 A  
HETATM    8  C   UNL     1     -10.540   5.788  67.942  1.00  0.00    -0.304 A  
HETATM    9  C   UNL     1      -9.767   6.471  66.995  1.00  0.00    -0.188 A  
HETATM   10  C   UNL     1      -9.614   7.855  67.110  1.00  0.00    -0.222 A  
HETATM   11  F   UNL     1      -9.950   9.855  68.274  1.00  0.00    -0.150 F  
HETATM   12  C   UNL     1     -10.168   8.534  68.196  1.00  0.00    -0.208 A  
BRANCH   9  13
HETATM   13  C   UNL     1      -9.068   5.701  65.927  1.00  0.00    -0.148 C  
HETATM   14  N   UNL     1      -8.323   6.305  65.042  1.00  0.00    -0.130 NA 
HETATM   15  N   UNL     1      -7.824   5.448  64.094  1.00  0.00    -0.097 NA 
HETATM   16  C   UNL     1      -7.012   5.774  63.032  1.00  0.00    -0.047 A  
HETATM   17  C   UNL     1      -9.296   4.196  65.876  1.00  0.00    -0.163 C  
HETATM   18  C   UNL     1      -6.852   4.596  62.336  1.00  0.00    -0.030 A  
HETATM   19  N   UNL     1      -7.484   3.557  62.957  1.00  0.00    -0.053 NA 
HETATM   20  N   UNL     1      -8.799   3.431  64.963  1.00  0.00    -0.117 NA 
HETATM   21  C   UNL     1      -8.057   4.072  64.025  1.00  0.00    -0.090 A  
BRANCH  16  22
HETATM   22  C   UNL     1      -6.419   7.116  62.801  1.00  0.00    -0.052 C  
BRANCH  22  23
HETATM   23  C   UNL     1      -7.141   8.244  63.499  1.00  0.00    -0.086 A  
HETATM   24  C   UNL     1      -7.329   9.760  65.384  1.00  0.00    -0.118 A  
HETATM   25  C   UNL     1      -6.709   8.677  64.755  1.00  0.00    -0.069 A  
HETATM   26  C   UNL     1      -8.406  10.419  64.813  1.00  0.00    -0.157 A  
HETATM   27  N   UNL     1      -8.970  11.447  65.474  1.00  0.00    -0.144 NA 
HETATM   28  C   UNL     1     -10.046  12.043  64.918  1.00  0.00    -0.260 A  
HETATM   29  C   UNL     1     -10.599  11.660  63.712  1.00  0.00    -0.473 A  
HETATM   30  C   UNL     1      -9.998  10.615  63.020  1.00  0.00    -0.239 A  
HETATM   31  C   UNL     1      -8.878   9.967  63.564  1.00  0.00    -0.251 A  
HETATM   32  C   UNL     1      -8.235   8.895  62.910  1.00  0.00    -0.190 A  
ENDBRANCH  22  23
ENDBRANCH  16  22
ENDBRANCH   9  13
ENDBRANCH   3   6
TORSDOF 4
ENDMDL
MODEL      191
REMARK 921   NORMALIZED FREE ENERGY PREDICTED BY IDOCK:   -3.71 KCAL/MOL
REMARK 922        TOTAL FREE ENERGY PREDICTED BY IDOCK:   -5.23 KCAL/MOL
REMARK 923 INTER-LIGAND FREE ENERGY PREDICTED BY IDOCK:   -4.53 KCAL/MOL
REMARK 924 INTRA-LIGAND FREE ENERGY PREDICTED BY IDOCK:   -0.70 KCAL/MOL
REMARK 927      BINDING AFFINITY PREDICTED BY RF-SCORE:    0.00 PKD
ROOT
HETATM    1  C   UNL     1      -8.719   2.348  73.931  1.00  0.00    -0.070 C  
HETATM    2  N   UNL     1      -8.395   2.960  72.667  1.00  0.00    -0.070 N  
HETATM    3  C   UNL     1      -9.270   3.815  72.034  1.00  0.00    -0.121 C  
HETATM    4  H   UNL     1      -7.496   2.756  72.230  1.00  0.00     0.000 HD 
HETATM    5  O   UNL     1     -10.346   4.146  72.521  1.00  0.00    -0.172 OA 
ENDROOT
BRANCH   3   6
HETATM    6  C   UNL     1      -8.878   4.324  70.688  1.00  0.00    -0.135 A  
HETATM    7  C   UNL     1      -8.106   5.495  70.601  1.00  0.00    -0.115 A  
HETATM    8  C   UNL     1      -7.783   6.049  69.355  1.00  0.00    -0.098 A  
HETATM    9  C   UNL     1      -8.237   5.446  68.176  1.00  0.00    -0.099 A  
HETATM   10  C   UNL     1      -8.957   4.250  68.256  1.00  0.00    -0.151 A  
HETATM   11  F   UNL     1     -10.008   2.583  69.514  1.00  0.00    -0.072 F  
HETATM   12  C   UNL     1      -9.278   3.708  69.502  1.00  0.00    -0.155 A  
BRANCH   9  13
HETATM   13  C   UNL     1      -8.005   6.123  66.869  1.00  0.00    -0.105 C  
HETATM   14  N   UNL     1      -7.598   7.363  66.818  1.00  0.00    -0.099 NA 
HETATM   15  N   UNL     1      -7.513   7.843  65.536  1.00  0.00    -0.076 NA 
HETATM   16  C   UNL     1      -7.120   9.103  65.151  1.00  0.00    -0.088 A  
HETATM   17  C   UNL     1      -8.307   5.337  65.601  1.00  0.00    -0.126 C  
HETATM   18  C   UNL     1      -7.276   9.118  63.782  1.00  0.00    -0.096 A  
HETATM   19  N   UNL     1      -7.693   7.905  63.312  1.00  0.00    -0.133 NA 
HETATM   20  N   UNL     1      -8.207   5.834  64.414  1.00  0.00    -0.132 NA 
HETATM   21  C   UNL     1      -7.820   7.135  64.371  1.00  0.00    -0.115 A  
BRANCH  16  22
HETATM   22  C   UNL     1      -6.586  10.141  66.069  1.00  0.00    -0.102 C  
BRANCH  22  23
HETATM   23  C   UNL     1      -7.646  10.952  66.776  1.00  0.00    -0.134 A  
HETATM   24  C   UNL     1      -8.459  13.095  67.569  1.00  0.00    -0.198 A  
HETATM   25  C   UNL     1      -7.460  12.322  66.972  1.00  0.00    -0.063 A  
HETATM   26  C   UNL     1      -9.645  12.538  68.019  1.00  0.00    -0.212 A  
HETATM   27  N   UNL     1     -10.564  13.332  68.597  1.00  0.00    -0.256 NA 
HETATM   28  C   UNL     1     -11.692  12.758  69.067  1.00  0.00    -0.323 A  
HETATM   29  C   UNL     1     -11.957  11.404  68.986  1.00  0.00    -0.387 A  
HETATM   30  C   UNL     1     -11.016  10.591  68.364  1.00  0.00    -0.310 A  
HETATM   31  C   UNL     1      -9.830  11.148  67.863  1.00  0.00    -0.187 A  
HETATM   32  C   UNL     1      -8.838  10.369  67.232  1.00  0.00    -0.135 A  
ENDBRANCH  22  23
ENDBRANCH  16  22
ENDBRANCH   9  13
ENDBRANCH   3   6
TORSDOF 4
ENDMDL
MODEL      192
REMARK 921   NORMALIZED FREE ENERGY PREDICTED BY IDOCK:   -3.70 KCAL/MOL
REMARK 922        TOTAL FREE ENERGY PREDICTED BY IDOCK:   -5.22 KCAL/MOL
REMARK 923 INTER-LIGAND FREE ENERGY PREDICTED BY IDOCK:   -5.39 KCAL/MOL
REMARK 924 INTRA-LIGAND FREE ENERGY PREDICTED BY IDOCK:    0.16 KCAL/MOL
REMARK 927      BINDING AFFINITY PREDICTED BY RF-SCORE:    0.00 PKD
ROOT
HETATM    1  C   UNL     1      -9.433   4.027  69.238  1.00  0.00    -0.190 C  
HETATM    2  N   UNL     1      -9.651   5.427  68.968  1.00  0.00    -0.132 N  
HETATM    3  C   UNL     1     -10.239   5.853  67.797  1.00  0.00    -0.182 C  
HETATM    4  H   UNL     1      -9.362   6.118  69.659  1.00  0.00     0.000 HD 
HETATM    5  O   UNL     1     -10.655   5.079  66.941  1.00  0.00    -0.227 OA 
ENDROOT
BRANCH   3   6
HETATM    6  C   UNL     1     -10.336   7.324  67.575  1.00  0.00    -0.310 A  
HETATM    7  C   UNL     1      -9.943   7.852  66.334  1.00  0.00    -0.192 A  
HETATM    8  C   UNL     1      -9.944   9.236  66.111  1.00  0.00    -0.348 A  
HETATM    9  C   UNL     1     -10.330  10.114  67.131  1.00  0.00    -0.295 A  
HETATM   10  C   UNL     1     -10.776   9.590  68.348  1.00  0.00    -0.230 A  
HETATM   11  F   UNL     1     -11.165   7.773  69.766  1.00  0.00    -0.236 F  
HETATM   12  C   UNL     1     -10.767   8.211  68.563  1.00  0.00    -0.014 A  
BRANCH   9  13
HETATM   13  C   UNL     1     -10.192  11.584  66.925  1.00  0.00    -0.217 C  
HETATM   14  N   UNL     1      -9.103  12.212  67.276  1.00  0.00    -0.175 NA 
HETATM   15  N   UNL     1      -9.185  13.567  67.082  1.00  0.00    -0.227 NA 
HETATM   16  C   UNL     1      -8.211  14.501  67.354  1.00  0.00    -0.202 A  
HETATM   17  C   UNL     1     -11.382  12.330  66.339  1.00  0.00    -0.354 C  
HETATM   18  C   UNL     1      -8.796  15.714  67.066  1.00  0.00    -0.225 A  
HETATM   19  N   UNL     1     -10.062  15.557  66.577  1.00  0.00    -0.268 NA 
HETATM   20  N   UNL     1     -11.409  13.610  66.172  1.00  0.00    -0.307 NA 
HETATM   21  C   UNL     1     -10.287  14.260  66.575  1.00  0.00    -0.278 A  
BRANCH  16  22
HETATM   22  C   UNL     1      -6.830  14.179  67.792  1.00  0.00    -0.188 C  
BRANCH  22  23
HETATM   23  C   UNL     1      -6.536  12.700  67.892  1.00  0.00    -0.111 A  
HETATM   24  C   UNL     1      -6.349  10.690  69.236  1.00  0.00    -0.057 A  
HETATM   25  C   UNL     1      -6.558  12.068  69.137  1.00  0.00    -0.107 A  
HETATM   26  C   UNL     1      -6.081   9.908  68.124  1.00  0.00    -0.050 A  
HETATM   27  N   UNL     1      -5.876   8.588  68.285  1.00  0.00    -0.041 NA 
HETATM   28  C   UNL     1      -5.573   7.857  67.192  1.00  0.00    -0.036 A  
HETATM   29  C   UNL     1      -5.462   8.384  65.920  1.00  0.00    -0.031 A  
HETATM   30  C   UNL     1      -5.701   9.744  65.754  1.00  0.00    -0.052 A  
HETATM   31  C   UNL     1      -6.018  10.540  66.865  1.00  0.00    -0.059 A  
HETATM   32  C   UNL     1      -6.260  11.926  66.755  1.00  0.00    -0.045 A  
ENDBRANCH  22  23
ENDBRANCH  16  22
ENDBRANCH   9  13
ENDBRANCH   3   6
TORSDOF 4
ENDMDL
MODEL      193
REMARK 921   NORMALIZED FREE ENERGY PREDICTED BY IDOCK:   -3.61 KCAL/MOL
REMARK 922        TOTAL FREE ENERGY PREDICTED BY IDOCK:   -5.11 KCAL/MOL
REMARK 923 INTER-LIGAND FREE ENERGY PREDICTED BY IDOCK:   -5.17 KCAL/MOL
REMARK 924 INTRA-LIGAND FREE ENERGY PREDICTED BY IDOCK:    0.06 KCAL/MOL
REMARK 927      BINDING AFFINITY PREDICTED BY RF-SCORE:    0.00 PKD
ROOT
HETATM    1  C   UNL     1      -7.680   2.403  72.673  1.00  0.00    -0.053 C  
HETATM    2  N   UNL     1      -7.916   3.253  71.533  1.00  0.00    -0.056 N  
HETATM    3  C   UNL     1      -7.503   2.896  70.268  1.00  0.00    -0.043 C  
HETATM    4  H   UNL     1      -8.399   4.141  71.665  1.00  0.00     0.000 HD 
HETATM    5  O   UNL     1      -6.959   1.824  70.024  1.00  0.00    -0.033 OA 
ENDROOT
BRANCH   3   6
HETATM    6  C   UNL     1      -7.713   3.886  69.173  1.00  0.00    -0.053 A  
HETATM    7  C   UNL     1      -6.913   3.806  68.021  1.00  0.00    -0.051 A  
HETATM    8  C   UNL     1      -7.026   4.763  67.003  1.00  0.00    -0.057 A  
HETATM    9  C   UNL     1      -7.934   5.822  67.128  1.00  0.00    -0.102 A  
HETATM   10  C   UNL     1      -8.770   5.873  68.246  1.00  0.00    -0.112 A  
HETATM   11  F   UNL     1      -9.450   5.046  70.325  1.00  0.00    -0.173 F  
HETATM   12  C   UNL     1      -8.649   4.918  69.257  1.00  0.00    -0.087 A  
BRANCH   9  13
HETATM   13  C   UNL     1      -7.941   6.906  66.105  1.00  0.00    -0.110 C  
HETATM   14  N   UNL     1      -8.803   7.885  66.169  1.00  0.00    -0.160 NA 
HETATM   15  N   UNL     1      -8.712   8.744  65.105  1.00  0.00    -0.186 NA 
HETATM   16  C   UNL     1      -9.477   9.866  64.881  1.00  0.00    -0.291 A  
HETATM   17  C   UNL     1      -6.944   6.804  64.959  1.00  0.00    -0.051 C  
HETATM   18  C   UNL     1      -9.060  10.338  63.656  1.00  0.00    -0.258 A  
HETATM   19  N   UNL     1      -8.037   9.587  63.151  1.00  0.00    -0.139 NA 
HETATM   20  N   UNL     1      -6.895   7.644  63.980  1.00  0.00    -0.053 NA 
HETATM   21  C   UNL     1      -7.820   8.636  64.034  1.00  0.00    -0.146 A  
BRANCH  16  22
HETATM   22  C   UNL     1     -10.467  10.419  65.839  1.00  0.00    -0.196 C  
BRANCH  22  23
HETATM   23  C   UNL     1     -10.375  11.914  66.036  1.00  0.00    -0.268 A  
HETATM   24  C   UNL     1     -10.534  14.158  65.127  1.00  0.00    -0.422 A  
HETATM   25  C   UNL     1     -10.554  12.772  64.948  1.00  0.00    -0.336 A  
HETATM   26  C   UNL     1     -10.304  14.732  66.367  1.00  0.00    -0.293 A  
HETATM   27  N   UNL     1     -10.283  16.073  66.473  1.00  0.00    -0.283 NA 
HETATM   28  C   UNL     1     -10.012  16.608  67.683  1.00  0.00    -0.264 A  
HETATM   29  C   UNL     1      -9.757  15.859  68.815  1.00  0.00    -0.216 A  
HETATM   30  C   UNL     1      -9.805  14.474  68.706  1.00  0.00    -0.220 A  
HETATM   31  C   UNL     1     -10.082  13.878  67.466  1.00  0.00    -0.244 A  
HETATM   32  C   UNL     1     -10.134  12.478  67.297  1.00  0.00    -0.216 A  
ENDBRANCH  22  23
ENDBRANCH  16  22
ENDBRANCH   9  13
ENDBRANCH   3   6
TORSDOF 4
ENDMDL
MODEL      194
REMARK 921   NORMALIZED FREE ENERGY PREDICTED BY IDOCK:   -3.44 KCAL/MOL
REMARK 922        TOTAL FREE ENERGY PREDICTED BY IDOCK:   -4.91 KCAL/MOL
REMARK 923 INTER-LIGAND FREE ENERGY PREDICTED BY IDOCK:   -4.37 KCAL/MOL
REMARK 924 INTRA-LIGAND FREE ENERGY PREDICTED BY IDOCK:   -0.54 KCAL/MOL
REMARK 927      BINDING AFFINITY PREDICTED BY RF-SCORE:    0.00 PKD
ROOT
HETATM    1  C   UNL     1     -12.187  14.588  65.001  1.00  0.00    -0.373 C  
HETATM    2  N   UNL     1     -11.373  13.586  65.642  1.00  0.00    -0.297 N  
HETATM    3  C   UNL     1     -11.746  12.260  65.665  1.00  0.00    -0.382 C  
HETATM    4  H   UNL     1     -10.501  13.864  66.090  1.00  0.00     0.000 HD 
HETATM    5  O   UNL     1     -12.756  11.843  65.106  1.00  0.00    -0.168 OA 
ENDROOT
BRANCH   3   6
HETATM    6  C   UNL     1     -10.882  11.317  66.432  1.00  0.00    -0.306 A  
HETATM    7  C   UNL     1     -10.806  11.447  67.829  1.00  0.00    -0.281 A  
HETATM    8  C   UNL     1      -9.945  10.633  68.578  1.00  0.00    -0.176 A  
HETATM    9  C   UNL     1      -9.139   9.682  67.939  1.00  0.00    -0.130 A  
HETATM   10  C   UNL     1      -9.254   9.512  66.557  1.00  0.00    -0.201 A  
HETATM   11  F   UNL     1     -10.143  10.147  64.489  1.00  0.00    -0.395 F  
HETATM   12  C   UNL     1     -10.110  10.330  65.818  1.00  0.00    -0.255 A  
BRANCH   9  13
HETATM   13  C   UNL     1      -8.131   8.924  68.732  1.00  0.00    -0.114 C  
HETATM   14  N   UNL     1      -8.142   8.955  70.037  1.00  0.00    -0.107 NA 
HETATM   15  N   UNL     1      -7.097   8.263  70.595  1.00  0.00    -0.040 NA 
HETATM   16  C   UNL     1      -6.830   8.110  71.935  1.00  0.00    -0.076 A  
HETATM   17  C   UNL     1      -7.061   8.158  67.968  1.00  0.00    -0.086 C  
HETATM   18  C   UNL     1      -5.644   7.409  71.981  1.00  0.00    -0.036 A  
HETATM   19  N   UNL     1      -5.208   7.082  70.729  1.00  0.00    -0.023 NA 
HETATM   20  N   UNL     1      -6.097   7.517  68.540  1.00  0.00    -0.027 NA 
HETATM   21  C   UNL     1      -6.094   7.585  69.896  1.00  0.00    -0.027 A  
BRANCH  16  22
HETATM   22  C   UNL     1      -7.719   8.568  73.033  1.00  0.00    -0.048 C  
BRANCH  22  23
HETATM   23  C   UNL     1      -9.136   8.053  72.943  1.00  0.00    -0.313 A  
HETATM   24  C   UNL     1     -10.825   6.446  73.613  1.00  0.00    -0.139 A  
HETATM   25  C   UNL     1      -9.503   6.898  73.638  1.00  0.00    -0.218 A  
HETATM   26  C   UNL     1     -11.807   7.094  72.881  1.00  0.00     0.140 A  
HETATM   27  N   UNL     1     -13.059   6.603  72.886  1.00  0.00     1.166 NA 
HETATM   28  C   UNL     1     -13.987   7.226  72.129  1.00  0.00    -0.026 A  
HETATM   29  C   UNL     1     -13.725   8.338  71.353  1.00  0.00    -0.281 A  
HETATM   30  C   UNL     1     -12.436   8.858  71.370  1.00  0.00    -0.357 A  
HETATM   31  C   UNL     1     -11.441   8.239  72.143  1.00  0.00    -0.427 A  
HETATM   32  C   UNL     1     -10.115   8.718  72.191  1.00  0.00    -0.362 A  
ENDBRANCH  22  23
ENDBRANCH  16  22
ENDBRANCH   9  13
ENDBRANCH   3   6
TORSDOF 4
ENDMDL
MODEL      195
REMARK 921   NORMALIZED FREE ENERGY PREDICTED BY IDOCK:   -3.33 KCAL/MOL
REMARK 922        TOTAL FREE ENERGY PREDICTED BY IDOCK:   -4.77 KCAL/MOL
REMARK 923 INTER-LIGAND FREE ENERGY PREDICTED BY IDOCK:   -4.41 KCAL/MOL
REMARK 924 INTRA-LIGAND FREE ENERGY PREDICTED BY IDOCK:   -0.35 KCAL/MOL
REMARK 927      BINDING AFFINITY PREDICTED BY RF-SCORE:    0.00 PKD
ROOT
HETATM    1  C   UNL     1     -13.269  12.809  71.964  1.00  0.00    -0.436 C  
HETATM    2  N   UNL     1     -12.318  11.746  71.750  1.00  0.00     0.122 N  
HETATM    3  C   UNL     1     -12.637  10.633  71.005  1.00  0.00    -0.416 C  
HETATM    4  H   UNL     1     -11.388  11.820  72.161  1.00  0.00     0.000 HD 
HETATM    5  O   UNL     1     -13.718  10.496  70.441  1.00  0.00     0.284 OA 
ENDROOT
BRANCH   3   6
HETATM    6  C   UNL     1     -11.615   9.550  70.919  1.00  0.00    -0.398 A  
HETATM    7  C   UNL     1     -10.471   9.754  70.129  1.00  0.00    -0.338 A  
HETATM    8  C   UNL     1      -9.525   8.733  69.960  1.00  0.00    -0.176 A  
HETATM    9  C   UNL     1      -9.716   7.487  70.570  1.00  0.00    -0.179 A  
HETATM   10  C   UNL     1     -10.823   7.299  71.402  1.00  0.00    -0.251 A  
HETATM   11  F   UNL     1     -12.825   8.062  72.338  1.00  0.00    -0.302 F  
HETATM   12  C   UNL     1     -11.762   8.320  71.562  1.00  0.00    -0.292 A  
BRANCH   9  13
HETATM   13  C   UNL     1      -8.776   6.371  70.267  1.00  0.00    -0.143 C  
HETATM   14  N   UNL     1      -7.927   6.458  69.278  1.00  0.00    -0.109 NA 
HETATM   15  N   UNL     1      -7.199   5.310  69.101  1.00  0.00    -0.057 NA 
HETATM   16  C   UNL     1      -6.231   5.084  68.149  1.00  0.00    -0.035 A  
HETATM   17  C   UNL     1      -8.877   5.112  71.116  1.00  0.00    -0.134 C  
HETATM   18  C   UNL     1      -5.857   3.771  68.330  1.00  0.00    -0.026 A  
HETATM   19  N   UNL     1      -6.514   3.204  69.386  1.00  0.00    -0.032 NA 
HETATM   20  N   UNL     1      -8.163   4.055  70.911  1.00  0.00    -0.066 NA 
HETATM   21  C   UNL     1      -7.310   4.140  69.857  1.00  0.00    -0.049 A  
BRANCH  16  22
HETATM   22  C   UNL     1      -5.710   6.112  67.214  1.00  0.00    -0.016 C  
BRANCH  22  23
HETATM   23  C   UNL     1      -6.485   7.409  67.217  1.00  0.00    -0.060 A  
HETATM   24  C   UNL     1      -6.631   9.759  67.800  1.00  0.00    -0.068 A  
HETATM   25  C   UNL     1      -5.952   8.538  67.843  1.00  0.00    -0.047 A  
HETATM   26  C   UNL     1      -7.860   9.891  67.174  1.00  0.00    -0.099 A  
HETATM   27  N   UNL     1      -8.471  11.090  67.177  1.00  0.00    -0.134 NA 
HETATM   28  C   UNL     1      -9.688  11.182  66.601  1.00  0.00    -0.196 A  
HETATM   29  C   UNL     1     -10.340  10.119  66.007  1.00  0.00    -0.234 A  
HETATM   30  C   UNL     1      -9.694   8.888  65.983  1.00  0.00    -0.308 A  
HETATM   31  C   UNL     1      -8.428   8.749  66.572  1.00  0.00    -0.120 A  
HETATM   32  C   UNL     1      -7.732   7.522  66.585  1.00  0.00    -0.101 A  
ENDBRANCH  22  23
ENDBRANCH  16  22
ENDBRANCH   9  13
ENDBRANCH   3   6
TORSDOF 4
ENDMDL
MODEL      196
REMARK 921   NORMALIZED FREE ENERGY PREDICTED BY IDOCK:   -3.33 KCAL/MOL
REMARK 922        TOTAL FREE ENERGY PREDICTED BY IDOCK:   -4.76 KCAL/MOL
REMARK 923 INTER-LIGAND FREE ENERGY PREDICTED BY IDOCK:   -4.41 KCAL/MOL
REMARK 924 INTRA-LIGAND FREE ENERGY PREDICTED BY IDOCK:   -0.35 KCAL/MOL
REMARK 927      BINDING AFFINITY PREDICTED BY RF-SCORE:    0.00 PKD
ROOT
HETATM    1  C   UNL     1     -12.027  15.611  69.709  1.00  0.00    -0.354 C  
HETATM    2  N   UNL     1     -11.650  14.502  68.869  1.00  0.00    -0.291 N  
HETATM    3  C   UNL     1     -10.422  13.890  68.989  1.00  0.00    -0.131 C  
HETATM    4  H   UNL     1     -12.308  14.162  68.167  1.00  0.00     0.000 HD 
HETATM    5  O   UNL     1      -9.599  14.211  69.840  1.00  0.00     0.734 OA 
ENDROOT
BRANCH   3   6
HETATM    6  C   UNL     1     -10.094  12.812  68.012  1.00  0.00    -0.230 A  
HETATM    7  C   UNL     1     -10.542  11.505  68.265  1.00  0.00    -0.228 A  
HETATM    8  C   UNL     1     -10.189  10.449  67.412  1.00  0.00    -0.259 A  
HETATM    9  C   UNL     1      -9.374  10.685  66.298  1.00  0.00    -0.199 A  
HETATM   10  C   UNL     1      -8.974  11.993  66.012  1.00  0.00    -0.021 A  
HETATM   11  F   UNL     1      -8.875  14.263  66.563  1.00  0.00    -0.252 F  
HETATM   12  C   UNL     1      -9.326  13.037  66.868  1.00  0.00    -0.241 A  
BRANCH   9  13
HETATM   13  C   UNL     1      -8.895   9.532  65.485  1.00  0.00    -0.168 C  
HETATM   14  N   UNL     1      -8.563   8.402  66.050  1.00  0.00    -0.137 NA 
HETATM   15  N   UNL     1      -8.073   7.485  65.156  1.00  0.00    -0.128 NA 
HETATM   16  C   UNL     1      -7.639   6.209  65.436  1.00  0.00    -0.087 A  
HETATM   17  C   UNL     1      -8.758   9.735  63.982  1.00  0.00    -0.216 C  
HETATM   18  C   UNL     1      -7.175   5.722  64.234  1.00  0.00    -0.055 A  
HETATM   19  N   UNL     1      -7.361   6.623  63.224  1.00  0.00    -0.065 NA 
HETATM   20  N   UNL     1      -8.294   8.836  63.180  1.00  0.00    -0.186 NA 
HETATM   21  C   UNL     1      -7.916   7.678  63.781  1.00  0.00    -0.090 A  
BRANCH  16  22
HETATM   22  C   UNL     1      -7.749   5.551  66.763  1.00  0.00    -0.100 C  
BRANCH  22  23
HETATM   23  C   UNL     1      -8.806   6.142  67.666  1.00  0.00    -0.103 A  
HETATM   24  C   UNL     1     -11.139   6.619  68.124  1.00  0.00    -0.287 A  
HETATM   25  C   UNL     1     -10.145   6.131  67.271  1.00  0.00    -0.202 A  
HETATM   26  C   UNL     1     -10.840   7.158  69.365  1.00  0.00    -0.206 A  
HETATM   27  N   UNL     1     -11.840   7.624  70.135  1.00  0.00     0.086 NA 
HETATM   28  C   UNL     1     -11.518   8.185  71.320  1.00  0.00    -0.266 A  
HETATM   29  C   UNL     1     -10.223   8.308  71.786  1.00  0.00    -0.297 A  
HETATM   30  C   UNL     1      -9.195   7.802  70.998  1.00  0.00    -0.158 A  
HETATM   31  C   UNL     1      -9.487   7.212  69.759  1.00  0.00    -0.149 A  
HETATM   32  C   UNL     1      -8.482   6.691  68.916  1.00  0.00    -0.123 A  
ENDBRANCH  22  23
ENDBRANCH  16  22
ENDBRANCH   9  13
ENDBRANCH   3   6
TORSDOF 4
ENDMDL
MODEL      197
REMARK 921   NORMALIZED FREE ENERGY PREDICTED BY IDOCK:   -3.20 KCAL/MOL
REMARK 922        TOTAL FREE ENERGY PREDICTED BY IDOCK:   -4.60 KCAL/MOL
REMARK 923 INTER-LIGAND FREE ENERGY PREDICTED BY IDOCK:   -4.63 KCAL/MOL
REMARK 924 INTRA-LIGAND FREE ENERGY PREDICTED BY IDOCK:    0.03 KCAL/MOL
REMARK 927      BINDING AFFINITY PREDICTED BY RF-SCORE:    0.00 PKD
ROOT
HETATM    1  C   UNL     1     -12.257  14.567  64.779  1.00  0.00    -0.431 C  
HETATM    2  N   UNL     1     -11.438  13.392  64.941  1.00  0.00    -0.315 N  
HETATM    3  C   UNL     1     -11.683  12.238  64.231  1.00  0.00    -0.381 C  
HETATM    4  H   UNL     1     -10.658  13.416  65.598  1.00  0.00     0.000 HD 
HETATM    5  O   UNL     1     -12.571  12.149  63.390  1.00  0.00    -0.662 OA 
ENDROOT
BRANCH   3   6
HETATM    6  C   UNL     1     -10.834  11.050  64.539  1.00  0.00    -0.257 A  
HETATM    7  C   UNL     1     -11.045  10.357  65.742  1.00  0.00     0.432 A  
HETATM    8  C   UNL     1     -10.218   9.284  66.105  1.00  0.00    -0.229 A  
HETATM    9  C   UNL     1      -9.161   8.896  65.273  1.00  0.00    -0.196 A  
HETATM   10  C   UNL     1      -8.983   9.546  64.049  1.00  0.00    -0.228 A  
HETATM   11  F   UNL     1      -9.561  11.228  62.529  1.00  0.00    -0.318 F  
HETATM   12  C   UNL     1      -9.809  10.616  63.697  1.00  0.00    -0.333 A  
BRANCH   9  13
HETATM   13  C   UNL     1      -8.208   7.849  65.738  1.00  0.00    -0.130 C  
HETATM   14  N   UNL     1      -7.603   7.955  66.890  1.00  0.00    -0.097 NA 
HETATM   15  N   UNL     1      -6.708   6.941  67.117  1.00  0.00    -0.061 NA 
HETATM   16  C   UNL     1      -5.916   6.771  68.229  1.00  0.00    -0.025 A  
HETATM   17  C   UNL     1      -7.929   6.680  64.803  1.00  0.00    -0.118 C  
HETATM   18  C   UNL     1      -5.145   5.665  67.948  1.00  0.00    -0.004 A  
HETATM   19  N   UNL     1      -5.473   5.121  66.738  1.00  0.00    -0.012 NA 
HETATM   20  N   UNL     1      -7.078   5.745  65.065  1.00  0.00    -0.062 NA 
HETATM   21  C   UNL     1      -6.425   5.884  66.247  1.00  0.00    -0.046 A  
BRANCH  16  22
HETATM   22  C   UNL     1      -5.991   7.605  69.456  1.00  0.00    -0.030 C  
BRANCH  22  23
HETATM   23  C   UNL     1      -6.794   8.875  69.298  1.00  0.00    -0.050 A  
HETATM   24  C   UNL     1      -6.879  11.248  68.804  1.00  0.00    -0.082 A  
HETATM   25  C   UNL     1      -6.144  10.078  69.013  1.00  0.00    -0.040 A  
HETATM   26  C   UNL     1      -8.261  11.272  68.903  1.00  0.00    -0.079 A  
HETATM   27  N   UNL     1      -8.913  12.432  68.703  1.00  0.00    -0.039 NA 
HETATM   28  C   UNL     1     -10.254  12.439  68.850  1.00  0.00    -0.004 A  
HETATM   29  C   UNL     1     -10.996  11.324  69.191  1.00  0.00    -0.292 A  
HETATM   30  C   UNL     1     -10.322  10.121  69.371  1.00  0.00    -0.251 A  
HETATM   31  C   UNL     1      -8.927  10.072  69.229  1.00  0.00    -0.186 A  
HETATM   32  C   UNL     1      -8.192   8.881  69.409  1.00  0.00    -0.107 A  
ENDBRANCH  22  23
ENDBRANCH  16  22
ENDBRANCH   9  13
ENDBRANCH   3   6
TORSDOF 4
ENDMDL
MODEL      198
REMARK 921   NORMALIZED FREE ENERGY PREDICTED BY IDOCK:   -3.18 KCAL/MOL
REMARK 922        TOTAL FREE ENERGY PREDICTED BY IDOCK:   -4.58 KCAL/MOL
REMARK 923 INTER-LIGAND FREE ENERGY PREDICTED BY IDOCK:   -4.31 KCAL/MOL
REMARK 924 INTRA-LIGAND FREE ENERGY PREDICTED BY IDOCK:   -0.27 KCAL/MOL
REMARK 927      BINDING AFFINITY PREDICTED BY RF-SCORE:    0.00 PKD
ROOT
HETATM    1  C   UNL     1     -12.147  12.901  63.255  1.00  0.00    -0.440 C  
HETATM    2  N   UNL     1     -11.471  12.471  64.453  1.00  0.00    -0.329 N  
HETATM    3  C   UNL     1     -10.448  13.208  65.008  1.00  0.00    -0.342 C  
HETATM    4  H   UNL     1     -11.756  11.600  64.901  1.00  0.00     0.000 HD 
HETATM    5  O   UNL     1     -10.082  14.287  64.554  1.00  0.00    -0.254 OA 
ENDROOT
BRANCH   3   6
HETATM    6  C   UNL     1      -9.753  12.631  66.195  1.00  0.00    -0.253 A  
HETATM    7  C   UNL     1      -9.079  13.494  67.075  1.00  0.00    -0.248 A  
HETATM    8  C   UNL     1      -8.349  12.986  68.159  1.00  0.00    -0.164 A  
HETATM    9  C   UNL     1      -8.273  11.604  68.371  1.00  0.00    -0.155 A  
HETATM   10  C   UNL     1      -8.988  10.745  67.532  1.00  0.00    -0.132 A  
HETATM   11  F   UNL     1     -10.339  10.382  65.658  1.00  0.00    -0.318 F  
HETATM   12  C   UNL     1      -9.709  11.260  66.453  1.00  0.00    -0.209 A  
BRANCH   9  13
HETATM   13  C   UNL     1      -7.380  11.075  69.441  1.00  0.00    -0.092 C  
HETATM   14  N   UNL     1      -7.443   9.824  69.811  1.00  0.00    -0.109 NA 
HETATM   15  N   UNL     1      -6.604   9.536  70.857  1.00  0.00    -0.143 NA 
HETATM   16  C   UNL     1      -6.441   8.317  71.473  1.00  0.00    -0.049 A  
HETATM   17  C   UNL     1      -6.432  12.054  70.119  1.00  0.00     0.124 C  
HETATM   18  C   UNL     1      -5.559   8.558  72.504  1.00  0.00    -0.054 A  
HETATM   19  N   UNL     1      -5.135   9.856  72.507  1.00  0.00    -0.187 NA 
HETATM   20  N   UNL     1      -5.657  11.732  71.100  1.00  0.00    -0.372 NA 
HETATM   21  C   UNL     1      -5.756  10.439  71.504  1.00  0.00     0.159 A  
BRANCH  16  22
HETATM   22  C   UNL     1      -7.064   7.049  71.017  1.00  0.00    -0.070 C  
BRANCH  22  23
HETATM   23  C   UNL     1      -6.912   6.777  69.539  1.00  0.00    -0.067 A  
HETATM   24  C   UNL     1      -5.719   5.702  67.720  1.00  0.00    -0.013 A  
HETATM   25  C   UNL     1      -5.837   6.013  69.078  1.00  0.00    -0.019 A  
HETATM   26  C   UNL     1      -6.630   6.161  66.782  1.00  0.00    -0.059 A  
HETATM   27  N   UNL     1      -6.456   5.839  65.487  1.00  0.00    -0.041 NA 
HETATM   28  C   UNL     1      -7.331   6.336  64.588  1.00  0.00    -0.073 A  
HETATM   29  C   UNL     1      -8.395   7.152  64.920  1.00  0.00    -0.019 A  
HETATM   30  C   UNL     1      -8.586   7.461  66.262  1.00  0.00    -0.148 A  
HETATM   31  C   UNL     1      -7.698   6.967  67.229  1.00  0.00    -0.109 A  
HETATM   32  C   UNL     1      -7.840   7.256  68.603  1.00  0.00    -0.122 A  
ENDBRANCH  22  23
ENDBRANCH  16  22
ENDBRANCH   9  13
ENDBRANCH   3   6
TORSDOF 4
ENDMDL
MODEL      199
REMARK 921   NORMALIZED FREE ENERGY PREDICTED BY IDOCK:   -3.18 KCAL/MOL
REMARK 922        TOTAL FREE ENERGY PREDICTED BY IDOCK:   -4.58 KCAL/MOL
REMARK 923 INTER-LIGAND FREE ENERGY PREDICTED BY IDOCK:   -4.20 KCAL/MOL
REMARK 924 INTRA-LIGAND FREE ENERGY PREDICTED BY IDOCK:   -0.38 KCAL/MOL
REMARK 927      BINDING AFFINITY PREDICTED BY RF-SCORE:    0.00 PKD
ROOT
HETATM    1  C   UNL     1      -6.259  18.267  69.664  1.00  0.00    -0.215 C  
HETATM    2  N   UNL     1      -6.442  16.910  69.214  1.00  0.00    -0.218 N  
HETATM    3  C   UNL     1      -7.577  16.521  68.538  1.00  0.00    -0.200 C  
HETATM    4  H   UNL     1      -5.713  16.221  69.400  1.00  0.00     0.000 HD 
HETATM    5  O   UNL     1      -8.473  17.302  68.236  1.00  0.00    -0.227 OA 
ENDROOT
BRANCH   3   6
HETATM    6  C   UNL     1      -7.710  15.075  68.196  1.00  0.00    -0.115 A  
HETATM    7  C   UNL     1      -8.405  14.713  67.030  1.00  0.00    -0.214 A  
HETATM    8  C   UNL     1      -8.619  13.364  66.714  1.00  0.00    -0.043 A  
HETATM    9  C   UNL     1      -8.149  12.356  67.566  1.00  0.00    -0.173 A  
HETATM   10  C   UNL     1      -7.409  12.712  68.697  1.00  0.00    -0.101 A  
HETATM   11  F   UNL     1      -6.523  14.334  70.128  1.00  0.00    -0.137 F  
HETATM   12  C   UNL     1      -7.204  14.057  69.006  1.00  0.00    -0.092 A  
BRANCH   9  13
HETATM   13  C   UNL     1      -8.507  10.936  67.288  1.00  0.00    -0.125 C  
HETATM   14  N   UNL     1      -7.864   9.957  67.866  1.00  0.00    -0.090 NA 
HETATM   15  N   UNL     1      -8.276   8.723  67.433  1.00  0.00    -0.109 NA 
HETATM   16  C   UNL     1      -7.797   7.501  67.845  1.00  0.00    -0.117 A  
HETATM   17  C   UNL     1      -9.609  10.670  66.273  1.00  0.00    -0.185 C  
HETATM   18  C   UNL     1      -8.467   6.580  67.070  1.00  0.00    -0.113 A  
HETATM   19  N   UNL     1      -9.373   7.183  66.245  1.00  0.00    -0.144 NA 
HETATM   20  N   UNL     1      -9.965   9.486  65.901  1.00  0.00    -0.294 NA 
HETATM   21  C   UNL     1      -9.265   8.474  66.478  1.00  0.00    -0.190 A  
BRANCH  16  22
HETATM   22  C   UNL     1      -6.820   7.303  68.945  1.00  0.00    -0.072 C  
BRANCH  22  23
HETATM   23  C   UNL     1      -7.140   6.146  69.862  1.00  0.00    -0.072 A  
HETATM   24  C   UNL     1      -6.466   4.077  70.934  1.00  0.00    -0.026 A  
HETATM   25  C   UNL     1      -6.208   5.121  70.042  1.00  0.00    -0.022 A  
HETATM   26  C   UNL     1      -7.655   3.996  71.642  1.00  0.00    -0.064 A  
HETATM   27  N   UNL     1      -7.850   2.959  72.477  1.00  0.00    -0.057 NA 
HETATM   28  C   UNL     1      -9.034   2.878  73.120  1.00  0.00    -0.082 A  
HETATM   29  C   UNL     1     -10.054   3.798  72.972  1.00  0.00    -0.217 A  
HETATM   30  C   UNL     1      -9.838   4.882  72.128  1.00  0.00    -0.226 A  
HETATM   31  C   UNL     1      -8.621   5.002  71.439  1.00  0.00    -0.132 A  
HETATM   32  C   UNL     1      -8.352   6.076  70.564  1.00  0.00    -0.128 A  
ENDBRANCH  22  23
ENDBRANCH  16  22
ENDBRANCH   9  13
ENDBRANCH   3   6
TORSDOF 4
ENDMDL
MODEL      200
REMARK 921   NORMALIZED FREE ENERGY PREDICTED BY IDOCK:   -2.89 KCAL/MOL
REMARK 922        TOTAL FREE ENERGY PREDICTED BY IDOCK:   -4.22 KCAL/MOL
REMARK 923 INTER-LIGAND FREE ENERGY PREDICTED BY IDOCK:   -3.61 KCAL/MOL
REMARK 924 INTRA-LIGAND FREE ENERGY PREDICTED BY IDOCK:   -0.61 KCAL/MOL
REMARK 927      BINDING AFFINITY PREDICTED BY RF-SCORE:    0.00 PKD
ROOT
HETATM    1  C   UNL     1      -5.891  18.318  69.875  1.00  0.00    -0.235 C  
HETATM    2  N   UNL     1      -6.456  17.059  69.460  1.00  0.00    -0.236 N  
HETATM    3  C   UNL     1      -7.683  16.988  68.838  1.00  0.00    -0.231 C  
HETATM    4  H   UNL     1      -5.936  16.199  69.631  1.00  0.00     0.000 HD 
HETATM    5  O   UNL     1      -8.345  17.982  68.556  1.00  0.00    -0.300 OA 
ENDROOT
BRANCH   3   6
HETATM    6  C   UNL     1      -8.219  15.631  68.531  1.00  0.00    -0.153 A  
HETATM    7  C   UNL     1      -9.398  15.205  69.166  1.00  0.00    -0.215 A  
HETATM    8  C   UNL     1      -9.892  13.908  68.965  1.00  0.00     0.047 A  
HETATM    9  C   UNL     1      -9.207  13.014  68.132  1.00  0.00    -0.212 A  
HETATM   10  C   UNL     1      -8.066  13.452  67.454  1.00  0.00    -0.178 A  
HETATM   11  F   UNL     1      -6.456  15.091  67.018  1.00  0.00    -0.081 F  
HETATM   12  C   UNL     1      -7.579  14.744  67.664  1.00  0.00    -0.174 A  
BRANCH   9  13
HETATM   13  C   UNL     1      -9.667  11.600  68.040  1.00  0.00    -0.182 C  
HETATM   14  N   UNL     1      -9.251  10.819  67.080  1.00  0.00    -0.147 NA 
HETATM   15  N   UNL     1      -9.837   9.580  67.110  1.00  0.00    -0.174 NA 
HETATM   16  C   UNL     1      -9.613   8.538  66.239  1.00  0.00    -0.236 A  
HETATM   17  C   UNL     1     -10.675  11.115  69.073  1.00  0.00    -0.225 C  
HETATM   18  C   UNL     1     -10.487   7.551  66.638  1.00  0.00    -0.131 A  
HETATM   19  N   UNL     1     -11.192   7.924  67.747  1.00  0.00     0.343 NA 
HETATM   20  N   UNL     1     -11.196   9.934  69.061  1.00  0.00    -0.142 NA 
HETATM   21  C   UNL     1     -10.787   9.142  68.037  1.00  0.00    -0.075 A  
BRANCH  16  22
HETATM   22  C   UNL     1      -8.581   8.536  65.172  1.00  0.00    -0.179 C  
BRANCH  22  23
HETATM   23  C   UNL     1      -7.880   7.211  64.986  1.00  0.00    -0.125 A  
HETATM   24  C   UNL     1      -7.191   5.393  63.536  1.00  0.00    -0.049 A  
HETATM   25  C   UNL     1      -7.887   6.588  63.737  1.00  0.00    -0.107 A  
HETATM   26  C   UNL     1      -6.501   4.767  64.562  1.00  0.00    -0.039 A  
HETATM   27  N   UNL     1      -5.860   3.611  64.310  1.00  0.00    -0.014 NA 
HETATM   28  C   UNL     1      -5.234   2.998  65.336  1.00  0.00    -0.009 A  
HETATM   29  C   UNL     1      -5.212   3.488  66.627  1.00  0.00    -0.012 A  
HETATM   30  C   UNL     1      -5.854   4.696  66.878  1.00  0.00    -0.026 A  
HETATM   31  C   UNL     1      -6.518   5.365  65.839  1.00  0.00    -0.040 A  
HETATM   32  C   UNL     1      -7.193   6.588  66.039  1.00  0.00    -0.071 A  
ENDBRANCH  22  23
ENDBRANCH  16  22
ENDBRANCH   9  13
ENDBRANCH   3   6
TORSDOF 4
ENDMDL
MODEL      201
REMARK 921   NORMALIZED FREE ENERGY PREDICTED BY IDOCK:   -2.84 KCAL/MOL
REMARK 922        TOTAL FREE ENERGY PREDICTED BY IDOCK:   -4.16 KCAL/MOL
REMARK 923 INTER-LIGAND FREE ENERGY PREDICTED BY IDOCK:   -4.52 KCAL/MOL
REMARK 924 INTRA-LIGAND FREE ENERGY PREDICTED BY IDOCK:    0.36 KCAL/MOL
REMARK 927      BINDING AFFINITY PREDICTED BY RF-SCORE:    0.00 PKD
ROOT
HETATM    1  C   UNL     1      -5.353  13.567  71.581  1.00  0.00    -0.190 C  
HETATM    2  N   UNL     1      -5.597  12.546  70.592  1.00  0.00    -0.172 N  
HETATM    3  C   UNL     1      -5.741  11.222  70.943  1.00  0.00    -0.028 C  
HETATM    4  H   UNL     1      -5.665  12.811  69.610  1.00  0.00     0.000 HD 
HETATM    5  O   UNL     1      -5.720  10.835  72.107  1.00  0.00    -0.134 OA 
ENDROOT
BRANCH   3   6
HETATM    6  C   UNL     1      -5.899  10.233  69.837  1.00  0.00    -0.051 A  
HETATM    7  C   UNL     1      -6.386  10.674  68.595  1.00  0.00    -0.046 A  
HETATM    8  C   UNL     1      -6.623   9.765  67.555  1.00  0.00    -0.069 A  
HETATM    9  C   UNL     1      -6.387   8.398  67.746  1.00  0.00    -0.053 A  
HETATM   10  C   UNL     1      -5.850   7.963  68.961  1.00  0.00    -0.034 A  
HETATM   11  F   UNL     1      -5.145   8.390  71.149  1.00  0.00    -0.028 F  
HETATM   12  C   UNL     1      -5.620   8.875  69.992  1.00  0.00    -0.028 A  
BRANCH   9  13
HETATM   13  C   UNL     1      -6.776   7.431  66.681  1.00  0.00    -0.061 C  
HETATM   14  N   UNL     1      -7.148   7.846  65.500  1.00  0.00    -0.059 NA 
HETATM   15  N   UNL     1      -7.542   6.823  64.677  1.00  0.00    -0.098 NA 
HETATM   16  C   UNL     1      -7.989   6.932  63.380  1.00  0.00    -0.069 A  
HETATM   17  C   UNL     1      -6.773   5.950  67.034  1.00  0.00    -0.061 C  
HETATM   18  C   UNL     1      -8.332   5.648  63.016  1.00  0.00    -0.069 A  
HETATM   19  N   UNL     1      -8.061   4.755  64.014  1.00  0.00    -0.102 NA 
HETATM   20  N   UNL     1      -7.150   5.022  66.220  1.00  0.00    -0.071 NA 
HETATM   21  C   UNL     1      -7.572   5.465  65.008  1.00  0.00    -0.080 A  
BRANCH  16  22
HETATM   22  C   UNL     1      -7.997   8.190  62.591  1.00  0.00    -0.156 C  
BRANCH  22  23
HETATM   23  C   UNL     1      -8.725   9.336  63.254  1.00  0.00    -0.190 A  
HETATM   24  C   UNL     1      -9.647  11.576  63.138  1.00  0.00    -0.381 A  
HETATM   25  C   UNL     1      -8.922  10.531  62.560  1.00  0.00    -0.303 A  
HETATM   26  C   UNL     1     -10.165  11.486  64.420  1.00  0.00    -0.300 A  
HETATM   27  N   UNL     1     -10.844  12.531  64.928  1.00  0.00    -0.283 NA 
HETATM   28  C   UNL     1     -11.299  12.435  66.195  1.00  0.00    -0.352 A  
HETATM   29  C   UNL     1     -11.110  11.327  66.998  1.00  0.00    -0.356 A  
HETATM   30  C   UNL     1     -10.430  10.240  66.461  1.00  0.00    -0.241 A  
HETATM   31  C   UNL     1      -9.940  10.299  65.148  1.00  0.00    -0.395 A  
HETATM   32  C   UNL     1      -9.236   9.229  64.556  1.00  0.00    -0.065 A  
ENDBRANCH  22  23
ENDBRANCH  16  22
ENDBRANCH   9  13
ENDBRANCH   3   6
TORSDOF 4
ENDMDL
MODEL      202
REMARK 921   NORMALIZED FREE ENERGY PREDICTED BY IDOCK:   -2.81 KCAL/MOL
REMARK 922        TOTAL FREE ENERGY PREDICTED BY IDOCK:   -4.12 KCAL/MOL
REMARK 923 INTER-LIGAND FREE ENERGY PREDICTED BY IDOCK:   -3.70 KCAL/MOL
REMARK 924 INTRA-LIGAND FREE ENERGY PREDICTED BY IDOCK:   -0.42 KCAL/MOL
REMARK 927      BINDING AFFINITY PREDICTED BY RF-SCORE:    0.00 PKD
ROOT
HETATM    1  C   UNL     1     -12.065  11.545  62.796  1.00  0.00     0.821 C  
HETATM    2  N   UNL     1     -11.395  11.299  64.049  1.00  0.00    -0.393 N  
HETATM    3  C   UNL     1     -10.519  12.214  64.590  1.00  0.00    -0.299 C  
HETATM    4  H   UNL     1     -11.573  10.427  64.546  1.00  0.00     0.000 HD 
HETATM    5  O   UNL     1     -10.292  13.304  64.074  1.00  0.00    -0.354 OA 
ENDROOT
BRANCH   3   6
HETATM    6  C   UNL     1      -9.808  11.826  65.842  1.00  0.00    -0.265 A  
HETATM    7  C   UNL     1      -9.141  12.816  66.581  1.00  0.00    -0.188 A  
HETATM    8  C   UNL     1      -8.396  12.481  67.721  1.00  0.00    -0.170 A  
HETATM    9  C   UNL     1      -8.300  11.145  68.132  1.00  0.00    -0.136 A  
HETATM   10  C   UNL     1      -9.009  10.165  67.433  1.00  0.00    -0.142 A  
HETATM   11  F   UNL     1     -10.367   9.515  65.644  1.00  0.00    -0.352 F  
HETATM   12  C   UNL     1      -9.745  10.508  66.297  1.00  0.00    -0.205 A  
BRANCH   9  13
HETATM   13  C   UNL     1      -7.394  10.789  69.260  1.00  0.00    -0.129 C  
HETATM   14  N   UNL     1      -7.170   9.542  69.574  1.00  0.00    -0.069 NA 
HETATM   15  N   UNL     1      -6.374   9.407  70.683  1.00  0.00    -0.066 NA 
HETATM   16  C   UNL     1      -5.961   8.230  71.265  1.00  0.00    -0.035 A  
HETATM   17  C   UNL     1      -6.780  11.929  70.061  1.00  0.00     0.239 C  
HETATM   18  C   UNL     1      -5.254   8.619  72.382  1.00  0.00    -0.046 A  
HETATM   19  N   UNL     1      -5.171   9.979  72.474  1.00  0.00    -0.272 NA 
HETATM   20  N   UNL     1      -6.031  11.749  71.097  1.00  0.00    -0.250 NA 
HETATM   21  C   UNL     1      -5.835  10.450  71.440  1.00  0.00     0.165 A  
BRANCH  16  22
HETATM   22  C   UNL     1      -6.206   6.878  70.704  1.00  0.00    -0.032 C  
BRANCH  22  23
HETATM   23  C   UNL     1      -7.118   6.012  71.541  1.00  0.00    -0.078 A  
HETATM   24  C   UNL     1      -7.410   4.182  73.106  1.00  0.00    -0.070 A  
HETATM   25  C   UNL     1      -6.587   4.952  72.279  1.00  0.00    -0.043 A  
HETATM   26  C   UNL     1      -8.774   4.411  73.200  1.00  0.00    -0.107 A  
HETATM   27  N   UNL     1      -9.516   3.627  74.003  1.00  0.00    -0.092 NA 
HETATM   28  C   UNL     1     -10.848   3.842  74.042  1.00  0.00    -0.195 A  
HETATM   29  C   UNL     1     -11.491   4.819  73.308  1.00  0.00    -0.361 A  
HETATM   30  C   UNL     1     -10.717   5.644  72.499  1.00  0.00    -0.285 A  
HETATM   31  C   UNL     1      -9.329   5.453  72.428  1.00  0.00    -0.158 A  
HETATM   32  C   UNL     1      -8.497   6.254  71.617  1.00  0.00    -0.129 A  
ENDBRANCH  22  23
ENDBRANCH  16  22
ENDBRANCH   9  13
ENDBRANCH   3   6
TORSDOF 4
ENDMDL
MODEL      203
REMARK 921   NORMALIZED FREE ENERGY PREDICTED BY IDOCK:   -2.80 KCAL/MOL
REMARK 922        TOTAL FREE ENERGY PREDICTED BY IDOCK:   -4.12 KCAL/MOL
REMARK 923 INTER-LIGAND FREE ENERGY PREDICTED BY IDOCK:   -3.79 KCAL/MOL
REMARK 924 INTRA-LIGAND FREE ENERGY PREDICTED BY IDOCK:   -0.33 KCAL/MOL
REMARK 927      BINDING AFFINITY PREDICTED BY RF-SCORE:    0.00 PKD
ROOT
HETATM    1  C   UNL     1     -12.539   8.495  72.693  1.00  0.00    -0.195 C  
HETATM    2  N   UNL     1     -11.815   7.836  71.635  1.00  0.00    -0.276 N  
HETATM    3  C   UNL     1     -11.259   8.543  70.592  1.00  0.00    -0.252 C  
HETATM    4  H   UNL     1     -11.712   6.822  71.659  1.00  0.00     0.000 HD 
HETATM    5  O   UNL     1     -11.299   9.767  70.520  1.00  0.00    -0.269 OA 
ENDROOT
BRANCH   3   6
HETATM    6  C   UNL     1     -10.609   7.759  69.502  1.00  0.00    -0.221 A  
HETATM    7  C   UNL     1     -10.970   6.413  69.324  1.00  0.00    -0.418 A  
HETATM    8  C   UNL     1     -10.327   5.620  68.362  1.00  0.00    -0.258 A  
HETATM    9  C   UNL     1      -9.306   6.161  67.571  1.00  0.00    -0.113 A  
HETATM   10  C   UNL     1      -8.984   7.514  67.706  1.00  0.00    -0.131 A  
HETATM   11  F   UNL     1      -9.242   9.575  68.779  1.00  0.00    -0.133 F  
HETATM   12  C   UNL     1      -9.626   8.295  68.669  1.00  0.00    -0.149 A  
BRANCH   9  13
HETATM   13  C   UNL     1      -8.540   5.270  66.655  1.00  0.00    -0.110 C  
HETATM   14  N   UNL     1      -7.952   4.192  67.101  1.00  0.00    -0.096 NA 
HETATM   15  N   UNL     1      -7.232   3.540  66.134  1.00  0.00    -0.066 NA 
HETATM   16  C   UNL     1      -6.503   2.383  66.286  1.00  0.00    -0.028 A  
HETATM   17  C   UNL     1      -8.425   5.687  65.195  1.00  0.00    -0.144 C  
HETATM   18  C   UNL     1      -5.908   2.177  65.061  1.00  0.00    -0.017 A  
HETATM   19  N   UNL     1      -6.288   3.125  64.154  1.00  0.00    -0.022 NA 
HETATM   20  N   UNL     1      -7.737   5.034  64.320  1.00  0.00    -0.081 NA 
HETATM   21  C   UNL     1      -7.098   3.936  64.800  1.00  0.00    -0.065 A  
BRANCH  16  22
HETATM   22  C   UNL     1      -6.476   1.557  67.519  1.00  0.00    -0.024 C  
BRANCH  22  23
HETATM   23  C   UNL     1      -6.658   2.340  68.798  1.00  0.00    -0.029 A  
HETATM   24  C   UNL     1      -5.743   3.795  70.509  1.00  0.00    -0.013 A  
HETATM   25  C   UNL     1      -5.574   3.017  69.361  1.00  0.00    -0.017 A  
HETATM   26  C   UNL     1      -6.968   3.899  71.150  1.00  0.00    -0.032 A  
HETATM   27  N   UNL     1      -7.065   4.654  72.260  1.00  0.00    -0.064 NA 
HETATM   28  C   UNL     1      -8.257   4.702  72.890  1.00  0.00    -0.100 A  
HETATM   29  C   UNL     1      -9.382   4.024  72.461  1.00  0.00    -0.160 A  
HETATM   30  C   UNL     1      -9.284   3.267  71.299  1.00  0.00    -0.192 A  
HETATM   31  C   UNL     1      -8.062   3.188  70.614  1.00  0.00    -0.061 A  
HETATM   32  C   UNL     1      -7.904   2.427  69.437  1.00  0.00    -0.050 A  
ENDBRANCH  22  23
ENDBRANCH  16  22
ENDBRANCH   9  13
ENDBRANCH   3   6
TORSDOF 4
ENDMDL
MODEL      204
REMARK 921   NORMALIZED FREE ENERGY PREDICTED BY IDOCK:   -2.67 KCAL/MOL
REMARK 922        TOTAL FREE ENERGY PREDICTED BY IDOCK:   -3.95 KCAL/MOL
REMARK 923 INTER-LIGAND FREE ENERGY PREDICTED BY IDOCK:   -3.58 KCAL/MOL
REMARK 924 INTRA-LIGAND FREE ENERGY PREDICTED BY IDOCK:   -0.37 KCAL/MOL
REMARK 927      BINDING AFFINITY PREDICTED BY RF-SCORE:    0.00 PKD
ROOT
HETATM    1  C   UNL     1      -5.367  14.545  72.831  1.00  0.00    -0.136 C  
HETATM    2  N   UNL     1      -5.919  13.957  71.636  1.00  0.00    -0.336 N  
HETATM    3  C   UNL     1      -5.789  12.612  71.368  1.00  0.00     0.525 C  
HETATM    4  H   UNL     1      -6.418  14.549  70.974  1.00  0.00     0.000 HD 
HETATM    5  O   UNL     1      -5.245  11.829  72.140  1.00  0.00    -0.346 OA 
ENDROOT
BRANCH   3   6
HETATM    6  C   UNL     1      -6.316  12.119  70.063  1.00  0.00    -0.035 A  
HETATM    7  C   UNL     1      -6.123  12.900  68.912  1.00  0.00    -0.083 A  
HETATM    8  C   UNL     1      -6.670  12.511  67.681  1.00  0.00    -0.136 A  
HETATM    9  C   UNL     1      -7.428  11.338  67.587  1.00  0.00    -0.101 A  
HETATM   10  C   UNL     1      -7.575  10.528  68.717  1.00  0.00    -0.101 A  
HETATM   11  F   UNL     1      -7.242  10.128  70.996  1.00  0.00    -0.008 F  
HETATM   12  C   UNL     1      -7.030  10.926  69.939  1.00  0.00    -0.090 A  
BRANCH   9  13
HETATM   13  C   UNL     1      -8.118  11.012  66.306  1.00  0.00    -0.159 C  
HETATM   14  N   UNL     1      -7.719  10.017  65.562  1.00  0.00    -0.129 NA 
HETATM   15  N   UNL     1      -8.421   9.915  64.388  1.00  0.00    -0.163 NA 
HETATM   16  C   UNL     1      -8.240   8.979  63.396  1.00  0.00    -0.182 A  
HETATM   17  C   UNL     1      -9.269  11.911  65.875  1.00  0.00    -0.141 C  
HETATM   18  C   UNL     1      -9.123   9.343  62.403  1.00  0.00    -0.189 A  
HETATM   19  N   UNL     1      -9.871  10.425  62.770  1.00  0.00    -0.198 NA 
HETATM   20  N   UNL     1      -9.902  11.772  64.759  1.00  0.00    -0.236 NA 
HETATM   21  C   UNL     1      -9.456  10.758  63.973  1.00  0.00    -0.272 A  
BRANCH  16  22
HETATM   22  C   UNL     1      -7.322   7.816  63.488  1.00  0.00    -0.097 C  
BRANCH  22  23
HETATM   23  C   UNL     1      -7.859   6.660  64.298  1.00  0.00    -0.115 A  
HETATM   24  C   UNL     1      -9.192   5.845  66.153  1.00  0.00    -0.164 A  
HETATM   25  C   UNL     1      -8.637   6.905  65.431  1.00  0.00    -0.054 A  
HETATM   26  C   UNL     1      -8.968   4.523  65.801  1.00  0.00    -0.131 A  
HETATM   27  N   UNL     1      -9.519   3.545  66.543  1.00  0.00    -0.181 NA 
HETATM   28  C   UNL     1      -9.249   2.267  66.207  1.00  0.00     0.010 A  
HETATM   29  C   UNL     1      -8.443   1.905  65.145  1.00  0.00    -0.094 A  
HETATM   30  C   UNL     1      -7.896   2.918  64.365  1.00  0.00    -0.078 A  
HETATM   31  C   UNL     1      -8.151   4.261  64.682  1.00  0.00    -0.091 A  
HETATM   32  C   UNL     1      -7.616   5.328  63.930  1.00  0.00    -0.071 A  
ENDBRANCH  22  23
ENDBRANCH  16  22
ENDBRANCH   9  13
ENDBRANCH   3   6
TORSDOF 4
ENDMDL
MODEL      205
REMARK 921   NORMALIZED FREE ENERGY PREDICTED BY IDOCK:   -2.25 KCAL/MOL
REMARK 922        TOTAL FREE ENERGY PREDICTED BY IDOCK:   -3.44 KCAL/MOL
REMARK 923 INTER-LIGAND FREE ENERGY PREDICTED BY IDOCK:   -2.53 KCAL/MOL
REMARK 924 INTRA-LIGAND FREE ENERGY PREDICTED BY IDOCK:   -0.91 KCAL/MOL
REMARK 927      BINDING AFFINITY PREDICTED BY RF-SCORE:    0.00 PKD
ROOT
HETATM    1  C   UNL     1      -5.946   1.861  72.929  1.00  0.00    -0.008 C  
HETATM    2  N   UNL     1      -5.681   2.641  71.746  1.00  0.00    -0.008 N  
HETATM    3  C   UNL     1      -6.688   3.297  71.073  1.00  0.00    -0.032 C  
HETATM    4  H   UNL     1      -4.724   2.710  71.399  1.00  0.00     0.000 HD 
HETATM    5  O   UNL     1      -7.853   3.300  71.457  1.00  0.00    -0.054 OA 
ENDROOT
BRANCH   3   6
HETATM    6  C   UNL     1      -6.323   4.002  69.811  1.00  0.00    -0.028 A  
HETATM    7  C   UNL     1      -5.756   5.285  69.887  1.00  0.00    -0.016 A  
HETATM    8  C   UNL     1      -5.471   6.013  68.724  1.00  0.00    -0.007 A  
HETATM    9  C   UNL     1      -5.760   5.472  67.465  1.00  0.00    -0.013 A  
HETATM   10  C   UNL     1      -6.272   4.174  67.383  1.00  0.00    -0.036 A  
HETATM   11  F   UNL     1      -7.087   2.234  68.403  1.00  0.00    -0.042 F  
HETATM   12  C   UNL     1      -6.556   3.458  68.547  1.00  0.00    -0.041 A  
BRANCH   9  13
HETATM   13  C   UNL     1      -5.582   6.312  66.247  1.00  0.00    -0.013 C  
HETATM   14  N   UNL     1      -5.553   7.615  66.329  1.00  0.00    -0.028 NA 
HETATM   15  N   UNL     1      -5.460   8.223  65.103  1.00  0.00    -0.039 NA 
HETATM   16  C   UNL     1      -5.411   9.575  64.853  1.00  0.00    -0.055 A  
HETATM   17  C   UNL     1      -5.487   5.601  64.905  1.00  0.00    -0.013 C  
HETATM   18  C   UNL     1      -5.401   9.679  63.479  1.00  0.00    -0.073 A  
HETATM   19  N   UNL     1      -5.384   8.450  62.884  1.00  0.00    -0.067 NA 
HETATM   20  N   UNL     1      -5.395   6.220  63.775  1.00  0.00    -0.018 NA 
HETATM   21  C   UNL     1      -5.405   7.575  63.866  1.00  0.00    -0.033 A  
BRANCH  16  22
HETATM   22  C   UNL     1      -5.319  10.625  65.899  1.00  0.00    -0.111 C  
BRANCH  22  23
HETATM   23  C   UNL     1      -6.607  10.872  66.650  1.00  0.00    -0.120 A  
HETATM   24  C   UNL     1      -7.763  11.278  68.742  1.00  0.00    -0.138 A  
HETATM   25  C   UNL     1      -6.590  10.989  68.041  1.00  0.00    -0.062 A  
HETATM   26  C   UNL     1      -8.983  11.424  68.100  1.00  0.00    -0.169 A  
HETATM   27  N   UNL     1     -10.081  11.689  68.832  1.00  0.00    -0.146 NA 
HETATM   28  C   UNL     1     -11.263  11.782  68.187  1.00  0.00    -0.260 A  
HETATM   29  C   UNL     1     -11.410  11.622  66.823  1.00  0.00    -0.354 A  
HETATM   30  C   UNL     1     -10.270  11.374  66.068  1.00  0.00    -0.289 A  
HETATM   31  C   UNL     1      -9.021  11.268  66.699  1.00  0.00    -0.180 A  
HETATM   32  C   UNL     1      -7.833  11.009  65.983  1.00  0.00    -0.077 A  
ENDBRANCH  22  23
ENDBRANCH  16  22
ENDBRANCH   9  13
ENDBRANCH   3   6
TORSDOF 4
ENDMDL
MODEL      206
REMARK 921   NORMALIZED FREE ENERGY PREDICTED BY IDOCK:   -2.13 KCAL/MOL
REMARK 922        TOTAL FREE ENERGY PREDICTED BY IDOCK:   -3.29 KCAL/MOL
REMARK 923 INTER-LIGAND FREE ENERGY PREDICTED BY IDOCK:   -3.14 KCAL/MOL
REMARK 924 INTRA-LIGAND FREE ENERGY PREDICTED BY IDOCK:   -0.15 KCAL/MOL
REMARK 927      BINDING AFFINITY PREDICTED BY RF-SCORE:    0.00 PKD
ROOT
HETATM    1  C   UNL     1      -5.455  14.694  72.958  1.00  0.00    -0.028 C  
HETATM    2  N   UNL     1      -5.953  14.060  71.763  1.00  0.00    -0.290 N  
HETATM    3  C   UNL     1      -5.725  12.726  71.505  1.00  0.00     0.342 C  
HETATM    4  H   UNL     1      -6.487  14.612  71.092  1.00  0.00     0.000 HD 
HETATM    5  O   UNL     1      -5.135  11.989  72.287  1.00  0.00    -0.349 OA 
ENDROOT
BRANCH   3   6
HETATM    6  C   UNL     1      -6.204  12.189  70.198  1.00  0.00    -0.061 A  
HETATM    7  C   UNL     1      -6.031  12.964  69.039  1.00  0.00    -0.084 A  
HETATM    8  C   UNL     1      -6.536  12.531  67.805  1.00  0.00    -0.121 A  
HETATM    9  C   UNL     1      -7.233  11.319  67.715  1.00  0.00    -0.088 A  
HETATM   10  C   UNL     1      -7.357  10.519  68.854  1.00  0.00    -0.098 A  
HETATM   11  F   UNL     1      -7.045  10.167  71.145  1.00  0.00     0.045 F  
HETATM   12  C   UNL     1      -6.855  10.960  70.079  1.00  0.00    -0.088 A  
BRANCH   9  13
HETATM   13  C   UNL     1      -7.883  10.941  66.429  1.00  0.00    -0.154 C  
HETATM   14  N   UNL     1      -7.332  10.069  65.628  1.00  0.00    -0.120 NA 
HETATM   15  N   UNL     1      -8.031   9.905  64.460  1.00  0.00    -0.139 NA 
HETATM   16  C   UNL     1      -7.711   9.065  63.417  1.00  0.00    -0.124 A  
HETATM   17  C   UNL     1      -9.181  11.645  66.060  1.00  0.00    -0.208 C  
HETATM   18  C   UNL     1      -8.665   9.317  62.456  1.00  0.00    -0.230 A  
HETATM   19  N   UNL     1      -9.583  10.231  62.889  1.00  0.00    -0.302 NA 
HETATM   20  N   UNL     1      -9.805  11.452  64.946  1.00  0.00    -0.249 NA 
HETATM   21  C   UNL     1      -9.205  10.572  64.103  1.00  0.00    -0.249 A  
BRANCH  16  22
HETATM   22  C   UNL     1      -6.602   8.078  63.436  1.00  0.00    -0.075 C  
BRANCH  22  23
HETATM   23  C   UNL     1      -6.679   7.076  64.564  1.00  0.00    -0.046 A  
HETATM   24  C   UNL     1      -6.968   4.786  65.312  1.00  0.00    -0.062 A  
HETATM   25  C   UNL     1      -6.955   5.735  64.286  1.00  0.00    -0.051 A  
HETATM   26  C   UNL     1      -6.746   5.136  66.635  1.00  0.00    -0.061 A  
HETATM   27  N   UNL     1      -6.784   4.179  67.580  1.00  0.00    -0.046 NA 
HETATM   28  C   UNL     1      -6.609   4.552  68.865  1.00  0.00    -0.045 A  
HETATM   29  C   UNL     1      -6.393   5.857  69.265  1.00  0.00    -0.041 A  
HETATM   30  C   UNL     1      -6.328   6.838  68.282  1.00  0.00    -0.031 A  
HETATM   31  C   UNL     1      -6.505   6.493  66.934  1.00  0.00    -0.043 A  
HETATM   32  C   UNL     1      -6.459   7.449  65.898  1.00  0.00    -0.045 A  
ENDBRANCH  22  23
ENDBRANCH  16  22
ENDBRANCH   9  13
ENDBRANCH   3   6
TORSDOF 4
ENDMDL
MODEL      207
REMARK 921   NORMALIZED FREE ENERGY PREDICTED BY IDOCK:   -1.99 KCAL/MOL
REMARK 922        TOTAL FREE ENERGY PREDICTED BY IDOCK:   -3.12 KCAL/MOL
REMARK 923 INTER-LIGAND FREE ENERGY PREDICTED BY IDOCK:   -3.80 KCAL/MOL
REMARK 924 INTRA-LIGAND FREE ENERGY PREDICTED BY IDOCK:    0.68 KCAL/MOL
REMARK 927      BINDING AFFINITY PREDICTED BY RF-SCORE:    0.00 PKD
ROOT
HETATM    1  C   UNL     1      -5.743  14.219  73.350  1.00  0.00    -0.014 C  
HETATM    2  N   UNL     1      -5.891  13.513  72.101  1.00  0.00     0.031 N  
HETATM    3  C   UNL     1      -5.542  12.187  71.976  1.00  0.00     0.786 C  
HETATM    4  H   UNL     1      -6.264  14.008  71.291  1.00  0.00     0.000 HD 
HETATM    5  O   UNL     1      -5.133  11.514  72.917  1.00  0.00    -0.328 OA 
ENDROOT
BRANCH   3   6
HETATM    6  C   UNL     1      -5.648  11.575  70.620  1.00  0.00    -0.137 A  
HETATM    7  C   UNL     1      -5.282  12.338  69.499  1.00  0.00    -0.068 A  
HETATM    8  C   UNL     1      -5.441  11.828  68.202  1.00  0.00    -0.044 A  
HETATM    9  C   UNL     1      -5.978  10.549  68.008  1.00  0.00    -0.047 A  
HETATM   10  C   UNL     1      -6.290   9.766  69.123  1.00  0.00    -0.040 A  
HETATM   11  F   UNL     1      -6.491   9.498  71.437  1.00  0.00    -0.084 F  
HETATM   12  C   UNL     1      -6.133  10.283  70.410  1.00  0.00    -0.110 A  
BRANCH   9  13
HETATM   13  C   UNL     1      -6.270  10.079  66.625  1.00  0.00    -0.069 C  
HETATM   14  N   UNL     1      -7.271  10.571  65.946  1.00  0.00    -0.135 NA 
HETATM   15  N   UNL     1      -7.434   9.966  64.725  1.00  0.00    -0.131 NA 
HETATM   16  C   UNL     1      -8.393  10.254  63.782  1.00  0.00    -0.165 A  
HETATM   17  C   UNL     1      -5.394   8.973  66.054  1.00  0.00    -0.040 C  
HETATM   18  C   UNL     1      -8.189   9.333  62.778  1.00  0.00    -0.172 A  
HETATM   19  N   UNL     1      -7.113   8.534  63.043  1.00  0.00    -0.090 NA 
HETATM   20  N   UNL     1      -5.586   8.438  64.895  1.00  0.00    -0.043 NA 
HETATM   21  C   UNL     1      -6.652   8.929  64.211  1.00  0.00    -0.078 A  
BRANCH  16  22
HETATM   22  C   UNL     1      -9.356  11.381  63.873  1.00  0.00    -0.099 C  
BRANCH  22  23
HETATM   23  C   UNL     1      -9.897  11.628  65.261  1.00  0.00    -0.279 A  
HETATM   24  C   UNL     1     -11.065  13.067  66.826  1.00  0.00    -0.316 A  
HETATM   25  C   UNL     1     -10.505  12.848  65.564  1.00  0.00    -0.305 A  
HETATM   26  C   UNL     1     -11.009  12.110  67.827  1.00  0.00    -0.233 A  
HETATM   27  N   UNL     1     -11.555  12.385  69.027  1.00  0.00    -0.290 NA 
HETATM   28  C   UNL     1     -11.448  11.454  69.998  1.00  0.00    -0.247 A  
HETATM   29  C   UNL     1     -10.814  10.238  69.833  1.00  0.00    -0.355 A  
HETATM   30  C   UNL     1     -10.274   9.948  68.584  1.00  0.00    -0.197 A  
HETATM   31  C   UNL     1     -10.363  10.889  67.547  1.00  0.00    -0.237 A  
HETATM   32  C   UNL     1      -9.825  10.651  66.264  1.00  0.00    -0.263 A  
ENDBRANCH  22  23
ENDBRANCH  16  22
ENDBRANCH   9  13
ENDBRANCH   3   6
TORSDOF 4
ENDMDL
MODEL      208
REMARK 921   NORMALIZED FREE ENERGY PREDICTED BY IDOCK:   -1.77 KCAL/MOL
REMARK 922        TOTAL FREE ENERGY PREDICTED BY IDOCK:   -2.85 KCAL/MOL
REMARK 923 INTER-LIGAND FREE ENERGY PREDICTED BY IDOCK:   -2.25 KCAL/MOL
REMARK 924 INTRA-LIGAND FREE ENERGY PREDICTED BY IDOCK:   -0.60 KCAL/MOL
REMARK 927      BINDING AFFINITY PREDICTED BY RF-SCORE:    0.00 PKD
ROOT
HETATM    1  C   UNL     1      -5.775  14.208  73.364  1.00  0.00    -0.002 C  
HETATM    2  N   UNL     1      -5.867  13.520  72.101  1.00  0.00     0.031 N  
HETATM    3  C   UNL     1      -5.508  12.196  71.972  1.00  0.00     0.542 C  
HETATM    4  H   UNL     1      -6.205  14.025  71.282  1.00  0.00     0.000 HD 
HETATM    5  O   UNL     1      -5.138  11.511  72.920  1.00  0.00    -0.328 OA 
ENDROOT
BRANCH   3   6
HETATM    6  C   UNL     1      -5.554  11.603  70.604  1.00  0.00    -0.143 A  
HETATM    7  C   UNL     1      -5.162  12.390  69.508  1.00  0.00    -0.072 A  
HETATM    8  C   UNL     1      -5.264  11.897  68.200  1.00  0.00    -0.046 A  
HETATM    9  C   UNL     1      -5.770  10.611  67.968  1.00  0.00    -0.042 A  
HETATM   10  C   UNL     1      -6.107   9.806  69.059  1.00  0.00    -0.041 A  
HETATM   11  F   UNL     1      -6.387   9.499  71.360  1.00  0.00    -0.078 F  
HETATM   12  C   UNL     1      -6.006  10.306  70.358  1.00  0.00    -0.096 A  
BRANCH   9  13
HETATM   13  C   UNL     1      -6.003  10.157  66.568  1.00  0.00    -0.062 C  
HETATM   14  N   UNL     1      -6.772   9.133  66.313  1.00  0.00    -0.070 NA 
HETATM   15  N   UNL     1      -6.808   8.814  64.980  1.00  0.00    -0.072 NA 
HETATM   16  C   UNL     1      -7.519   7.792  64.394  1.00  0.00    -0.099 A  
HETATM   17  C   UNL     1      -5.274  10.896  65.454  1.00  0.00    -0.123 C  
HETATM   18  C   UNL     1      -7.166   7.835  63.063  1.00  0.00    -0.091 A  
HETATM   19  N   UNL     1      -6.317   8.872  62.803  1.00  0.00    -0.091 NA 
HETATM   20  N   UNL     1      -5.343  10.558  64.210  1.00  0.00    -0.149 NA 
HETATM   21  C   UNL     1      -6.114   9.469  63.958  1.00  0.00    -0.095 A  
BRANCH  16  22
HETATM   22  C   UNL     1      -8.491   6.923  65.105  1.00  0.00    -0.029 C  
BRANCH  22  23
HETATM   23  C   UNL     1      -8.209   6.747  66.578  1.00  0.00    -0.117 A  
HETATM   24  C   UNL     1      -6.872   5.770  68.351  1.00  0.00    -0.063 A  
HETATM   25  C   UNL     1      -7.184   5.894  66.994  1.00  0.00    -0.075 A  
HETATM   26  C   UNL     1      -7.579   6.450  69.330  1.00  0.00    -0.099 A  
HETATM   27  N   UNL     1      -7.239   6.279  70.620  1.00  0.00    -0.072 NA 
HETATM   28  C   UNL     1      -7.972   6.917  71.557  1.00  0.00    -0.104 A  
HETATM   29  C   UNL     1      -9.047   7.735  71.268  1.00  0.00    -0.153 A  
HETATM   30  C   UNL     1      -9.378   7.929  69.931  1.00  0.00    -0.156 A  
HETATM   31  C   UNL     1      -8.642   7.283  68.926  1.00  0.00    -0.129 A  
HETATM   32  C   UNL     1      -8.940   7.438  67.555  1.00  0.00    -0.126 A  
ENDBRANCH  22  23
ENDBRANCH  16  22
ENDBRANCH   9  13
ENDBRANCH   3   6
TORSDOF 4
ENDMDL
MODEL      209
REMARK 921   NORMALIZED FREE ENERGY PREDICTED BY IDOCK:   -1.67 KCAL/MOL
REMARK 922        TOTAL FREE ENERGY PREDICTED BY IDOCK:   -2.71 KCAL/MOL
REMARK 923 INTER-LIGAND FREE ENERGY PREDICTED BY IDOCK:   -5.12 KCAL/MOL
REMARK 924 INTRA-LIGAND FREE ENERGY PREDICTED BY IDOCK:    2.41 KCAL/MOL
REMARK 927      BINDING AFFINITY PREDICTED BY RF-SCORE:    0.00 PKD
ROOT
HETATM    1  C   UNL     1      -9.979   5.341  68.184  1.00  0.00    -0.155 C  
HETATM    2  N   UNL     1      -9.608   6.734  68.156  1.00  0.00    -0.123 N  
HETATM    3  C   UNL     1      -9.320   7.427  69.312  1.00  0.00    -0.154 C  
HETATM    4  H   UNL     1      -9.557   7.218  67.261  1.00  0.00     0.000 HD 
HETATM    5  O   UNL     1      -9.313   6.900  70.420  1.00  0.00    -0.159 OA 
ENDROOT
BRANCH   3   6
HETATM    6  C   UNL     1      -9.036   8.885  69.184  1.00  0.00    -0.140 A  
HETATM    7  C   UNL     1      -9.812   9.797  69.919  1.00  0.00    -0.279 A  
HETATM    8  C   UNL     1      -9.630  11.179  69.768  1.00  0.00     0.748 A  
HETATM    9  C   UNL     1      -8.673  11.669  68.870  1.00  0.00     0.078 A  
HETATM   10  C   UNL     1      -7.860  10.766  68.180  1.00  0.00    -0.112 A  
HETATM   11  F   UNL     1      -7.270   8.576  67.611  1.00  0.00    -0.078 F  
HETATM   12  C   UNL     1      -8.052   9.392  68.333  1.00  0.00    -0.109 A  
BRANCH   9  13
HETATM   13  C   UNL     1      -8.589  13.136  68.619  1.00  0.00     0.036 C  
HETATM   14  N   UNL     1      -9.659  13.883  68.636  1.00  0.00    -0.186 NA 
HETATM   15  N   UNL     1      -9.401  15.189  68.308  1.00  0.00    -0.189 NA 
HETATM   16  C   UNL     1     -10.312  16.218  68.236  1.00  0.00    -0.272 A  
HETATM   17  C   UNL     1      -7.222  13.719  68.291  1.00  0.00    -0.114 C  
HETATM   18  C   UNL     1      -9.585  17.302  67.795  1.00  0.00    -0.262 A  
HETATM   19  N   UNL     1      -8.263  16.993  67.651  1.00  0.00    -0.183 NA 
HETATM   20  N   UNL     1      -7.029  14.961  67.992  1.00  0.00    -0.124 NA 
HETATM   21  C   UNL     1      -8.153  15.723  67.975  1.00  0.00    -0.140 A  
BRANCH  16  22
HETATM   22  C   UNL     1     -11.739  16.114  68.634  1.00  0.00    -0.205 C  
BRANCH  22  23
HETATM   23  C   UNL     1     -12.038  14.982  69.589  1.00  0.00    -0.337 A  
HETATM   24  C   UNL     1     -12.607  14.222  71.821  1.00  0.00    -0.418 A  
HETATM   25  C   UNL     1     -12.268  15.252  70.940  1.00  0.00    -0.409 A  
HETATM   26  C   UNL     1     -12.693  12.903  71.407  1.00  0.00    -0.270 A  
HETATM   27  N   UNL     1     -13.011  11.953  72.306  1.00  0.00    -0.156 NA 
HETATM   28  C   UNL     1     -13.044  10.671  71.887  1.00  0.00    -0.458 A  
HETATM   29  C   UNL     1     -12.773  10.278  70.590  1.00  0.00    -0.382 A  
HETATM   30  C   UNL     1     -12.470  11.265  69.659  1.00  0.00    -0.160 A  
HETATM   31  C   UNL     1     -12.424  12.611  70.054  1.00  0.00    -0.051 A  
HETATM   32  C   UNL     1     -12.113  13.651  69.153  1.00  0.00    -0.361 A  
ENDBRANCH  22  23
ENDBRANCH  16  22
ENDBRANCH   9  13
ENDBRANCH   3   6
TORSDOF 4
ENDMDL
MODEL      210
REMARK 921   NORMALIZED FREE ENERGY PREDICTED BY IDOCK:   -1.66 KCAL/MOL
REMARK 922        TOTAL FREE ENERGY PREDICTED BY IDOCK:   -2.71 KCAL/MOL
REMARK 923 INTER-LIGAND FREE ENERGY PREDICTED BY IDOCK:   -2.77 KCAL/MOL
REMARK 924 INTRA-LIGAND FREE ENERGY PREDICTED BY IDOCK:    0.06 KCAL/MOL
REMARK 927      BINDING AFFINITY PREDICTED BY RF-SCORE:    0.00 PKD
ROOT
HETATM    1  C   UNL     1     -11.510  19.406  67.672  1.00  0.00     0.758 C  
HETATM    2  N   UNL     1     -10.701  18.276  68.059  1.00  0.00    -0.328 N  
HETATM    3  C   UNL     1      -9.350  18.403  68.292  1.00  0.00    -0.326 C  
HETATM    4  H   UNL     1     -11.140  17.362  68.161  1.00  0.00     0.000 HD 
HETATM    5  O   UNL     1      -8.762  19.478  68.236  1.00  0.00    -0.323 OA 
ENDROOT
BRANCH   3   6
HETATM    6  C   UNL     1      -8.587  17.158  68.598  1.00  0.00    -0.260 A  
HETATM    7  C   UNL     1      -9.247  15.920  68.521  1.00  0.00    -0.200 A  
HETATM    8  C   UNL     1      -8.588  14.734  68.876  1.00  0.00    -0.160 A  
HETATM    9  C   UNL     1      -7.262  14.771  69.324  1.00  0.00    -0.167 A  
HETATM   10  C   UNL     1      -6.585  15.994  69.348  1.00  0.00    -0.182 A  
HETATM   11  F   UNL     1      -6.559  18.317  69.082  1.00  0.00    -0.230 F  
HETATM   12  C   UNL     1      -7.250  17.170  68.997  1.00  0.00    -0.229 A  
BRANCH   9  13
HETATM   13  C   UNL     1      -6.624  13.523  69.829  1.00  0.00     0.011 C  
HETATM   14  N   UNL     1      -6.619  12.433  69.110  1.00  0.00    -0.098 NA 
HETATM   15  N   UNL     1      -6.058  11.367  69.766  1.00  0.00    -0.108 NA 
HETATM   16  C   UNL     1      -5.906  10.087  69.282  1.00  0.00    -0.037 A  
HETATM   17  C   UNL     1      -6.027  13.550  71.229  1.00  0.00     0.098 C  
HETATM   18  C   UNL     1      -5.369   9.375  70.332  1.00  0.00    -0.031 A  
HETATM   19  N   UNL     1      -5.135  10.177  71.413  1.00  0.00    -0.071 NA 
HETATM   20  N   UNL     1      -5.505  12.518  71.802  1.00  0.00    -0.385 NA 
HETATM   21  C   UNL     1      -5.538  11.379  71.063  1.00  0.00    -0.015 A  
BRANCH  16  22
HETATM   22  C   UNL     1      -6.214   9.666  67.892  1.00  0.00    -0.052 C  
BRANCH  22  23
HETATM   23  C   UNL     1      -6.333   8.172  67.705  1.00  0.00    -0.053 A  
HETATM   24  C   UNL     1      -7.216   6.035  68.438  1.00  0.00    -0.084 A  
HETATM   25  C   UNL     1      -7.046   7.409  68.632  1.00  0.00    -0.084 A  
HETATM   26  C   UNL     1      -6.662   5.375  67.352  1.00  0.00    -0.059 A  
HETATM   27  N   UNL     1      -6.850   4.049  67.226  1.00  0.00    -0.050 NA 
HETATM   28  C   UNL     1      -6.263   3.422  66.185  1.00  0.00    -0.028 A  
HETATM   29  C   UNL     1      -5.484   4.063  65.242  1.00  0.00    -0.010 A  
HETATM   30  C   UNL     1      -5.314   5.438  65.361  1.00  0.00    -0.013 A  
HETATM   31  C   UNL     1      -5.906   6.128  66.430  1.00  0.00    -0.024 A  
HETATM   32  C   UNL     1      -5.759   7.520  66.604  1.00  0.00    -0.031 A  
ENDBRANCH  22  23
ENDBRANCH  16  22
ENDBRANCH   9  13
ENDBRANCH   3   6
TORSDOF 4
ENDMDL
MODEL      211
REMARK 921   NORMALIZED FREE ENERGY PREDICTED BY IDOCK:   -1.56 KCAL/MOL
REMARK 922        TOTAL FREE ENERGY PREDICTED BY IDOCK:   -2.58 KCAL/MOL
REMARK 923 INTER-LIGAND FREE ENERGY PREDICTED BY IDOCK:   -1.85 KCAL/MOL
REMARK 924 INTRA-LIGAND FREE ENERGY PREDICTED BY IDOCK:   -0.73 KCAL/MOL
REMARK 927      BINDING AFFINITY PREDICTED BY RF-SCORE:    0.00 PKD
ROOT
HETATM    1  C   UNL     1     -12.917  11.329  63.414  1.00  0.00     1.077 C  
HETATM    2  N   UNL     1     -12.316  12.329  64.260  1.00  0.00    -0.435 N  
HETATM    3  C   UNL     1     -12.258  13.653  63.883  1.00  0.00    -0.374 C  
HETATM    4  H   UNL     1     -11.922  12.051  65.159  1.00  0.00     0.000 HD 
HETATM    5  O   UNL     1     -12.752  14.071  62.841  1.00  0.00    -0.447 OA 
ENDROOT
BRANCH   3   6
HETATM    6  C   UNL     1     -11.535  14.593  64.788  1.00  0.00    -0.410 A  
HETATM    7  C   UNL     1     -10.301  15.122  64.373  1.00  0.00     0.646 A  
HETATM    8  C   UNL     1      -9.553  15.946  65.225  1.00  0.00     0.176 A  
HETATM    9  C   UNL     1     -10.023  16.245  66.510  1.00  0.00    -0.290 A  
HETATM   10  C   UNL     1     -11.275  15.767  66.905  1.00  0.00    -0.050 A  
HETATM   11  F   UNL     1     -13.187  14.480  66.505  1.00  0.00     0.128 F  
HETATM   12  C   UNL     1     -12.012  14.943  66.051  1.00  0.00    -0.049 A  
BRANCH   9  13
HETATM   13  C   UNL     1      -9.152  17.005  67.451  1.00  0.00    -0.222 C  
HETATM   14  N   UNL     1      -7.964  16.567  67.768  1.00  0.00    -0.158 NA 
HETATM   15  N   UNL     1      -7.340  17.353  68.702  1.00  0.00    -0.234 NA 
HETATM   16  C   UNL     1      -6.089  17.160  69.242  1.00  0.00    -0.216 A  
HETATM   17  C   UNL     1      -9.717  18.278  68.064  1.00  0.00    -0.312 C  
HETATM   18  C   UNL     1      -5.950  18.160  70.180  1.00  0.00    -0.117 A  
HETATM   19  N   UNL     1      -7.038  18.986  70.195  1.00  0.00     0.410 NA 
HETATM   20  N   UNL     1      -9.086  18.988  68.939  1.00  0.00    -0.320 NA 
HETATM   21  C   UNL     1      -7.867  18.505  69.293  1.00  0.00     0.100 A  
BRANCH  16  22
HETATM   22  C   UNL     1      -5.129  16.117  68.799  1.00  0.00    -0.103 C  
BRANCH  22  23
HETATM   23  C   UNL     1      -5.674  14.709  68.846  1.00  0.00    -0.086 A  
HETATM   24  C   UNL     1      -6.318  12.755  70.131  1.00  0.00     0.062 A  
HETATM   25  C   UNL     1      -5.759  14.034  70.066  1.00  0.00    -0.124 A  
HETATM   26  C   UNL     1      -6.773  12.096  69.000  1.00  0.00    -0.103 A  
HETATM   27  N   UNL     1      -7.290  10.860  69.126  1.00  0.00    -0.116 NA 
HETATM   28  C   UNL     1      -7.685  10.222  68.004  1.00  0.00    -0.089 A  
HETATM   29  C   UNL     1      -7.591  10.765  66.737  1.00  0.00    -0.129 A  
HETATM   30  C   UNL     1      -7.080  12.053  66.614  1.00  0.00     0.145 A  
HETATM   31  C   UNL     1      -6.657  12.750  67.756  1.00  0.00    -0.134 A  
HETATM   32  C   UNL     1      -6.123  14.055  67.689  1.00  0.00    -0.078 A  
ENDBRANCH  22  23
ENDBRANCH  16  22
ENDBRANCH   9  13
ENDBRANCH   3   6
TORSDOF 4
ENDMDL
MODEL      212
REMARK 921   NORMALIZED FREE ENERGY PREDICTED BY IDOCK:   -1.42 KCAL/MOL
REMARK 922        TOTAL FREE ENERGY PREDICTED BY IDOCK:   -2.41 KCAL/MOL
REMARK 923 INTER-LIGAND FREE ENERGY PREDICTED BY IDOCK:   -1.92 KCAL/MOL
REMARK 924 INTRA-LIGAND FREE ENERGY PREDICTED BY IDOCK:   -0.50 KCAL/MOL
REMARK 927      BINDING AFFINITY PREDICTED BY RF-SCORE:    0.00 PKD
ROOT
HETATM    1  C   UNL     1      -7.794  20.476  71.294  1.00  0.00     2.104 C  
HETATM    2  N   UNL     1      -8.340  19.483  70.403  1.00  0.00     1.328 N  
HETATM    3  C   UNL     1      -7.803  19.263  69.153  1.00  0.00    -0.215 C  
HETATM    4  H   UNL     1      -9.142  18.930  70.704  1.00  0.00     0.000 HD 
HETATM    5  O   UNL     1      -6.811  19.854  68.741  1.00  0.00    -0.313 OA 
ENDROOT
BRANCH   3   6
HETATM    6  C   UNL     1      -8.497  18.277  68.274  1.00  0.00    -0.309 A  
HETATM    7  C   UNL     1      -9.685  17.680  68.726  1.00  0.00    -0.311 A  
HETATM    8  C   UNL     1     -10.326  16.692  67.964  1.00  0.00    -0.303 A  
HETATM    9  C   UNL     1      -9.779  16.279  66.743  1.00  0.00    -0.253 A  
HETATM   10  C   UNL     1      -8.628  16.911  66.264  1.00  0.00    -0.319 A  
HETATM   11  F   UNL     1      -6.870  18.428  66.536  1.00  0.00    -0.194 F  
HETATM   12  C   UNL     1      -7.995  17.891  67.030  1.00  0.00    -0.216 A  
BRANCH   9  13
HETATM   13  C   UNL     1     -10.394  15.133  66.016  1.00  0.00    -0.311 C  
HETATM   14  N   UNL     1     -10.476  13.953  66.569  1.00  0.00    -0.279 NA 
HETATM   15  N   UNL     1     -10.998  13.006  65.726  1.00  0.00    -0.275 NA 
HETATM   16  C   UNL     1     -11.209  11.676  66.008  1.00  0.00    -0.240 A  
HETATM   17  C   UNL     1     -10.874  15.375  64.592  1.00  0.00    -0.258 C  
HETATM   18  C   UNL     1     -11.671  11.134  64.828  1.00  0.00     0.550 A  
HETATM   19  N   UNL     1     -11.803  12.087  63.857  1.00  0.00    -0.435 NA 
HETATM   20  N   UNL     1     -11.364  14.448  63.838  1.00  0.00     0.200 NA 
HETATM   21  C   UNL     1     -11.410  13.216  64.407  1.00  0.00    -0.363 A  
BRANCH  16  22
HETATM   22  C   UNL     1     -11.024  11.055  67.343  1.00  0.00    -0.349 C  
BRANCH  22  23
HETATM   23  C   UNL     1      -9.824  10.143  67.445  1.00  0.00    -0.225 A  
HETATM   24  C   UNL     1      -8.819   7.961  67.109  1.00  0.00    -0.137 A  
HETATM   25  C   UNL     1      -9.936   8.800  67.079  1.00  0.00    -0.307 A  
HETATM   26  C   UNL     1      -7.578   8.410  67.532  1.00  0.00    -0.098 A  
HETATM   27  N   UNL     1      -6.542   7.550  67.552  1.00  0.00    -0.060 NA 
HETATM   28  C   UNL     1      -5.355   8.000  68.010  1.00  0.00    -0.033 A  
HETATM   29  C   UNL     1      -5.142   9.290  68.458  1.00  0.00    -0.034 A  
HETATM   30  C   UNL     1      -6.208  10.181  68.411  1.00  0.00    -0.048 A  
HETATM   31  C   UNL     1      -7.459   9.754  67.943  1.00  0.00    -0.086 A  
HETATM   32  C   UNL     1      -8.577  10.613  67.883  1.00  0.00    -0.124 A  
ENDBRANCH  22  23
ENDBRANCH  16  22
ENDBRANCH   9  13
ENDBRANCH   3   6
TORSDOF 4
ENDMDL
MODEL      213
REMARK 921   NORMALIZED FREE ENERGY PREDICTED BY IDOCK:   -0.95 KCAL/MOL
REMARK 922        TOTAL FREE ENERGY PREDICTED BY IDOCK:   -1.82 KCAL/MOL
REMARK 923 INTER-LIGAND FREE ENERGY PREDICTED BY IDOCK:   -2.46 KCAL/MOL
REMARK 924 INTRA-LIGAND FREE ENERGY PREDICTED BY IDOCK:    0.64 KCAL/MOL
REMARK 927      BINDING AFFINITY PREDICTED BY RF-SCORE:    0.00 PKD
ROOT
HETATM    1  C   UNL     1     -12.050  11.081  62.334  1.00  0.00     2.531 C  
HETATM    2  N   UNL     1     -12.067  11.647  63.659  1.00  0.00    -0.554 N  
HETATM    3  C   UNL     1     -11.190  11.227  64.635  1.00  0.00    -0.082 C  
HETATM    4  H   UNL     1     -12.745  12.376  63.881  1.00  0.00     0.000 HD 
HETATM    5  O   UNL     1     -10.317  10.391  64.429  1.00  0.00    -0.304 OA 
ENDROOT
BRANCH   3   6
HETATM    6  C   UNL     1     -11.350  11.811  65.998  1.00  0.00    -0.335 A  
HETATM    7  C   UNL     1     -11.285  10.960  67.114  1.00  0.00    -0.258 A  
HETATM    8  C   UNL     1     -11.508  11.455  68.407  1.00  0.00    -0.367 A  
HETATM    9  C   UNL     1     -11.810  12.809  68.600  1.00  0.00    -0.341 A  
HETATM   10  C   UNL     1     -11.820  13.669  67.499  1.00  0.00    -0.416 A  
HETATM   11  F   UNL     1     -11.667  14.034  65.194  1.00  0.00    -0.314 F  
HETATM   12  C   UNL     1     -11.601  13.166  66.215  1.00  0.00    -0.356 A  
BRANCH   9  13
HETATM   13  C   UNL     1     -12.181  13.289  69.961  1.00  0.00    -0.275 C  
HETATM   14  N   UNL     1     -11.806  14.466  70.384  1.00  0.00    -0.302 NA 
HETATM   15  N   UNL     1     -12.172  14.706  71.684  1.00  0.00    -0.339 NA 
HETATM   16  C   UNL     1     -11.923  15.845  72.415  1.00  0.00    -0.518 A  
HETATM   17  C   UNL     1     -12.968  12.341  70.856  1.00  0.00     0.023 C  
HETATM   18  C   UNL     1     -12.414  15.571  73.673  1.00  0.00    -0.588 A  
HETATM   19  N   UNL     1     -13.001  14.338  73.723  1.00  0.00    -0.143 NA 
HETATM   20  N   UNL     1     -13.293  12.616  72.074  1.00  0.00    -0.504 NA 
HETATM   21  C   UNL     1     -12.865  13.826  72.519  1.00  0.00    -0.246 A  
BRANCH  16  22
HETATM   22  C   UNL     1     -11.317  17.085  71.868  1.00  0.00     0.783 C  
BRANCH  22  23
HETATM   23  C   UNL     1     -10.744  16.939  70.478  1.00  0.00     0.483 A  
HETATM   24  C   UNL     1     -10.594  17.714  68.185  1.00  0.00    -0.359 A  
HETATM   25  C   UNL     1     -11.160  17.799  69.459  1.00  0.00     1.277 A  
HETATM   26  C   UNL     1      -9.634  16.764  67.872  1.00  0.00    -0.236 A  
HETATM   27  N   UNL     1      -9.136  16.724  66.623  1.00  0.00    -0.234 NA 
HETATM   28  C   UNL     1      -8.236  15.761  66.331  1.00  0.00    -0.171 A  
HETATM   29  C   UNL     1      -7.797  14.817  67.240  1.00  0.00    -0.223 A  
HETATM   30  C   UNL     1      -8.296  14.879  68.536  1.00  0.00    -0.160 A  
HETATM   31  C   UNL     1      -9.234  15.864  68.881  1.00  0.00    -0.232 A  
HETATM   32  C   UNL     1      -9.780  15.966  70.178  1.00  0.00     0.296 A  
ENDBRANCH  22  23
ENDBRANCH  16  22
ENDBRANCH   9  13
ENDBRANCH   3   6
TORSDOF 4
ENDMDL
MODEL      214
REMARK 921   NORMALIZED FREE ENERGY PREDICTED BY IDOCK:   -0.57 KCAL/MOL
REMARK 922        TOTAL FREE ENERGY PREDICTED BY IDOCK:   -1.36 KCAL/MOL
REMARK 923 INTER-LIGAND FREE ENERGY PREDICTED BY IDOCK:   -2.63 KCAL/MOL
REMARK 924 INTRA-LIGAND FREE ENERGY PREDICTED BY IDOCK:    1.26 KCAL/MOL
REMARK 927      BINDING AFFINITY PREDICTED BY RF-SCORE:    0.00 PKD
ROOT
HETATM    1  C   UNL     1      -8.085  20.357  71.710  1.00  0.00     2.166 C  
HETATM    2  N   UNL     1      -8.682  19.502  70.714  1.00  0.00     2.074 N  
HETATM    3  C   UNL     1      -8.075  19.278  69.498  1.00  0.00     0.217 C  
HETATM    4  H   UNL     1      -9.575  19.052  70.915  1.00  0.00     0.000 HD 
HETATM    5  O   UNL     1      -6.979  19.745  69.205  1.00  0.00    -0.341 OA 
ENDROOT
BRANCH   3   6
HETATM    6  C   UNL     1      -8.817  18.450  68.504  1.00  0.00    -0.336 A  
HETATM    7  C   UNL     1     -10.086  17.952  68.845  1.00  0.00    -0.349 A  
HETATM    8  C   UNL     1     -10.782  17.106  67.970  1.00  0.00    -0.372 A  
HETATM    9  C   UNL     1     -10.214  16.738  66.744  1.00  0.00    -0.304 A  
HETATM   10  C   UNL     1      -8.978  17.277  66.377  1.00  0.00    -0.282 A  
HETATM   11  F   UNL     1      -7.088  18.565  66.864  1.00  0.00    -0.195 F  
HETATM   12  C   UNL     1      -8.290  18.115  67.256  1.00  0.00    -0.241 A  
BRANCH   9  13
HETATM   13  C   UNL     1     -10.903  15.730  65.890  1.00  0.00    -0.268 C  
HETATM   14  N   UNL     1     -10.989  14.481  66.262  1.00  0.00    -0.317 NA 
HETATM   15  N   UNL     1     -11.587  13.685  65.319  1.00  0.00    -0.313 NA 
HETATM   16  C   UNL     1     -11.822  12.332  65.408  1.00  0.00    -0.360 A  
HETATM   17  C   UNL     1     -11.457  16.197  64.551  1.00  0.00    -0.230 C  
HETATM   18  C   UNL     1     -12.367  11.988  64.190  1.00  0.00    -0.350 A  
HETATM   19  N   UNL     1     -12.525  13.080  63.385  1.00  0.00    -0.731 NA 
HETATM   20  N   UNL     1     -12.018  15.407  63.698  1.00  0.00    -0.129 NA 
HETATM   21  C   UNL     1     -12.068  14.104  64.075  1.00  0.00    -0.348 A  
BRANCH  16  22
HETATM   22  C   UNL     1     -11.578  11.510  66.620  1.00  0.00    -0.095 C  
BRANCH  22  23
HETATM   23  C   UNL     1     -10.209  11.692  67.231  1.00  0.00    -0.226 A  
HETATM   24  C   UNL     1      -8.311  10.767  68.426  1.00  0.00    -0.132 A  
HETATM   25  C   UNL     1      -9.603  10.632  67.909  1.00  0.00    -0.174 A  
HETATM   26  C   UNL     1      -7.601  11.952  68.320  1.00  0.00    -0.116 A  
HETATM   27  N   UNL     1      -6.366  12.025  68.849  1.00  0.00    -0.074 NA 
HETATM   28  C   UNL     1      -5.713  13.204  68.772  1.00  0.00    -0.073 A  
HETATM   29  C   UNL     1      -6.238  14.337  68.181  1.00  0.00    -0.138 A  
HETATM   30  C   UNL     1      -7.504  14.250  67.613  1.00  0.00    -0.194 A  
HETATM   31  C   UNL     1      -8.217  13.043  67.672  1.00  0.00    -0.171 A  
HETATM   32  C   UNL     1      -9.508  12.902  67.121  1.00  0.00    -0.229 A  
ENDBRANCH  22  23
ENDBRANCH  16  22
ENDBRANCH   9  13
ENDBRANCH   3   6
TORSDOF 4
ENDMDL
MODEL      215
REMARK 921   NORMALIZED FREE ENERGY PREDICTED BY IDOCK:   -0.29 KCAL/MOL
REMARK 922        TOTAL FREE ENERGY PREDICTED BY IDOCK:   -1.01 KCAL/MOL
REMARK 923 INTER-LIGAND FREE ENERGY PREDICTED BY IDOCK:   -0.23 KCAL/MOL
REMARK 924 INTRA-LIGAND FREE ENERGY PREDICTED BY IDOCK:   -0.78 KCAL/MOL
REMARK 927      BINDING AFFINITY PREDICTED BY RF-SCORE:    0.00 PKD
ROOT
HETATM    1  C   UNL     1      -9.703   2.539  63.917  1.00  0.00    -0.140 C  
HETATM    2  N   UNL     1      -9.214   3.590  64.774  1.00  0.00    -0.134 N  
HETATM    3  C   UNL     1      -9.038   3.396  66.126  1.00  0.00    -0.152 C  
HETATM    4  H   UNL     1      -8.995   4.500  64.370  1.00  0.00     0.000 HD 
HETATM    5  O   UNL     1      -9.234   2.316  66.675  1.00  0.00    -0.105 OA 
ENDROOT
BRANCH   3   6
HETATM    6  C   UNL     1      -8.615   4.573  66.938  1.00  0.00    -0.104 A  
HETATM    7  C   UNL     1      -9.423   5.722  66.943  1.00  0.00    -0.142 A  
HETATM    8  C   UNL     1      -9.022   6.877  67.630  1.00  0.00    -0.116 A  
HETATM    9  C   UNL     1      -7.801   6.902  68.315  1.00  0.00    -0.118 A  
HETATM   10  C   UNL     1      -7.022   5.742  68.360  1.00  0.00    -0.068 A  
HETATM   11  F   UNL     1      -6.614   3.532  67.715  1.00  0.00    -0.038 F  
HETATM   12  C   UNL     1      -7.426   4.599  67.669  1.00  0.00    -0.078 A  
BRANCH   9  13
HETATM   13  C   UNL     1      -7.326   8.178  68.920  1.00  0.00    -0.090 C  
HETATM   14  N   UNL     1      -7.918   9.310  68.651  1.00  0.00    -0.099 NA 
HETATM   15  N   UNL     1      -7.299  10.386  69.234  1.00  0.00    -0.093 NA 
HETATM   16  C   UNL     1      -7.675  11.706  69.141  1.00  0.00     0.074 A  
HETATM   17  C   UNL     1      -6.100   8.120  69.821  1.00  0.00    -0.029 C  
HETATM   18  C   UNL     1      -6.703  12.399  69.828  1.00  0.00     0.132 A  
HETATM   19  N   UNL     1      -5.783  11.555  70.383  1.00  0.00    -0.143 NA 
HETATM   20  N   UNL     1      -5.556   9.164  70.352  1.00  0.00    -0.033 NA 
HETATM   21  C   UNL     1      -6.155  10.341  70.035  1.00  0.00    -0.071 A  
BRANCH  16  22
HETATM   22  C   UNL     1      -8.916  12.187  68.483  1.00  0.00    -0.082 C  
BRANCH  22  23
HETATM   23  C   UNL     1     -10.042  12.510  69.437  1.00  0.00     0.663 A  
HETATM   24  C   UNL     1     -12.068  11.836  70.588  1.00  0.00    -0.407 A  
HETATM   25  C   UNL     1     -11.054  11.575  69.662  1.00  0.00    -0.211 A  
HETATM   26  C   UNL     1     -12.130  13.031  71.287  1.00  0.00     0.282 A  
HETATM   27  N   UNL     1     -13.138  13.230  72.156  1.00  0.00    -0.395 NA 
HETATM   28  C   UNL     1     -13.202  14.420  72.790  1.00  0.00    -0.520 A  
HETATM   29  C   UNL     1     -12.293  15.442  72.600  1.00  0.00    -0.492 A  
HETATM   30  C   UNL     1     -11.239  15.224  71.720  1.00  0.00    -0.364 A  
HETATM   31  C   UNL     1     -11.137  14.001  71.040  1.00  0.00     1.088 A  
HETATM   32  C   UNL     1     -10.093  13.729  70.129  1.00  0.00     1.757 A  
ENDBRANCH  22  23
ENDBRANCH  16  22
ENDBRANCH   9  13
ENDBRANCH   3   6
TORSDOF 4
ENDMDL
MODEL      216
REMARK 921   NORMALIZED FREE ENERGY PREDICTED BY IDOCK:   -0.08 KCAL/MOL
REMARK 922        TOTAL FREE ENERGY PREDICTED BY IDOCK:   -0.76 KCAL/MOL
REMARK 923 INTER-LIGAND FREE ENERGY PREDICTED BY IDOCK:   -0.60 KCAL/MOL
REMARK 924 INTRA-LIGAND FREE ENERGY PREDICTED BY IDOCK:   -0.16 KCAL/MOL
REMARK 927      BINDING AFFINITY PREDICTED BY RF-SCORE:    0.00 PKD
ROOT
HETATM    1  C   UNL     1     -12.770  12.559  62.511  1.00  0.00     1.876 C  
HETATM    2  N   UNL     1     -11.909  11.898  63.460  1.00  0.00    -0.619 N  
HETATM    3  C   UNL     1     -11.688  12.417  64.716  1.00  0.00    -0.368 C  
HETATM    4  H   UNL     1     -11.452  11.026  63.195  1.00  0.00     0.000 HD 
HETATM    5  O   UNL     1     -12.239  13.435  65.123  1.00  0.00    -0.385 OA 
ENDROOT
BRANCH   3   6
HETATM    6  C   UNL     1     -10.709  11.706  65.589  1.00  0.00    -0.330 A  
HETATM    7  C   UNL     1      -9.776  10.838  64.999  1.00  0.00    -0.323 A  
HETATM    8  C   UNL     1      -8.891  10.091  65.790  1.00  0.00    -0.172 A  
HETATM    9  C   UNL     1      -8.935  10.195  67.186  1.00  0.00    -0.146 A  
HETATM   10  C   UNL     1      -9.824  11.099  67.774  1.00  0.00    -0.186 A  
HETATM   11  F   UNL     1     -11.562  12.654  67.606  1.00  0.00    -0.309 F  
HETATM   12  C   UNL     1     -10.703  11.835  66.979  1.00  0.00    -0.246 A  
BRANCH   9  13
HETATM   13  C   UNL     1      -8.087   9.292  68.014  1.00  0.00    -0.104 C  
HETATM   14  N   UNL     1      -7.377   8.345  67.463  1.00  0.00    -0.091 NA 
HETATM   15  N   UNL     1      -6.722   7.568  68.384  1.00  0.00    -0.053 NA 
HETATM   16  C   UNL     1      -5.901   6.495  68.124  1.00  0.00    -0.016 A  
HETATM   17  C   UNL     1      -8.118   9.482  69.524  1.00  0.00    -0.117 C  
HETATM   18  C   UNL     1      -5.554   6.007  69.365  1.00  0.00    -0.012 A  
HETATM   19  N   UNL     1      -6.082   6.769  70.368  1.00  0.00    -0.024 NA 
HETATM   20  N   UNL     1      -7.478   8.724  70.351  1.00  0.00    -0.064 NA 
HETATM   21  C   UNL     1      -6.773   7.718  69.772  1.00  0.00    -0.039 A  
BRANCH  16  22
HETATM   22  C   UNL     1      -5.473   6.066  66.768  1.00  0.00    -0.009 C  
BRANCH  22  23
HETATM   23  C   UNL     1      -6.591   5.992  65.756  1.00  0.00    -0.047 A  
HETATM   24  C   UNL     1      -7.843   7.006  63.942  1.00  0.00    -0.106 A  
HETATM   25  C   UNL     1      -6.852   7.084  64.924  1.00  0.00    -0.047 A  
HETATM   26  C   UNL     1      -8.622   5.872  63.777  1.00  0.00     0.204 A  
HETATM   27  N   UNL     1      -9.570   5.862  62.822  1.00  0.00     1.179 NA 
HETATM   28  C   UNL     1     -10.345   4.762  62.711  1.00  0.00     0.505 A  
HETATM   29  C   UNL     1     -10.221   3.649  63.518  1.00  0.00    -0.210 A  
HETATM   30  C   UNL     1      -9.223   3.653  64.487  1.00  0.00    -0.141 A  
HETATM   31  C   UNL     1      -8.396   4.777  64.636  1.00  0.00    -0.130 A  
HETATM   32  C   UNL     1      -7.375   4.838  65.608  1.00  0.00    -0.077 A  
ENDBRANCH  22  23
ENDBRANCH  16  22
ENDBRANCH   9  13
ENDBRANCH   3   6
TORSDOF 4
ENDMDL
MODEL      217
REMARK 921   NORMALIZED FREE ENERGY PREDICTED BY IDOCK:    0.43 KCAL/MOL
REMARK 922        TOTAL FREE ENERGY PREDICTED BY IDOCK:   -0.13 KCAL/MOL
REMARK 923 INTER-LIGAND FREE ENERGY PREDICTED BY IDOCK:   -0.90 KCAL/MOL
REMARK 924 INTRA-LIGAND FREE ENERGY PREDICTED BY IDOCK:    0.77 KCAL/MOL
REMARK 927      BINDING AFFINITY PREDICTED BY RF-SCORE:    0.00 PKD
ROOT
HETATM    1  C   UNL     1      -9.164   7.295  68.054  1.00  0.00    -0.131 C  
HETATM    2  N   UNL     1      -9.417   8.713  67.998  1.00  0.00    -0.139 N  
HETATM    3  C   UNL     1      -9.525   9.380  66.798  1.00  0.00    -0.165 C  
HETATM    4  H   UNL     1      -9.519   9.236  68.868  1.00  0.00     0.000 HD 
HETATM    5  O   UNL     1      -9.462   8.812  65.713  1.00  0.00    -0.229 OA 
ENDROOT
BRANCH   3   6
HETATM    6  C   UNL     1      -9.697  10.861  66.850  1.00  0.00    -0.210 A  
HETATM    7  C   UNL     1      -9.529  11.607  65.671  1.00  0.00    -0.228 A  
HETATM    8  C   UNL     1      -9.605  13.007  65.693  1.00  0.00    -0.025 A  
HETATM    9  C   UNL     1      -9.840  13.682  66.897  1.00  0.00    -0.261 A  
HETATM   10  C   UNL     1     -10.063  12.941  68.060  1.00  0.00    -0.235 A  
HETATM   11  F   UNL     1     -10.163  10.896  69.189  1.00  0.00    -0.202 F  
HETATM   12  C   UNL     1      -9.982  11.548  68.031  1.00  0.00    -0.189 A  
BRANCH   9  13
HETATM   13  C   UNL     1      -9.778  15.171  66.926  1.00  0.00    -0.239 C  
HETATM   14  N   UNL     1      -9.974  15.829  68.037  1.00  0.00    -0.221 NA 
HETATM   15  N   UNL     1      -9.956  17.189  67.859  1.00  0.00    -0.281 NA 
HETATM   16  C   UNL     1     -10.133  18.151  68.826  1.00  0.00    -0.376 A  
HETATM   17  C   UNL     1      -9.528  15.894  65.611  1.00  0.00    -0.182 C  
HETATM   18  C   UNL     1     -10.105  19.347  68.144  1.00  0.00    -0.425 A  
HETATM   19  N   UNL     1      -9.864  19.159  66.812  1.00  0.00    -0.321 NA 
HETATM   20  N   UNL     1      -9.516  17.180  65.496  1.00  0.00    -0.315 NA 
HETATM   21  C   UNL     1      -9.759  17.857  66.647  1.00  0.00    -0.319 A  
BRANCH  16  22
HETATM   22  C   UNL     1     -10.248  17.876  70.281  1.00  0.00     1.364 C  
BRANCH  22  23
HETATM   23  C   UNL     1     -11.188  16.746  70.629  1.00  0.00     0.249 A  
HETATM   24  C   UNL     1     -12.930  15.194  69.966  1.00  0.00    -0.030 A  
HETATM   25  C   UNL     1     -12.098  16.279  69.678  1.00  0.00     0.221 A  
HETATM   26  C   UNL     1     -12.913  14.566  71.202  1.00  0.00    -0.346 A  
HETATM   27  N   UNL     1     -13.748  13.534  71.424  1.00  0.00    -0.109 NA 
HETATM   28  C   UNL     1     -13.744  12.969  72.650  1.00  0.00    -0.198 A  
HETATM   29  C   UNL     1     -12.932  13.388  73.687  1.00  0.00     3.014 A  
HETATM   30  C   UNL     1     -12.053  14.437  73.445  1.00  0.00     0.040 A  
HETATM   31  C   UNL     1     -12.027  15.053  72.185  1.00  0.00    -0.456 A  
HETATM   32  C   UNL     1     -11.161  16.128  71.888  1.00  0.00     0.046 A  
ENDBRANCH  22  23
ENDBRANCH  16  22
ENDBRANCH   9  13
ENDBRANCH   3   6
TORSDOF 4
ENDMDL
MODEL      218
REMARK 921   NORMALIZED FREE ENERGY PREDICTED BY IDOCK:    2.24 KCAL/MOL
REMARK 922        TOTAL FREE ENERGY PREDICTED BY IDOCK:    2.10 KCAL/MOL
REMARK 923 INTER-LIGAND FREE ENERGY PREDICTED BY IDOCK:    3.06 KCAL/MOL
REMARK 924 INTRA-LIGAND FREE ENERGY PREDICTED BY IDOCK:   -0.96 KCAL/MOL
REMARK 927      BINDING AFFINITY PREDICTED BY RF-SCORE:    0.00 PKD
ROOT
HETATM    1  C   UNL     1     -13.129  11.054  62.346  1.00  0.00     3.678 C  
HETATM    2  N   UNL     1     -12.901  11.816  63.548  1.00  0.00    -0.702 N  
HETATM    3  C   UNL     1     -11.639  12.229  63.912  1.00  0.00    -0.444 C  
HETATM    4  H   UNL     1     -13.694  12.056  64.144  1.00  0.00     0.000 HD 
HETATM    5  O   UNL     1     -10.646  12.021  63.223  1.00  0.00    -0.418 OA 
ENDROOT
BRANCH   3   6
HETATM    6  C   UNL     1     -11.498  12.933  65.220  1.00  0.00    -0.348 A  
HETATM    7  C   UNL     1     -11.866  12.262  66.397  1.00  0.00    -0.382 A  
HETATM    8  C   UNL     1     -11.823  12.914  67.638  1.00  0.00    -0.400 A  
HETATM    9  C   UNL     1     -11.420  14.253  67.716  1.00  0.00    -0.354 A  
HETATM   10  C   UNL     1     -10.999  14.907  66.555  1.00  0.00    -0.327 A  
HETATM   11  F   UNL     1     -10.674  14.946  64.240  1.00  0.00    -0.272 F  
HETATM   12  C   UNL     1     -11.050  14.251  65.324  1.00  0.00    -0.335 A  
BRANCH   9  13
HETATM   13  C   UNL     1     -11.514  14.971  69.019  1.00  0.00    -0.304 C  
HETATM   14  N   UNL     1     -11.162  16.224  69.122  1.00  0.00    -0.320 NA 
HETATM   15  N   UNL     1     -11.242  16.695  70.407  1.00  0.00    -0.130 NA 
HETATM   16  C   UNL     1     -10.939  17.965  70.842  1.00  0.00     2.393 A  
HETATM   17  C   UNL     1     -11.985  14.180  70.230  1.00  0.00    -0.334 C  
HETATM   18  C   UNL     1     -11.103  17.918  72.209  1.00  0.00     2.675 A  
HETATM   19  N   UNL     1     -11.547  16.693  72.619  1.00  0.00    -0.203 NA 
HETATM   20  N   UNL     1     -12.048  14.671  71.422  1.00  0.00    -0.344 NA 
HETATM   21  C   UNL     1     -11.643  15.963  71.528  1.00  0.00    -0.465 A  
BRANCH  16  22
HETATM   22  C   UNL     1     -10.589  19.102  69.954  1.00  0.00     1.275 C  
BRANCH  22  23
HETATM   23  C   UNL     1      -9.223  19.000  69.319  1.00  0.00    -0.040 A  
HETATM   24  C   UNL     1      -6.809  19.132  69.516  1.00  0.00    -0.243 A  
HETATM   25  C   UNL     1      -8.081  19.282  70.073  1.00  0.00     0.942 A  
HETATM   26  C   UNL     1      -6.627  18.735  68.200  1.00  0.00    -0.222 A  
HETATM   27  N   UNL     1      -5.377  18.621  67.717  1.00  0.00    -0.167 NA 
HETATM   28  C   UNL     1      -5.228  18.277  66.420  1.00  0.00    -0.148 A  
HETATM   29  C   UNL     1      -6.284  18.035  65.563  1.00  0.00    -0.210 A  
HETATM   30  C   UNL     1      -7.574  18.129  66.073  1.00  0.00    -0.233 A  
HETATM   31  C   UNL     1      -7.773  18.485  67.416  1.00  0.00    -0.233 A  
HETATM   32  C   UNL     1      -9.059  18.604  67.983  1.00  0.00    -0.327 A  
ENDBRANCH  22  23
ENDBRANCH  16  22
ENDBRANCH   9  13
ENDBRANCH   3   6
TORSDOF 4
ENDMDL
MODEL      219
REMARK 921   NORMALIZED FREE ENERGY PREDICTED BY IDOCK:    2.93 KCAL/MOL
REMARK 922        TOTAL FREE ENERGY PREDICTED BY IDOCK:    2.96 KCAL/MOL
REMARK 923 INTER-LIGAND FREE ENERGY PREDICTED BY IDOCK:    2.57 KCAL/MOL
REMARK 924 INTRA-LIGAND FREE ENERGY PREDICTED BY IDOCK:    0.38 KCAL/MOL
REMARK 927      BINDING AFFINITY PREDICTED BY RF-SCORE:    0.00 PKD
ROOT
HETATM    1  C   UNL     1     -13.191  10.901  62.754  1.00  0.00     3.708 C  
HETATM    2  N   UNL     1     -12.884  11.867  63.779  1.00  0.00    -0.617 N  
HETATM    3  C   UNL     1     -11.589  12.262  64.033  1.00  0.00    -0.417 C  
HETATM    4  H   UNL     1     -13.643  12.267  64.329  1.00  0.00     0.000 HD 
HETATM    5  O   UNL     1     -10.630  11.862  63.381  1.00  0.00    -0.407 OA 
ENDROOT
BRANCH   3   6
HETATM    6  C   UNL     1     -11.370  13.198  65.174  1.00  0.00    -0.322 A  
HETATM    7  C   UNL     1     -12.481  13.652  65.905  1.00  0.00    -0.502 A  
HETATM    8  C   UNL     1     -12.326  14.591  66.934  1.00  0.00    -0.083 A  
HETATM    9  C   UNL     1     -11.057  15.099  67.240  1.00  0.00    -0.332 A  
HETATM   10  C   UNL     1      -9.943  14.608  66.553  1.00  0.00    -0.292 A  
HETATM   11  F   UNL     1      -9.004  13.275  64.877  1.00  0.00     0.705 F  
HETATM   12  C   UNL     1     -10.107  13.675  65.528  1.00  0.00    -0.275 A  
BRANCH   9  13
HETATM   13  C   UNL     1     -10.929  16.198  68.238  1.00  0.00    -0.340 C  
HETATM   14  N   UNL     1     -10.516  17.384  67.882  1.00  0.00    -0.370 NA 
HETATM   15  N   UNL     1     -10.386  18.243  68.944  1.00  0.00    -0.277 NA 
HETATM   16  C   UNL     1      -9.973  19.554  68.899  1.00  0.00    -0.448 A  
HETATM   17  C   UNL     1     -11.246  15.873  69.691  1.00  0.00    -0.331 C  
HETATM   18  C   UNL     1      -9.935  19.957  70.216  1.00  0.00     0.811 A  
HETATM   19  N   UNL     1     -10.361  18.967  71.055  1.00  0.00     2.073 NA 
HETATM   20  N   UNL     1     -11.112  16.721  70.656  1.00  0.00     0.043 NA 
HETATM   21  C   UNL     1     -10.646  17.940  70.283  1.00  0.00     1.440 A  
BRANCH  16  22
HETATM   22  C   UNL     1      -9.714  20.318  67.652  1.00  0.00    -0.555 C  
BRANCH  22  23
HETATM   23  C   UNL     1      -8.608  19.752  66.793  1.00  0.00    -0.375 A  
HETATM   24  C   UNL     1      -7.044  17.963  66.306  1.00  0.00    -0.321 A  
HETATM   25  C   UNL     1      -8.025  18.527  67.126  1.00  0.00    -0.247 A  
HETATM   26  C   UNL     1      -6.589  18.602  65.163  1.00  0.00    -0.098 A  
HETATM   27  N   UNL     1      -5.633  18.014  64.421  1.00  0.00     0.322 NA 
HETATM   28  C   UNL     1      -5.174  18.677  63.339  1.00  0.00    -0.008 A  
HETATM   29  C   UNL     1      -5.631  19.921  62.949  1.00  0.00    -0.334 A  
HETATM   30  C   UNL     1      -6.637  20.514  63.704  1.00  0.00     0.098 A  
HETATM   31  C   UNL     1      -7.140  19.858  64.838  1.00  0.00     0.128 A  
HETATM   32  C   UNL     1      -8.154  20.417  65.645  1.00  0.00     0.197 A  
ENDBRANCH  22  23
ENDBRANCH  16  22
ENDBRANCH   9  13
ENDBRANCH   3   6
TORSDOF 4
ENDMDL
MODEL      220
REMARK 921   NORMALIZED FREE ENERGY PREDICTED BY IDOCK:    3.00 KCAL/MOL
REMARK 922        TOTAL FREE ENERGY PREDICTED BY IDOCK:    3.04 KCAL/MOL
REMARK 923 INTER-LIGAND FREE ENERGY PREDICTED BY IDOCK:    3.31 KCAL/MOL
REMARK 924 INTRA-LIGAND FREE ENERGY PREDICTED BY IDOCK:   -0.27 KCAL/MOL
REMARK 927      BINDING AFFINITY PREDICTED BY RF-SCORE:    0.00 PKD
ROOT
HETATM    1  C   UNL     1      -8.783  19.653  72.109  1.00  0.00     4.185 C  
HETATM    2  N   UNL     1      -9.264  18.853  71.011  1.00  0.00     3.843 N  
HETATM    3  C   UNL     1      -8.553  18.735  69.837  1.00  0.00     1.241 C  
HETATM    4  H   UNL     1     -10.153  18.361  71.105  1.00  0.00     0.000 HD 
HETATM    5  O   UNL     1      -7.456  19.257  69.668  1.00  0.00    -0.109 OA 
ENDROOT
BRANCH   3   6
HETATM    6  C   UNL     1      -9.181  17.958  68.730  1.00  0.00    -0.227 A  
HETATM    7  C   UNL     1     -10.514  17.536  68.865  1.00  0.00    -0.286 A  
HETATM    8  C   UNL     1     -11.117  16.737  67.883  1.00  0.00    -0.178 A  
HETATM    9  C   UNL     1     -10.389  16.339  66.755  1.00  0.00    -0.296 A  
HETATM   10  C   UNL     1      -9.081  16.803  66.589  1.00  0.00    -0.275 A  
HETATM   11  F   UNL     1      -7.216  17.972  67.377  1.00  0.00    -0.185 F  
HETATM   12  C   UNL     1      -8.488  17.595  67.574  1.00  0.00    -0.219 A  
BRANCH   9  13
HETATM   13  C   UNL     1     -10.997  15.377  65.793  1.00  0.00    -0.309 C  
HETATM   14  N   UNL     1     -10.858  14.089  65.952  1.00  0.00    -0.285 NA 
HETATM   15  N   UNL     1     -11.418  13.363  64.932  1.00  0.00    -0.315 NA 
HETATM   16  C   UNL     1     -11.437  11.993  64.807  1.00  0.00    -0.298 A  
HETATM   17  C   UNL     1     -11.741  15.951  64.594  1.00  0.00    -0.117 C  
HETATM   18  C   UNL     1     -12.037  11.759  63.589  1.00  0.00    -0.381 A  
HETATM   19  N   UNL     1     -12.434  12.922  62.994  1.00  0.00    -0.427 NA 
HETATM   20  N   UNL     1     -12.255  15.223  63.660  1.00  0.00    -0.236 NA 
HETATM   21  C   UNL     1     -12.072  13.886  63.813  1.00  0.00    -0.285 A  
BRANCH  16  22
HETATM   22  C   UNL     1     -10.958  11.043  65.842  1.00  0.00    -0.115 C  
BRANCH  22  23
HETATM   23  C   UNL     1      -9.660  10.350  65.499  1.00  0.00    -0.290 A  
HETATM   24  C   UNL     1      -7.851   8.863  66.132  1.00  0.00    -0.102 A  
HETATM   25  C   UNL     1      -9.019   9.559  66.455  1.00  0.00    -0.173 A  
HETATM   26  C   UNL     1      -7.267   8.955  64.878  1.00  0.00    -0.091 A  
HETATM   27  N   UNL     1      -6.135   8.271  64.631  1.00  0.00    -0.059 NA 
HETATM   28  C   UNL     1      -5.562   8.413  63.417  1.00  0.00    -0.067 A  
HETATM   29  C   UNL     1      -6.071   9.216  62.416  1.00  0.00    -0.094 A  
HETATM   30  C   UNL     1      -7.256   9.901  62.666  1.00  0.00    -0.122 A  
HETATM   31  C   UNL     1      -7.883   9.782  63.916  1.00  0.00    -0.144 A  
HETATM   32  C   UNL     1      -9.080  10.461  64.227  1.00  0.00    -0.270 A  
ENDBRANCH  22  23
ENDBRANCH  16  22
ENDBRANCH   9  13
ENDBRANCH   3   6
TORSDOF 4
ENDMDL
MODEL      221
REMARK 921   NORMALIZED FREE ENERGY PREDICTED BY IDOCK:    3.74 KCAL/MOL
REMARK 922        TOTAL FREE ENERGY PREDICTED BY IDOCK:    3.95 KCAL/MOL
REMARK 923 INTER-LIGAND FREE ENERGY PREDICTED BY IDOCK:    2.57 KCAL/MOL
REMARK 924 INTRA-LIGAND FREE ENERGY PREDICTED BY IDOCK:    1.38 KCAL/MOL
REMARK 927      BINDING AFFINITY PREDICTED BY RF-SCORE:    0.00 PKD
ROOT
HETATM    1  C   UNL     1     -12.821  11.496  62.845  1.00  0.00     0.856 C  
HETATM    2  N   UNL     1     -12.766  12.191  64.107  1.00  0.00    -0.587 N  
HETATM    3  C   UNL     1     -11.747  11.969  65.008  1.00  0.00    -0.255 C  
HETATM    4  H   UNL     1     -13.498  12.862  64.339  1.00  0.00     0.000 HD 
HETATM    5  O   UNL     1     -10.808  11.214  64.778  1.00  0.00    -0.289 OA 
ENDROOT
BRANCH   3   6
HETATM    6  C   UNL     1     -11.831  12.669  66.322  1.00  0.00    -0.471 A  
HETATM    7  C   UNL     1     -11.936  11.903  67.495  1.00  0.00    -0.102 A  
HETATM    8  C   UNL     1     -12.095  12.523  68.743  1.00  0.00    -0.154 A  
HETATM    9  C   UNL     1     -12.161  13.919  68.834  1.00  0.00    -0.257 A  
HETATM   10  C   UNL     1     -12.000  14.685  67.676  1.00  0.00    -0.307 A  
HETATM   11  F   UNL     1     -11.740  14.849  65.358  1.00  0.00    -0.348 F  
HETATM   12  C   UNL     1     -11.846  14.060  66.438  1.00  0.00    -0.418 A  
BRANCH   9  13
HETATM   13  C   UNL     1     -12.470  14.553  70.146  1.00  0.00    -0.321 C  
HETATM   14  N   UNL     1     -11.827  15.617  70.546  1.00  0.00    -0.342 NA 
HETATM   15  N   UNL     1     -12.190  16.015  71.807  1.00  0.00    -0.474 NA 
HETATM   16  C   UNL     1     -11.697  17.092  72.507  1.00  0.00     0.819 A  
HETATM   17  C   UNL     1     -13.523  13.889  71.023  1.00  0.00    -0.069 C  
HETATM   18  C   UNL     1     -12.310  17.024  73.739  1.00  0.00     0.182 A  
HETATM   19  N   UNL     1     -13.197  15.986  73.799  1.00  0.00    -0.603 NA 
HETATM   20  N   UNL     1     -13.833  14.306  72.205  1.00  0.00    -0.450 NA 
HETATM   21  C   UNL     1     -13.132  15.390  72.628  1.00  0.00    -0.442 A  
BRANCH  16  22
HETATM   22  C   UNL     1     -10.761  18.104  71.953  1.00  0.00     3.240 C  
BRANCH  22  23
HETATM   23  C   UNL     1     -10.545  18.002  70.462  1.00  0.00     1.823 A  
HETATM   24  C   UNL     1      -9.710  16.768  68.548  1.00  0.00    -0.248 A  
HETATM   25  C   UNL     1      -9.863  16.905  69.930  1.00  0.00     0.527 A  
HETATM   26  C   UNL     1     -10.190  17.718  67.660  1.00  0.00    -0.358 A  
HETATM   27  N   UNL     1     -10.001  17.537  66.340  1.00  0.00    -0.314 NA 
HETATM   28  C   UNL     1     -10.438  18.498  65.500  1.00  0.00     0.073 A  
HETATM   29  C   UNL     1     -11.068  19.655  65.916  1.00  0.00    -0.096 A  
HETATM   30  C   UNL     1     -11.286  19.826  67.279  1.00  0.00     0.030 A  
HETATM   31  C   UNL     1     -10.846  18.851  68.186  1.00  0.00    -0.043 A  
HETATM   32  C   UNL     1     -11.031  18.978  69.579  1.00  0.00     1.967 A  
ENDBRANCH  22  23
ENDBRANCH  16  22
ENDBRANCH   9  13
ENDBRANCH   3   6
TORSDOF 4
ENDMDL
MODEL      222
REMARK 921   NORMALIZED FREE ENERGY PREDICTED BY IDOCK:    5.28 KCAL/MOL
REMARK 922        TOTAL FREE ENERGY PREDICTED BY IDOCK:    5.86 KCAL/MOL
REMARK 923 INTER-LIGAND FREE ENERGY PREDICTED BY IDOCK:    5.08 KCAL/MOL
REMARK 924 INTRA-LIGAND FREE ENERGY PREDICTED BY IDOCK:    0.77 KCAL/MOL
REMARK 927      BINDING AFFINITY PREDICTED BY RF-SCORE:    0.00 PKD
ROOT
HETATM    1  C   UNL     1     -12.133  10.123  65.379  1.00  0.00     5.729 C  
HETATM    2  N   UNL     1     -11.223  11.241  65.381  1.00  0.00    -0.077 N  
HETATM    3  C   UNL     1     -11.230  12.175  66.394  1.00  0.00    -0.331 C  
HETATM    4  H   UNL     1     -10.558  11.344  64.615  1.00  0.00     0.000 HD 
HETATM    5  O   UNL     1     -11.967  12.092  67.371  1.00  0.00    -0.583 OA 
ENDROOT
BRANCH   3   6
HETATM    6  C   UNL     1     -10.311  13.342  66.257  1.00  0.00    -0.290 A  
HETATM    7  C   UNL     1      -9.322  13.547  67.233  1.00  0.00    -0.233 A  
HETATM    8  C   UNL     1      -8.490  14.675  67.184  1.00  0.00    -0.244 A  
HETATM    9  C   UNL     1      -8.643  15.619  66.161  1.00  0.00    -0.151 A  
HETATM   10  C   UNL     1      -9.587  15.389  65.157  1.00  0.00     0.149 A  
HETATM   11  F   UNL     1     -11.331  14.124  64.247  1.00  0.00    -0.372 F  
HETATM   12  C   UNL     1     -10.414  14.266  65.217  1.00  0.00    -0.389 A  
BRANCH   9  13
HETATM   13  C   UNL     1      -7.847  16.879  66.202  1.00  0.00    -0.242 C  
HETATM   14  N   UNL     1      -8.351  17.975  66.701  1.00  0.00    -0.253 NA 
HETATM   15  N   UNL     1      -7.505  19.049  66.585  1.00  0.00    -0.220 NA 
HETATM   16  C   UNL     1      -7.743  20.337  67.008  1.00  0.00    -0.321 A  
HETATM   17  C   UNL     1      -6.450  16.853  65.598  1.00  0.00     1.372 C  
HETATM   18  C   UNL     1      -6.639  21.052  66.598  1.00  0.00    -0.288 A  
HETATM   19  N   UNL     1      -5.716  20.246  65.995  1.00  0.00    -0.173 NA 
HETATM   20  N   UNL     1      -5.690  17.893  65.516  1.00  0.00    -0.145 NA 
HETATM   21  C   UNL     1      -6.235  19.037  66.002  1.00  0.00    -0.191 A  
BRANCH  16  22
HETATM   22  C   UNL     1      -8.927  20.763  67.795  1.00  0.00    -0.093 C  
BRANCH  22  23
HETATM   23  C   UNL     1      -9.569  19.660  68.603  1.00  0.00    -0.457 A  
HETATM   24  C   UNL     1     -10.207  18.743  70.756  1.00  0.00     2.202 A  
HETATM   25  C   UNL     1      -9.564  19.725  69.998  1.00  0.00     0.543 A  
HETATM   26  C   UNL     1     -10.838  17.659  70.166  1.00  0.00     1.239 A  
HETATM   27  N   UNL     1     -11.429  16.738  70.950  1.00  0.00     0.138 NA 
HETATM   28  C   UNL     1     -11.997  15.669  70.353  1.00  0.00    -0.376 A  
HETATM   29  C   UNL     1     -12.008  15.467  68.986  1.00  0.00    -0.323 A  
HETATM   30  C   UNL     1     -11.418  16.434  68.179  1.00  0.00    -0.108 A  
HETATM   31  C   UNL     1     -10.816  17.560  68.760  1.00  0.00    -0.012 A  
HETATM   32  C   UNL     1     -10.196  18.566  67.989  1.00  0.00    -0.415 A  
ENDBRANCH  22  23
ENDBRANCH  16  22
ENDBRANCH   9  13
ENDBRANCH   3   6
TORSDOF 4
ENDMDL
MODEL      223
REMARK 921   NORMALIZED FREE ENERGY PREDICTED BY IDOCK:    9.73 KCAL/MOL
REMARK 922        TOTAL FREE ENERGY PREDICTED BY IDOCK:   11.35 KCAL/MOL
REMARK 923 INTER-LIGAND FREE ENERGY PREDICTED BY IDOCK:   10.86 KCAL/MOL
REMARK 924 INTRA-LIGAND FREE ENERGY PREDICTED BY IDOCK:    0.49 KCAL/MOL
REMARK 927      BINDING AFFINITY PREDICTED BY RF-SCORE:    0.00 PKD
ROOT
HETATM    1  C   UNL     1      -9.644   6.829  67.430  1.00  0.00    -0.134 C  
HETATM    2  N   UNL     1      -9.369   8.234  67.596  1.00  0.00    -0.136 N  
HETATM    3  C   UNL     1      -8.946   9.016  66.544  1.00  0.00    -0.146 C  
HETATM    4  H   UNL     1      -9.491   8.660  68.515  1.00  0.00     0.000 HD 
HETATM    5  O   UNL     1      -8.824   8.586  65.402  1.00  0.00    -0.179 OA 
ENDROOT
BRANCH   3   6
HETATM    6  C   UNL     1      -8.602  10.437  66.841  1.00  0.00    -0.127 A  
HETATM    7  C   UNL     1      -7.730  11.121  65.977  1.00  0.00    -0.001 A  
HETATM    8  C   UNL     1      -7.320  12.430  66.263  1.00  0.00     1.074 A  
HETATM    9  C   UNL     1      -7.768  13.072  67.424  1.00  0.00    -0.159 A  
HETATM   10  C   UNL     1      -8.679  12.416  68.256  1.00  0.00    -0.175 A  
HETATM   11  F   UNL     1      -9.921  10.519  68.827  1.00  0.00    -0.161 F  
HETATM   12  C   UNL     1      -9.079  11.111  67.966  1.00  0.00    -0.153 A  
BRANCH   9  13
HETATM   13  C   UNL     1      -7.213  14.408  67.783  1.00  0.00    -0.175 C  
HETATM   14  N   UNL     1      -7.625  15.042  68.848  1.00  0.00    -0.133 NA 
HETATM   15  N   UNL     1      -7.062  16.286  68.977  1.00  0.00    -0.184 NA 
HETATM   16  C   UNL     1      -7.291  17.196  69.983  1.00  0.00     1.192 A  
HETATM   17  C   UNL     1      -6.191  15.026  66.840  1.00  0.00     1.175 C  
HETATM   18  C   UNL     1      -6.561  18.308  69.626  1.00  0.00    -0.079 A  
HETATM   19  N   UNL     1      -5.855  18.096  68.476  1.00  0.00    -0.181 NA 
HETATM   20  N   UNL     1      -5.686  16.202  67.008  1.00  0.00    -0.340 NA 
HETATM   21  C   UNL     1      -6.148  16.870  68.096  1.00  0.00    -0.129 A  
BRANCH  16  22
HETATM   22  C   UNL     1      -8.106  16.928  71.196  1.00  0.00     6.760 C  
BRANCH  22  23
HETATM   23  C   UNL     1      -9.464  16.330  70.914  1.00  0.00     2.905 A  
HETATM   24  C   UNL     1     -11.220  15.775  69.336  1.00  0.00    -0.324 A  
HETATM   25  C   UNL     1      -9.993  16.379  69.623  1.00  0.00    -0.087 A  
HETATM   26  C   UNL     1     -11.970  15.141  70.314  1.00  0.00    -0.319 A  
HETATM   27  N   UNL     1     -13.151  14.589  69.978  1.00  0.00     0.078 NA 
HETATM   28  C   UNL     1     -13.883  14.018  70.958  1.00  0.00     0.096 A  
HETATM   29  C   UNL     1     -13.490  13.965  72.281  1.00  0.00    -0.623 A  
HETATM   30  C   UNL     1     -12.258  14.514  72.618  1.00  0.00    -0.198 A  
HETATM   31  C   UNL     1     -11.466  15.119  71.631  1.00  0.00    -0.445 A  
HETATM   32  C   UNL     1     -10.212  15.699  71.919  1.00  0.00     2.170 A  
ENDBRANCH  22  23
ENDBRANCH  16  22
ENDBRANCH   9  13
ENDBRANCH   3   6
TORSDOF 4
ENDMDL
MODEL      224
REMARK 921   NORMALIZED FREE ENERGY PREDICTED BY IDOCK:   24.59 KCAL/MOL
REMARK 922        TOTAL FREE ENERGY PREDICTED BY IDOCK:   29.69 KCAL/MOL
REMARK 923 INTER-LIGAND FREE ENERGY PREDICTED BY IDOCK:   29.73 KCAL/MOL
REMARK 924 INTRA-LIGAND FREE ENERGY PREDICTED BY IDOCK:   -0.05 KCAL/MOL
REMARK 927      BINDING AFFINITY PREDICTED BY RF-SCORE:    0.00 PKD
ROOT
HETATM    1  C   UNL     1      -7.967  19.071  72.186  1.00  0.00     6.929 C  
HETATM    2  N   UNL     1      -8.523  18.156  71.221  1.00  0.00     7.690 N  
HETATM    3  C   UNL     1      -7.782  17.690  70.157  1.00  0.00     2.112 C  
HETATM    4  H   UNL     1      -9.489  17.846  71.328  1.00  0.00     0.000 HD 
HETATM    5  O   UNL     1      -6.602  17.980  69.990  1.00  0.00     0.018 OA 
ENDROOT
BRANCH   3   6
HETATM    6  C   UNL     1      -8.477  16.819  69.166  1.00  0.00    -0.084 A  
HETATM    7  C   UNL     1      -9.882  16.804  69.141  1.00  0.00    -0.228 A  
HETATM    8  C   UNL     1     -10.574  15.942  68.279  1.00  0.00    -0.276 A  
HETATM    9  C   UNL     1      -9.870  15.074  67.435  1.00  0.00    -0.224 A  
HETATM   10  C   UNL     1      -8.473  15.127  67.416  1.00  0.00    -0.202 A  
HETATM   11  F   UNL     1      -6.452  15.958  68.247  1.00  0.00    -0.106 F  
HETATM   12  C   UNL     1      -7.793  15.985  68.281  1.00  0.00    -0.144 A  
BRANCH   9  13
HETATM   13  C   UNL     1     -10.618  14.069  66.629  1.00  0.00    -0.274 C  
HETATM   14  N   UNL     1     -11.030  12.951  67.164  1.00  0.00    -0.256 NA 
HETATM   15  N   UNL     1     -11.630  12.117  66.256  1.00  0.00    -0.460 NA 
HETATM   16  C   UNL     1     -12.164  10.873  66.504  1.00  0.00     2.840 A  
HETATM   17  C   UNL     1     -10.839  14.368  65.153  1.00  0.00    -0.386 C  
HETATM   18  C   UNL     1     -12.571  10.411  65.271  1.00  0.00     7.403 A  
HETATM   19  N   UNL     1     -12.360  11.342  64.294  1.00  0.00     0.487 NA 
HETATM   20  N   UNL     1     -11.415  13.550  64.338  1.00  0.00    -0.381 NA 
HETATM   21  C   UNL     1     -11.806  12.374  64.893  1.00  0.00    -0.386 A  
BRANCH  16  22
HETATM   22  C   UNL     1     -12.299  10.265  67.852  1.00  0.00     2.922 C  
BRANCH  22  23
HETATM   23  C   UNL     1     -11.025  10.259  68.664  1.00  0.00    -0.289 A  
HETATM   24  C   UNL     1      -9.608  11.291  70.339  1.00  0.00     2.787 A  
HETATM   25  C   UNL     1     -10.751  11.314  69.537  1.00  0.00    -0.147 A  
HETATM   26  C   UNL     1      -8.691  10.253  70.278  1.00  0.00     0.490 A  
HETATM   27  N   UNL     1      -7.601  10.294  71.067  1.00  0.00     0.503 NA 
HETATM   28  C   UNL     1      -6.702   9.294  70.955  1.00  0.00    -0.093 A  
HETATM   29  C   UNL     1      -6.836   8.233  70.082  1.00  0.00    -0.039 A  
HETATM   30  C   UNL     1      -7.976   8.181  69.287  1.00  0.00    -0.115 A  
HETATM   31  C   UNL     1      -8.935   9.201  69.371  1.00  0.00    -0.147 A  
HETATM   32  C   UNL     1     -10.105   9.204  68.583  1.00  0.00    -0.212 A  
ENDBRANCH  22  23
ENDBRANCH  16  22
ENDBRANCH   9  13
ENDBRANCH   3   6
TORSDOF 4
ENDMDL
MODEL      225
REMARK 921   NORMALIZED FREE ENERGY PREDICTED BY IDOCK:   25.82 KCAL/MOL
REMARK 922        TOTAL FREE ENERGY PREDICTED BY IDOCK:   31.20 KCAL/MOL
REMARK 923 INTER-LIGAND FREE ENERGY PREDICTED BY IDOCK:   30.42 KCAL/MOL
REMARK 924 INTRA-LIGAND FREE ENERGY PREDICTED BY IDOCK:    0.78 KCAL/MOL
REMARK 927      BINDING AFFINITY PREDICTED BY RF-SCORE:    0.00 PKD
ROOT
HETATM    1  C   UNL     1     -12.173   8.777  64.925  1.00  0.00    15.962 C  
HETATM    2  N   UNL     1     -11.191   9.784  65.239  1.00  0.00     1.770 N  
HETATM    3  C   UNL     1     -11.266  10.529  66.396  1.00  0.00     0.340 C  
HETATM    4  H   UNL     1     -10.422   9.950  64.590  1.00  0.00     0.000 HD 
HETATM    5  O   UNL     1     -12.133  10.353  67.245  1.00  0.00     0.883 OA 
ENDROOT
BRANCH   3   6
HETATM    6  C   UNL     1     -10.253  11.607  66.583  1.00  0.00    -0.249 A  
HETATM    7  C   UNL     1      -9.596  11.715  67.821  1.00  0.00    -0.178 A  
HETATM    8  C   UNL     1      -8.695  12.761  68.064  1.00  0.00    -0.194 A  
HETATM    9  C   UNL     1      -8.446  13.722  67.076  1.00  0.00    -0.150 A  
HETATM   10  C   UNL     1      -9.054  13.586  65.825  1.00  0.00     0.467 A  
HETATM   11  F   UNL     1     -10.538  12.492  64.387  1.00  0.00    -0.291 F  
HETATM   12  C   UNL     1      -9.953  12.543  65.593  1.00  0.00    -0.245 A  
BRANCH   9  13
HETATM   13  C   UNL     1      -7.596  14.902  67.399  1.00  0.00    -0.204 C  
HETATM   14  N   UNL     1      -8.128  16.077  67.603  1.00  0.00    -0.144 NA 
HETATM   15  N   UNL     1      -7.190  17.056  67.811  1.00  0.00    -0.150 NA 
HETATM   16  C   UNL     1      -7.428  18.390  68.050  1.00  0.00    -0.253 A  
HETATM   17  C   UNL     1      -6.087  14.700  67.433  1.00  0.00     0.227 C  
HETATM   18  C   UNL     1      -6.178  18.966  68.112  1.00  0.00    -0.220 A  
HETATM   19  N   UNL     1      -5.189  18.033  67.977  1.00  0.00    -0.150 NA 
HETATM   20  N   UNL     1      -5.244  15.656  67.638  1.00  0.00    -0.260 NA 
HETATM   21  C   UNL     1      -5.804  16.881  67.810  1.00  0.00    -0.133 A  
BRANCH  16  22
HETATM   22  C   UNL     1      -8.772  18.986  68.257  1.00  0.00    -0.366 C  
BRANCH  22  23
HETATM   23  C   UNL     1      -9.669  18.195  69.181  1.00  0.00    -0.113 A  
HETATM   24  C   UNL     1     -11.806  17.921  70.294  1.00  0.00     5.635 A  
HETATM   25  C   UNL     1     -10.944  18.672  69.491  1.00  0.00     1.879 A  
HETATM   26  C   UNL     1     -11.425  16.705  70.839  1.00  0.00     0.170 A  
HETATM   27  N   UNL     1     -12.295  16.034  71.616  1.00  0.00    -0.457 NA 
HETATM   28  C   UNL     1     -11.884  14.874  72.171  1.00  0.00    -0.310 A  
HETATM   29  C   UNL     1     -10.625  14.337  71.987  1.00  0.00     3.464 A  
HETATM   30  C   UNL     1      -9.738  15.021  71.162  1.00  0.00     1.957 A  
HETATM   31  C   UNL     1     -10.125  16.231  70.567  1.00  0.00     0.848 A  
HETATM   32  C   UNL     1      -9.263  16.970  69.730  1.00  0.00     0.882 A  
ENDBRANCH  22  23
ENDBRANCH  16  22
ENDBRANCH   9  13
ENDBRANCH   3   6
TORSDOF 4
ENDMDL
MODEL      226
REMARK 921   NORMALIZED FREE ENERGY PREDICTED BY IDOCK:   26.19 KCAL/MOL
REMARK 922        TOTAL FREE ENERGY PREDICTED BY IDOCK:   31.65 KCAL/MOL
REMARK 923 INTER-LIGAND FREE ENERGY PREDICTED BY IDOCK:   29.57 KCAL/MOL
REMARK 924 INTRA-LIGAND FREE ENERGY PREDICTED BY IDOCK:    2.08 KCAL/MOL
REMARK 927      BINDING AFFINITY PREDICTED BY RF-SCORE:    0.00 PKD
ROOT
HETATM    1  C   UNL     1     -12.989   9.568  65.440  1.00  0.00    17.193 C  
HETATM    2  N   UNL     1     -12.226  10.785  65.567  1.00  0.00     2.820 N  
HETATM    3  C   UNL     1     -12.174  11.484  66.752  1.00  0.00     1.296 C  
HETATM    4  H   UNL     1     -11.713  11.137  64.759  1.00  0.00     0.000 HD 
HETATM    5  O   UNL     1     -12.725  11.097  67.778  1.00  0.00     1.197 OA 
ENDROOT
BRANCH   3   6
HETATM    6  C   UNL     1     -11.432  12.777  66.753  1.00  0.00    -0.399 A  
HETATM    7  C   UNL     1     -10.388  12.962  67.676  1.00  0.00    -0.218 A  
HETATM    8  C   UNL     1      -9.718  14.191  67.762  1.00  0.00    -0.223 A  
HETATM    9  C   UNL     1     -10.089  15.257  66.933  1.00  0.00    -0.257 A  
HETATM   10  C   UNL     1     -11.088  15.059  65.976  1.00  0.00    -0.329 A  
HETATM   11  F   UNL     1     -12.732  13.720  64.990  1.00  0.00    -0.420 F  
HETATM   12  C   UNL     1     -11.753  13.834  65.900  1.00  0.00    -0.352 A  
BRANCH   9  13
HETATM   13  C   UNL     1      -9.463  16.594  67.134  1.00  0.00    -0.230 C  
HETATM   14  N   UNL     1     -10.041  17.501  67.874  1.00  0.00    -0.313 NA 
HETATM   15  N   UNL     1      -9.361  18.692  67.882  1.00  0.00    -0.292 NA 
HETATM   16  C   UNL     1      -9.710  19.838  68.559  1.00  0.00    -0.371 A  
HETATM   17  C   UNL     1      -8.157  16.879  66.407  1.00  0.00    -0.315 C  
HETATM   18  C   UNL     1      -8.764  20.769  68.188  1.00  0.00     0.441 A  
HETATM   19  N   UNL     1      -7.824  20.225  67.360  1.00  0.00    -0.315 NA 
HETATM   20  N   UNL     1      -7.552  18.019  66.450  1.00  0.00    -0.244 NA 
HETATM   21  C   UNL     1      -8.178  18.969  67.190  1.00  0.00    -0.269 A  
BRANCH  16  22
HETATM   22  C   UNL     1     -10.837  19.942  69.520  1.00  0.00     1.061 C  
BRANCH  22  23
HETATM   23  C   UNL     1     -11.228  18.634  70.165  1.00  0.00     3.742 A  
HETATM   24  C   UNL     1     -11.965  16.333  69.952  1.00  0.00     0.121 A  
HETATM   25  C   UNL     1     -11.659  17.568  69.373  1.00  0.00     2.106 A  
HETATM   26  C   UNL     1     -11.889  16.127  71.320  1.00  0.00    -0.405 A  
HETATM   27  N   UNL     1     -12.209  14.919  71.819  1.00  0.00    -0.331 NA 
HETATM   28  C   UNL     1     -12.171  14.757  73.159  1.00  0.00    -0.255 A  
HETATM   29  C   UNL     1     -11.821  15.758  74.045  1.00  0.00    -0.201 A  
HETATM   30  C   UNL     1     -11.466  16.997  73.523  1.00  0.00     0.797 A  
HETATM   31  C   UNL     1     -11.494  17.207  72.136  1.00  0.00     0.937 A  
HETATM   32  C   UNL     1     -11.153  18.446  71.553  1.00  0.00     3.597 A  
ENDBRANCH  22  23
ENDBRANCH  16  22
ENDBRANCH   9  13
ENDBRANCH   3   6
TORSDOF 4
ENDMDL
MODEL      227
REMARK 921   NORMALIZED FREE ENERGY PREDICTED BY IDOCK:   27.75 KCAL/MOL
REMARK 922        TOTAL FREE ENERGY PREDICTED BY IDOCK:   33.58 KCAL/MOL
REMARK 923 INTER-LIGAND FREE ENERGY PREDICTED BY IDOCK:   33.30 KCAL/MOL
REMARK 924 INTRA-LIGAND FREE ENERGY PREDICTED BY IDOCK:    0.29 KCAL/MOL
REMARK 927      BINDING AFFINITY PREDICTED BY RF-SCORE:    0.00 PKD
ROOT
HETATM    1  C   UNL     1      -5.954  13.683  74.308  1.00  0.00     0.323 C  
HETATM    2  N   UNL     1      -6.388  13.425  72.957  1.00  0.00     1.575 N  
HETATM    3  C   UNL     1      -6.676  12.150  72.523  1.00  0.00     6.816 C  
HETATM    4  H   UNL     1      -6.484  14.205  72.308  1.00  0.00     0.000 HD 
HETATM    5  O   UNL     1      -6.630  11.170  73.259  1.00  0.00     3.517 OA 
ENDROOT
BRANCH   3   6
HETATM    6  C   UNL     1      -7.029  11.979  71.084  1.00  0.00     3.899 A  
HETATM    7  C   UNL     1      -6.413  12.805  70.130  1.00  0.00     0.176 A  
HETATM    8  C   UNL     1      -6.774  12.730  68.777  1.00  0.00    -0.093 A  
HETATM    9  C   UNL     1      -7.766  11.834  68.361  1.00  0.00    -0.131 A  
HETATM   10  C   UNL     1      -8.342  10.972  69.298  1.00  0.00     0.033 A  
HETATM   11  F   UNL     1      -8.598  10.232  71.501  1.00  0.00     1.523 F  
HETATM   12  C   UNL     1      -7.979  11.056  70.644  1.00  0.00     2.935 A  
BRANCH   9  13
HETATM   13  C   UNL     1      -8.236  11.866  66.947  1.00  0.00    -0.157 C  
HETATM   14  N   UNL     1      -9.178  11.061  66.534  1.00  0.00    -0.167 NA 
HETATM   15  N   UNL     1      -9.426  11.178  65.190  1.00  0.00    -0.222 NA 
HETATM   16  C   UNL     1     -10.351  10.472  64.456  1.00  0.00    -0.205 A  
HETATM   17  C   UNL     1      -7.546  12.832  65.994  1.00  0.00     2.161 C  
HETATM   18  C   UNL     1     -10.163  10.889  63.157  1.00  0.00    -0.194 A  
HETATM   19  N   UNL     1      -9.203  11.858  63.076  1.00  0.00    -0.165 NA 
HETATM   20  N   UNL     1      -7.819  12.907  64.734  1.00  0.00     5.270 NA 
HETATM   21  C   UNL     1      -8.772  12.040  64.305  1.00  0.00     1.248 A  
BRANCH  16  22
HETATM   22  C   UNL     1     -11.349   9.535  65.031  1.00  0.00     5.203 C  
BRANCH  22  23
HETATM   23  C   UNL     1     -10.902   8.851  66.301  1.00  0.00     0.840 A  
HETATM   24  C   UNL     1      -9.654   7.083  67.399  1.00  0.00    -0.164 A  
HETATM   25  C   UNL     1     -10.126   7.691  66.232  1.00  0.00     0.050 A  
HETATM   26  C   UNL     1      -9.961   7.577  68.657  1.00  0.00    -0.172 A  
HETATM   27  N   UNL     1      -9.487   6.940  69.744  1.00  0.00    -0.146 NA 
HETATM   28  C   UNL     1      -9.837   7.415  70.958  1.00  0.00    -0.179 A  
HETATM   29  C   UNL     1     -10.650   8.516  71.149  1.00  0.00    -0.277 A  
HETATM   30  C   UNL     1     -11.115   9.186  70.023  1.00  0.00    -0.208 A  
HETATM   31  C   UNL     1     -10.776   8.725  68.742  1.00  0.00    -0.111 A  
HETATM   32  C   UNL     1     -11.228   9.361  67.566  1.00  0.00     0.319 A  
ENDBRANCH  22  23
ENDBRANCH  16  22
ENDBRANCH   9  13
ENDBRANCH   3   6
TORSDOF 4
ENDMDL
MODEL      228
REMARK 921   NORMALIZED FREE ENERGY PREDICTED BY IDOCK:   28.16 KCAL/MOL
REMARK 922        TOTAL FREE ENERGY PREDICTED BY IDOCK:   34.09 KCAL/MOL
REMARK 923 INTER-LIGAND FREE ENERGY PREDICTED BY IDOCK:   34.22 KCAL/MOL
REMARK 924 INTRA-LIGAND FREE ENERGY PREDICTED BY IDOCK:   -0.13 KCAL/MOL
REMARK 927      BINDING AFFINITY PREDICTED BY RF-SCORE:    0.00 PKD
ROOT
HETATM    1  C   UNL     1      -5.350  17.140  70.850  1.00  0.00    -0.138 C  
HETATM    2  N   UNL     1      -6.093  15.935  70.577  1.00  0.00     0.040 N  
HETATM    3  C   UNL     1      -7.442  15.844  70.839  1.00  0.00     2.605 C  
HETATM    4  H   UNL     1      -5.608  15.130  70.180  1.00  0.00     0.000 HD 
HETATM    5  O   UNL     1      -8.101  16.784  71.271  1.00  0.00     5.843 OA 
ENDROOT
BRANCH   3   6
HETATM    6  C   UNL     1      -8.098  14.525  70.606  1.00  0.00     2.039 A  
HETATM    7  C   UNL     1      -8.974  14.019  71.580  1.00  0.00     8.305 A  
HETATM    8  C   UNL     1      -9.551  12.749  71.436  1.00  0.00    13.168 A  
HETATM    9  C   UNL     1      -9.250  11.962  70.317  1.00  0.00     4.120 A  
HETATM   10  C   UNL     1      -8.424  12.485  69.318  1.00  0.00     0.861 A  
HETATM   11  F   UNL     1      -7.033  14.177  68.500  1.00  0.00    -0.083 F  
HETATM   12  C   UNL     1      -7.851  13.748  69.473  1.00  0.00     0.581 A  
BRANCH   9  13
HETATM   13  C   UNL     1      -9.759  10.563  70.248  1.00  0.00     0.626 C  
HETATM   14  N   UNL     1      -9.413   9.770  69.270  1.00  0.00    -0.182 NA 
HETATM   15  N   UNL     1     -10.036   8.550  69.328  1.00  0.00    -0.197 NA 
HETATM   16  C   UNL     1      -9.886   7.503  68.449  1.00  0.00    -0.164 A  
HETATM   17  C   UNL     1     -10.733  10.110  71.327  1.00  0.00     0.479 C  
HETATM   18  C   UNL     1     -10.772   6.543  68.888  1.00  0.00    -0.273 A  
HETATM   19  N   UNL     1     -11.412   6.938  70.028  1.00  0.00    -0.298 NA 
HETATM   20  N   UNL     1     -11.291   8.946  71.340  1.00  0.00    -0.284 NA 
HETATM   21  C   UNL     1     -10.955   8.142  70.299  1.00  0.00    -0.240 A  
BRANCH  16  22
HETATM   22  C   UNL     1      -8.905   7.468  67.334  1.00  0.00    -0.127 C  
BRANCH  22  23
HETATM   23  C   UNL     1      -9.079   8.572  66.317  1.00  0.00    -0.232 A  
HETATM   24  C   UNL     1      -8.323   9.705  64.310  1.00  0.00    -0.169 A  
HETATM   25  C   UNL     1      -8.142   8.728  65.293  1.00  0.00    -0.129 A  
HETATM   26  C   UNL     1      -9.405  10.571  64.329  1.00  0.00    -0.267 A  
HETATM   27  N   UNL     1      -9.518  11.499  63.362  1.00  0.00    -0.278 NA 
HETATM   28  C   UNL     1     -10.556  12.360  63.428  1.00  0.00    -0.332 A  
HETATM   29  C   UNL     1     -11.508  12.340  64.429  1.00  0.00    -0.417 A  
HETATM   30  C   UNL     1     -11.402  11.363  65.412  1.00  0.00    -0.067 A  
HETATM   31  C   UNL     1     -10.337  10.450  65.381  1.00  0.00    -0.270 A  
HETATM   32  C   UNL     1     -10.176   9.444  66.357  1.00  0.00    -0.300 A  
ENDBRANCH  22  23
ENDBRANCH  16  22
ENDBRANCH   9  13
ENDBRANCH   3   6
TORSDOF 4
ENDMDL
MODEL      229
REMARK 921   NORMALIZED FREE ENERGY PREDICTED BY IDOCK:   33.07 KCAL/MOL
REMARK 922        TOTAL FREE ENERGY PREDICTED BY IDOCK:   40.14 KCAL/MOL
REMARK 923 INTER-LIGAND FREE ENERGY PREDICTED BY IDOCK:   40.01 KCAL/MOL
REMARK 924 INTRA-LIGAND FREE ENERGY PREDICTED BY IDOCK:    0.13 KCAL/MOL
REMARK 927      BINDING AFFINITY PREDICTED BY RF-SCORE:    0.00 PKD
ROOT
HETATM    1  C   UNL     1      -9.087   7.460  66.820  1.00  0.00    -0.151 C  
HETATM    2  N   UNL     1      -8.919   8.798  67.329  1.00  0.00    -0.131 N  
HETATM    3  C   UNL     1      -8.535   9.838  66.511  1.00  0.00    -0.124 C  
HETATM    4  H   UNL     1      -9.088   8.980  68.318  1.00  0.00     0.000 HD 
HETATM    5  O   UNL     1      -8.360   9.706  65.304  1.00  0.00    -0.123 OA 
ENDROOT
BRANCH   3   6
HETATM    6  C   UNL     1      -8.301  11.164  67.152  1.00  0.00    -0.136 A  
HETATM    7  C   UNL     1      -7.087  11.391  67.822  1.00  0.00    -0.081 A  
HETATM    8  C   UNL     1      -6.860  12.595  68.504  1.00  0.00    -0.090 A  
HETATM    9  C   UNL     1      -7.849  13.586  68.534  1.00  0.00    -0.125 A  
HETATM   10  C   UNL     1      -9.035  13.386  67.821  1.00  0.00    -0.205 A  
HETATM   11  F   UNL     1     -10.430  12.035  66.520  1.00  0.00    -0.229 F  
HETATM   12  C   UNL     1      -9.254  12.183  67.149  1.00  0.00    -0.193 A  
BRANCH   9  13
HETATM   13  C   UNL     1      -7.647  14.797  69.378  1.00  0.00    -0.127 C  
HETATM   14  N   UNL     1      -8.539  15.751  69.409  1.00  0.00    -0.256 NA 
HETATM   15  N   UNL     1      -8.150  16.818  70.177  1.00  0.00     1.641 NA 
HETATM   16  C   UNL     1      -8.861  17.973  70.407  1.00  0.00     3.559 A  
HETATM   17  C   UNL     1      -6.346  14.906  70.159  1.00  0.00    -0.162 C  
HETATM   18  C   UNL     1      -8.022  18.759  71.167  1.00  0.00     5.191 A  
HETATM   19  N   UNL     1      -6.855  18.111  71.456  1.00  0.00     3.664 NA 
HETATM   20  N   UNL     1      -6.027  15.933  70.874  1.00  0.00     0.228 NA 
HETATM   21  C   UNL     1      -6.942  16.936  70.870  1.00  0.00     3.067 A  
BRANCH  16  22
HETATM   22  C   UNL     1     -10.257  18.210  69.958  1.00  0.00     1.020 C  
BRANCH  22  23
HETATM   23  C   UNL     1     -10.440  18.189  68.459  1.00  0.00    -0.267 A  
HETATM   24  C   UNL     1     -11.558  19.027  66.475  1.00  0.00     1.327 A  
HETATM   25  C   UNL     1     -11.419  18.990  67.865  1.00  0.00     0.900 A  
HETATM   26  C   UNL     1     -10.767  18.255  65.640  1.00  0.00    -0.033 A  
HETATM   27  N   UNL     1     -10.957  18.324  64.310  1.00  0.00     1.829 NA 
HETATM   28  C   UNL     1     -10.204  17.529  63.520  1.00  0.00    10.758 A  
HETATM   29  C   UNL     1      -9.251  16.651  63.999  1.00  0.00     8.960 A  
HETATM   30  C   UNL     1      -9.039  16.602  65.372  1.00  0.00     0.855 A  
HETATM   31  C   UNL     1      -9.801  17.412  66.228  1.00  0.00    -0.291 A  
HETATM   32  C   UNL     1      -9.635  17.395  67.629  1.00  0.00    -0.261 A  
ENDBRANCH  22  23
ENDBRANCH  16  22
ENDBRANCH   9  13
ENDBRANCH   3   6
TORSDOF 4
ENDMDL
